24
Fragment
H -12.233700 -15.945700 -44.159600
H -11.472100 -12.973300 -48.551200
H -11.471100 -15.803200 -42.796500
C -11.371000 -15.844900 -43.750900
O -11.364800 -15.168900 -46.381100
C -10.822600 -14.365700 -45.632900
H -10.817900 -16.594600 -43.983200
N -10.741200 -14.600500 -44.234000
C -10.513000 -12.970500 -48.504700
C -10.212500 -13.117800 -45.979200
H -10.184800 -13.864700 -48.626700
H -10.160900 -12.403600 -49.194900
N -10.089200 -12.468900 -47.197000
C -10.072600 -13.814000 -43.297200
O -9.979000 -14.148200 -42.115700
C -9.615900 -12.289600 -45.062800
N -9.520400 -12.627300 -43.729100
C -9.455700 -11.314800 -46.944800
H -9.410100 -11.350300 -42.186300
H -9.251000 -10.688800 -47.602300
N -9.144800 -11.152200 -45.646900
C -8.787000 -11.789400 -42.768500
H -8.274700 -11.131400 -43.244300
H -8.196300 -12.340300 -42.247900
16
Fragment
H -9.335700 -14.048200 -51.977100
O -9.275500 -15.203600 -54.242100
H -9.139200 -15.799800 -54.865700
C -8.897800 -14.866600 -51.921400
C -8.748600 -15.665700 -53.058400
H -8.472200 -14.770800 -49.953500
C -8.385000 -15.306400 -50.708100
C -8.087800 -16.889900 -52.976400
H -7.979500 -17.415200 -53.734900
C -7.743000 -16.536900 -50.605100
C -7.590300 -17.322800 -51.746800
H -7.418500 -16.830800 -49.785500
C -6.873500 -18.631800 -51.619100
O -6.686700 -19.257100 -52.781800
O -6.478100 -19.070200 -50.556900
H -6.238100 -20.031100 -52.629300
40
Fragment
H -12.233700 -15.945700 -44.159600
H -11.472100 -12.973300 -48.551200
H -11.471100 -15.803200 -42.796500
C -11.371000 -15.844900 -43.750900
O -11.364800 -15.168900 -46.381100
C -10.822600 -14.365700 -45.632900
H -10.817900 -16.594600 -43.983200
N -10.741200 -14.600500 -44.234000
C -10.513000 -12.970500 -48.504700
C -10.212500 -13.117800 -45.979200
H -10.184800 -13.864700 -48.626700
H -10.160900 -12.403600 -49.194900
N -10.089200 -12.468900 -47.197000
C -10.072600 -13.814000 -43.297200
O -9.979000 -14.148200 -42.115700
C -9.615900 -12.289600 -45.062800
N -9.520400 -12.627300 -43.729100
C -9.455700 -11.314800 -46.944800
H -9.410100 -11.350300 -42.186300
H -9.251000 -10.688800 -47.602300
N -9.144800 -11.152200 -45.646900
C -8.787000 -11.789400 -42.768500
H -8.274700 -11.131400 -43.244300
H -8.196300 -12.340300 -42.247900
H -9.335700 -14.048200 -51.977100
O -9.275500 -15.203600 -54.242100
H -9.139200 -15.799800 -54.865700
C -8.897800 -14.866600 -51.921400
C -8.748600 -15.665700 -53.058400
H -8.472200 -14.770800 -49.953500
C -8.385000 -15.306400 -50.708100
C -8.087800 -16.889900 -52.976400
H -7.979500 -17.415200 -53.734900
C -7.743000 -16.536900 -50.605100
C -7.590300 -17.322800 -51.746800
H -7.418500 -16.830800 -49.785500
C -6.873500 -18.631800 -51.619100
O -6.686700 -19.257100 -52.781800
O -6.478100 -19.070200 -50.556900
H -6.238100 -20.031100 -52.629300
