24
Fragment
H -12.233700 -15.945700 -44.159600
H -11.472100 -12.973300 -48.551200
H -11.471100 -15.803200 -42.796500
C -11.371000 -15.844900 -43.750900
O -11.364800 -15.168900 -46.381100
C -10.822600 -14.365700 -45.632900
H -10.817900 -16.594600 -43.983200
N -10.741200 -14.600500 -44.234000
C -10.513000 -12.970500 -48.504700
C -10.212500 -13.117800 -45.979200
H -10.184800 -13.864700 -48.626700
H -10.160900 -12.403600 -49.194900
N -10.089200 -12.468900 -47.197000
C -10.072600 -13.814000 -43.297200
O -9.979000 -14.148200 -42.115700
C -9.615900 -12.289600 -45.062800
N -9.520400 -12.627300 -43.729100
C -9.455700 -11.314800 -46.944800
H -9.410100 -11.350300 -42.186300
H -9.251000 -10.688800 -47.602300
N -9.144800 -11.152200 -45.646900
C -8.787000 -11.789400 -42.768500
H -8.274700 -11.131400 -43.244300
H -8.196300 -12.340300 -42.247900
24
Fragment
H -13.930900 -15.814300 -55.716600
H -13.852600 -14.605400 -54.720100
C -13.340300 -15.263400 -55.196000
N -12.982400 -14.626200 -52.317500
H -12.876200 -14.162800 -50.362100
H -12.717100 -14.824300 -55.778100
C -12.671600 -14.788800 -51.019600
N -12.606900 -16.101300 -54.235300
C -12.511300 -15.763600 -52.901600
O -12.148200 -17.622200 -55.848700
C -12.054600 -17.288000 -54.667200
N -12.038100 -15.942900 -50.767400
H -11.966400 -15.877600 -48.769500
H -11.942500 -17.338700 -49.337700
C -11.914700 -16.591800 -51.985200
C -11.614300 -16.444500 -49.459700
N -11.386100 -18.074500 -53.730400
H -11.309400 -20.068600 -53.981200
C -11.304700 -17.839700 -52.331500
O -10.762500 -18.642900 -51.583300
C -10.756300 -19.318900 -54.213500
H -10.656100 -19.277200 -55.168000
H -10.655200 -16.447300 -49.413300
H -9.893600 -19.419700 -53.804900
48
Fragment
H -12.233700 -15.945700 -44.159600
H -11.472100 -12.973300 -48.551200
H -11.471100 -15.803200 -42.796500
C -11.371000 -15.844900 -43.750900
O -11.364800 -15.168900 -46.381100
C -10.822600 -14.365700 -45.632900
H -10.817900 -16.594600 -43.983200
N -10.741200 -14.600500 -44.234000
C -10.513000 -12.970500 -48.504700
C -10.212500 -13.117800 -45.979200
H -10.184800 -13.864700 -48.626700
H -10.160900 -12.403600 -49.194900
N -10.089200 -12.468900 -47.197000
C -10.072600 -13.814000 -43.297200
O -9.979000 -14.148200 -42.115700
C -9.615900 -12.289600 -45.062800
N -9.520400 -12.627300 -43.729100
C -9.455700 -11.314800 -46.944800
H -9.410100 -11.350300 -42.186300
H -9.251000 -10.688800 -47.602300
N -9.144800 -11.152200 -45.646900
C -8.787000 -11.789400 -42.768500
H -8.274700 -11.131400 -43.244300
H -8.196300 -12.340300 -42.247900
H -13.930900 -15.814300 -55.716600
H -13.852600 -14.605400 -54.720100
C -13.340300 -15.263400 -55.196000
N -12.982400 -14.626200 -52.317500
H -12.876200 -14.162800 -50.362100
H -12.717100 -14.824300 -55.778100
C -12.671600 -14.788800 -51.019600
N -12.606900 -16.101300 -54.235300
C -12.511300 -15.763600 -52.901600
O -12.148200 -17.622200 -55.848700
C -12.054600 -17.288000 -54.667200
N -12.038100 -15.942900 -50.767400
H -11.966400 -15.877600 -48.769500
H -11.942500 -17.338700 -49.337700
C -11.914700 -16.591800 -51.985200
C -11.614300 -16.444500 -49.459700
N -11.386100 -18.074500 -53.730400
H -11.309400 -20.068600 -53.981200
C -11.304700 -17.839700 -52.331500
O -10.762500 -18.642900 -51.583300
C -10.756300 -19.318900 -54.213500
H -10.656100 -19.277200 -55.168000
H -10.655200 -16.447300 -49.413300
H -9.893600 -19.419700 -53.804900
