24
Fragment
H -12.233700 -15.945700 -44.159600
H -11.472100 -12.973300 -48.551200
H -11.471100 -15.803200 -42.796500
C -11.371000 -15.844900 -43.750900
O -11.364800 -15.168900 -46.381100
C -10.822600 -14.365700 -45.632900
H -10.817900 -16.594600 -43.983200
N -10.741200 -14.600500 -44.234000
C -10.513000 -12.970500 -48.504700
C -10.212500 -13.117800 -45.979200
H -10.184800 -13.864700 -48.626700
H -10.160900 -12.403600 -49.194900
N -10.089200 -12.468900 -47.197000
C -10.072600 -13.814000 -43.297200
O -9.979000 -14.148200 -42.115700
C -9.615900 -12.289600 -45.062800
N -9.520400 -12.627300 -43.729100
C -9.455700 -11.314800 -46.944800
H -9.410100 -11.350300 -42.186300
H -9.251000 -10.688800 -47.602300
N -9.144800 -11.152200 -45.646900
C -8.787000 -11.789400 -42.768500
H -8.274700 -11.131400 -43.244300
H -8.196300 -12.340300 -42.247900
24
Fragment
H -7.475500 -8.503700 -41.721600
H -7.397100 -9.712600 -40.725200
C -6.884800 -9.054600 -41.201000
N -6.527000 -9.691800 -38.322600
H -6.420800 -10.155200 -36.367200
H -6.261700 -9.493700 -41.783200
C -6.216100 -9.529200 -37.024700
N -6.151400 -8.216700 -40.240400
C -6.055900 -8.554400 -38.906700
O -5.692800 -6.695800 -41.853800
C -5.599200 -7.030000 -40.672300
N -5.582600 -8.375100 -36.772500
H -5.510900 -8.440400 -34.774600
H -5.487000 -6.979300 -35.342800
C -5.459300 -7.726200 -37.990300
C -5.158800 -7.873500 -35.464800
N -4.930600 -6.243500 -39.735500
H -4.853900 -4.249400 -39.986300
C -4.849200 -6.478300 -38.336600
O -4.307000 -5.675100 -37.588400
C -4.300800 -4.999100 -40.218600
H -4.200700 -5.040800 -41.173000
H -4.199700 -7.870700 -35.418300
H -3.438100 -4.898300 -39.809900
48
Fragment
H -12.233700 -15.945700 -44.159600
H -11.472100 -12.973300 -48.551200
H -11.471100 -15.803200 -42.796500
C -11.371000 -15.844900 -43.750900
O -11.364800 -15.168900 -46.381100
C -10.822600 -14.365700 -45.632900
H -10.817900 -16.594600 -43.983200
N -10.741200 -14.600500 -44.234000
C -10.513000 -12.970500 -48.504700
C -10.212500 -13.117800 -45.979200
H -10.184800 -13.864700 -48.626700
H -10.160900 -12.403600 -49.194900
N -10.089200 -12.468900 -47.197000
C -10.072600 -13.814000 -43.297200
O -9.979000 -14.148200 -42.115700
C -9.615900 -12.289600 -45.062800
N -9.520400 -12.627300 -43.729100
C -9.455700 -11.314800 -46.944800
H -9.410100 -11.350300 -42.186300
H -9.251000 -10.688800 -47.602300
N -9.144800 -11.152200 -45.646900
C -8.787000 -11.789400 -42.768500
H -8.274700 -11.131400 -43.244300
H -8.196300 -12.340300 -42.247900
H -7.475500 -8.503700 -41.721600
H -7.397100 -9.712600 -40.725200
C -6.884800 -9.054600 -41.201000
N -6.527000 -9.691800 -38.322600
H -6.420800 -10.155200 -36.367200
H -6.261700 -9.493700 -41.783200
C -6.216100 -9.529200 -37.024700
N -6.151400 -8.216700 -40.240400
C -6.055900 -8.554400 -38.906700
O -5.692800 -6.695800 -41.853800
C -5.599200 -7.030000 -40.672300
N -5.582600 -8.375100 -36.772500
H -5.510900 -8.440400 -34.774600
H -5.487000 -6.979300 -35.342800
C -5.459300 -7.726200 -37.990300
C -5.158800 -7.873500 -35.464800
N -4.930600 -6.243500 -39.735500
H -4.853900 -4.249400 -39.986300
C -4.849200 -6.478300 -38.336600
O -4.307000 -5.675100 -37.588400
C -4.300800 -4.999100 -40.218600
H -4.200700 -5.040800 -41.173000
H -4.199700 -7.870700 -35.418300
H -3.438100 -4.898300 -39.809900
