24
Fragment
H -14.102200 -20.037500 -26.195900
H -14.084500 -26.794400 -27.561100
H -13.881400 -24.410200 -22.599100
N -13.390900 -22.767800 -28.277800
C -13.361700 -24.029600 -28.718900
C -13.360400 -22.908300 -26.924900
H -13.358700 -24.177100 -29.289700
N -13.346900 -21.892600 -25.984000
N -13.322600 -24.940900 -27.755900
C -13.313100 -24.233100 -26.565800
C -13.284800 -26.408800 -27.927400
C -13.284400 -22.200400 -24.654200
O -13.278700 -21.340100 -23.787300
C -13.268900 -20.471900 -26.390100
C -13.242700 -24.667600 -25.202100
N -13.242100 -23.564300 -24.312600
H -13.227000 -26.620000 -28.861600
O -13.187300 -25.815700 -24.787100
H -13.152000 -23.042100 -22.368100
C -13.140000 -23.863600 -22.865400
H -13.091100 -20.418100 -27.331600
H -12.561700 -20.039200 -25.906100
H -12.519600 -26.764200 -27.469900
H -12.319000 -24.329700 -22.693200
24
Fragment
H -10.576900 -34.384500 -27.724400
H -10.545800 -28.459300 -28.458500
H -10.240200 -29.659800 -23.065400
O -9.721800 -31.563400 -28.701700
C -9.713400 -34.371100 -27.306600
N -9.668800 -33.317400 -26.334200
C -9.659800 -31.135700 -27.530200
C -9.653900 -28.804700 -28.371700
C -9.640300 -31.956600 -26.389100
C -9.602800 -33.557900 -24.941100
N -9.601600 -29.745600 -27.241600
C -9.571000 -31.464700 -25.085300
N -9.557100 -32.373200 -24.135800
H -9.555200 -35.212800 -26.872700
H -9.544900 -34.622600 -24.523300
C -9.524400 -29.209200 -25.958800
N -9.508000 -30.081400 -24.900300
O -9.488400 -27.986100 -25.777300
H -9.408800 -29.262400 -29.179300
C -9.401000 -29.545800 -23.518500
H -9.180000 -28.613500 -23.552400
H -9.043900 -28.082000 -28.214300
H -9.037500 -34.221900 -27.971600
H -8.714700 -30.020200 -23.043400
48
Fragment
H -14.102200 -20.037500 -26.195900
H -14.084500 -26.794400 -27.561100
H -13.881400 -24.410200 -22.599100
N -13.390900 -22.767800 -28.277800
C -13.361700 -24.029600 -28.718900
C -13.360400 -22.908300 -26.924900
H -13.358700 -24.177100 -29.289700
N -13.346900 -21.892600 -25.984000
N -13.322600 -24.940900 -27.755900
C -13.313100 -24.233100 -26.565800
C -13.284800 -26.408800 -27.927400
C -13.284400 -22.200400 -24.654200
O -13.278700 -21.340100 -23.787300
C -13.268900 -20.471900 -26.390100
C -13.242700 -24.667600 -25.202100
N -13.242100 -23.564300 -24.312600
H -13.227000 -26.620000 -28.861600
O -13.187300 -25.815700 -24.787100
H -13.152000 -23.042100 -22.368100
C -13.140000 -23.863600 -22.865400
H -13.091100 -20.418100 -27.331600
H -12.561700 -20.039200 -25.906100
H -12.519600 -26.764200 -27.469900
H -12.319000 -24.329700 -22.693200
H -10.576900 -34.384500 -27.724400
H -10.545800 -28.459300 -28.458500
H -10.240200 -29.659800 -23.065400
O -9.721800 -31.563400 -28.701700
C -9.713400 -34.371100 -27.306600
N -9.668800 -33.317400 -26.334200
C -9.659800 -31.135700 -27.530200
C -9.653900 -28.804700 -28.371700
C -9.640300 -31.956600 -26.389100
C -9.602800 -33.557900 -24.941100
N -9.601600 -29.745600 -27.241600
C -9.571000 -31.464700 -25.085300
N -9.557100 -32.373200 -24.135800
H -9.555200 -35.212800 -26.872700
H -9.544900 -34.622600 -24.523300
C -9.524400 -29.209200 -25.958800
N -9.508000 -30.081400 -24.900300
O -9.488400 -27.986100 -25.777300
H -9.408800 -29.262400 -29.179300
C -9.401000 -29.545800 -23.518500
H -9.180000 -28.613500 -23.552400
H -9.043900 -28.082000 -28.214300
H -9.037500 -34.221900 -27.971600
H -8.714700 -30.020200 -23.043400
