24
Fragment
H -14.102200 -20.037500 -26.195900
H -14.084500 -26.794400 -27.561100
H -13.881400 -24.410200 -22.599100
N -13.390900 -22.767800 -28.277800
C -13.361700 -24.029600 -28.718900
C -13.360400 -22.908300 -26.924900
H -13.358700 -24.177100 -29.289700
N -13.346900 -21.892600 -25.984000
N -13.322600 -24.940900 -27.755900
C -13.313100 -24.233100 -26.565800
C -13.284800 -26.408800 -27.927400
C -13.284400 -22.200400 -24.654200
O -13.278700 -21.340100 -23.787300
C -13.268900 -20.471900 -26.390100
C -13.242700 -24.667600 -25.202100
N -13.242100 -23.564300 -24.312600
H -13.227000 -26.620000 -28.861600
O -13.187300 -25.815700 -24.787100
H -13.152000 -23.042100 -22.368100
C -13.140000 -23.863600 -22.865400
H -13.091100 -20.418100 -27.331600
H -12.561700 -20.039200 -25.906100
H -12.519600 -26.764200 -27.469900
H -12.319000 -24.329700 -22.693200
16
Fragment
H -13.731300 -20.706500 -33.864800
H -13.697000 -18.677800 -35.159400
C -13.694100 -19.726200 -33.423500
C -13.684800 -18.597300 -34.250200
O -13.656900 -21.963800 -31.630300
C -13.628600 -20.829200 -31.190300
C -13.626300 -19.607600 -32.050900
C -13.605900 -17.331600 -33.669100
H -13.605500 -15.374800 -34.159000
O -13.603900 -16.251500 -34.500300
O -13.576600 -20.566500 -29.881800
H -13.567900 -21.326900 -29.319100
C -13.539100 -18.320300 -31.481600
C -13.535300 -17.193400 -32.289300
H -13.474300 -18.174800 -30.657800
H -13.374500 -16.234900 -31.864100
40
Fragment
H -14.102200 -20.037500 -26.195900
H -14.084500 -26.794400 -27.561100
H -13.881400 -24.410200 -22.599100
N -13.390900 -22.767800 -28.277800
C -13.361700 -24.029600 -28.718900
C -13.360400 -22.908300 -26.924900
H -13.358700 -24.177100 -29.289700
N -13.346900 -21.892600 -25.984000
N -13.322600 -24.940900 -27.755900
C -13.313100 -24.233100 -26.565800
C -13.284800 -26.408800 -27.927400
C -13.284400 -22.200400 -24.654200
O -13.278700 -21.340100 -23.787300
C -13.268900 -20.471900 -26.390100
C -13.242700 -24.667600 -25.202100
N -13.242100 -23.564300 -24.312600
H -13.227000 -26.620000 -28.861600
O -13.187300 -25.815700 -24.787100
H -13.152000 -23.042100 -22.368100
C -13.140000 -23.863600 -22.865400
H -13.091100 -20.418100 -27.331600
H -12.561700 -20.039200 -25.906100
H -12.519600 -26.764200 -27.469900
H -12.319000 -24.329700 -22.693200
H -13.731300 -20.706500 -33.864800
H -13.697000 -18.677800 -35.159400
C -13.694100 -19.726200 -33.423500
C -13.684800 -18.597300 -34.250200
O -13.656900 -21.963800 -31.630300
C -13.628600 -20.829200 -31.190300
C -13.626300 -19.607600 -32.050900
C -13.605900 -17.331600 -33.669100
H -13.605500 -15.374800 -34.159000
O -13.603900 -16.251500 -34.500300
O -13.576600 -20.566500 -29.881800
H -13.567900 -21.326900 -29.319100
C -13.539100 -18.320300 -31.481600
C -13.535300 -17.193400 -32.289300
H -13.474300 -18.174800 -30.657800
H -13.374500 -16.234900 -31.864100
