17
Fragment
O -16.461700 -9.052300 -26.567500
H -16.026700 -9.583400 -24.837200
H -15.884700 -8.696400 -28.718700
O -15.425800 -9.813100 -24.329800
C -15.382000 -9.184500 -27.109900
O -15.180400 -8.932900 -28.371500
C -14.269000 -9.899100 -25.014400
C -14.177600 -9.622200 -26.378300
H -13.177200 -10.476500 -23.424300
C -13.125600 -10.278800 -24.331700
C -12.953600 -9.731300 -27.026400
H -12.897400 -9.562200 -27.939500
C -11.925800 -10.366100 -24.975500
C -11.831100 -10.084500 -26.333600
H -11.164400 -10.616300 -24.501600
O -10.652700 -10.152000 -27.010700
H -10.054100 -10.374300 -26.496400
24
Fragment
H -18.104600 -5.519200 -25.103700
H -18.063000 -6.157300 -26.535300
H -17.693200 -4.646500 -26.339400
C -17.647700 -5.521900 -25.947700
O -16.557300 -6.312800 -23.546500
N -16.252600 -5.890100 -25.743400
C -15.825800 -6.272600 -24.500200
N -15.646100 -5.476200 -28.043700
C -15.376800 -5.868900 -26.783000
H -14.737500 -7.435700 -22.587500
C -14.477900 -5.594900 -28.669700
N -14.473000 -6.606000 -24.383300
H -14.352200 -5.380800 -29.565600
C -14.075100 -6.231700 -26.643300
C -14.022600 -6.989800 -23.049900
H -13.767100 -6.205100 -22.560200
C -13.527000 -6.614800 -25.404700
N -13.508600 -6.051000 -27.882600
H -13.271700 -7.581600 -23.123300
O -12.354500 -6.909400 -25.197400
C -12.128300 -6.301900 -28.260700
H -12.030000 -6.186000 -29.209800
H -11.889200 -7.200500 -28.021600
H -11.553300 -5.684800 -27.802700
41
Fragment
O -16.461700 -9.052300 -26.567500
H -16.026700 -9.583400 -24.837200
H -15.884700 -8.696400 -28.718700
O -15.425800 -9.813100 -24.329800
C -15.382000 -9.184500 -27.109900
O -15.180400 -8.932900 -28.371500
C -14.269000 -9.899100 -25.014400
C -14.177600 -9.622200 -26.378300
H -13.177200 -10.476500 -23.424300
C -13.125600 -10.278800 -24.331700
C -12.953600 -9.731300 -27.026400
H -12.897400 -9.562200 -27.939500
C -11.925800 -10.366100 -24.975500
C -11.831100 -10.084500 -26.333600
H -11.164400 -10.616300 -24.501600
O -10.652700 -10.152000 -27.010700
H -10.054100 -10.374300 -26.496400
H -18.104600 -5.519200 -25.103700
H -18.063000 -6.157300 -26.535300
H -17.693200 -4.646500 -26.339400
C -17.647700 -5.521900 -25.947700
O -16.557300 -6.312800 -23.546500
N -16.252600 -5.890100 -25.743400
C -15.825800 -6.272600 -24.500200
N -15.646100 -5.476200 -28.043700
C -15.376800 -5.868900 -26.783000
H -14.737500 -7.435700 -22.587500
C -14.477900 -5.594900 -28.669700
N -14.473000 -6.606000 -24.383300
H -14.352200 -5.380800 -29.565600
C -14.075100 -6.231700 -26.643300
C -14.022600 -6.989800 -23.049900
H -13.767100 -6.205100 -22.560200
C -13.527000 -6.614800 -25.404700
N -13.508600 -6.051000 -27.882600
H -13.271700 -7.581600 -23.123300
O -12.354500 -6.909400 -25.197400
C -12.128300 -6.301900 -28.260700
H -12.030000 -6.186000 -29.209800
H -11.889200 -7.200500 -28.021600
H -11.553300 -5.684800 -27.802700
