18
Fragment
H -12.769400 -11.963700 -20.828600
H -12.769400 -10.246600 -20.828600
O -12.547900 -11.105200 -18.171300
C -12.133800 -11.105200 -20.963600
H -11.702600 -11.105200 -21.949900
C -11.381400 -11.105200 -18.574800
C -11.022600 -11.105200 -19.967700
H -10.571400 -11.105200 -16.681300
N -10.331400 -11.105200 -17.684000
C -9.704200 -11.105200 -20.292500
H -9.377300 -11.105200 -21.325300
C -8.995600 -11.105200 -18.004300
N -8.702700 -11.105200 -19.350900
O -8.133800 -11.105200 -17.128500
C -7.292200 -11.105200 -19.754100
H -7.260900 -11.105200 -20.830700
H -6.795600 -11.995500 -19.407200
H -6.795600 -10.214800 -19.407200
18
Fragment
H -6.638500 -11.105200 -15.895600
H -6.435600 -11.105200 -11.406500
N -6.121000 -11.105200 -13.427900
C -5.663400 -11.105200 -12.165800
N -5.647700 -11.105200 -15.700000
C -5.219400 -11.105200 -14.437300
H -4.978500 -11.105200 -16.456300
N -4.410500 -11.105200 -11.712000
C -3.849400 -11.105200 -14.090400
C -3.541000 -11.105200 -12.734100
N -2.690600 -11.105200 -14.848400
N -2.169600 -11.105200 -12.663900
C -1.717900 -11.105200 -13.957200
H -1.588000 -11.994800 -10.881500
H -1.588000 -10.215500 -10.881500
C -1.374500 -11.105200 -11.450300
H -0.663100 -11.105200 -14.202500
H -0.343800 -11.105200 -11.760700
36
Fragment
H -12.769400 -11.963700 -20.828600
H -12.769400 -10.246600 -20.828600
O -12.547900 -11.105200 -18.171300
C -12.133800 -11.105200 -20.963600
H -11.702600 -11.105200 -21.949900
C -11.381400 -11.105200 -18.574800
C -11.022600 -11.105200 -19.967700
H -10.571400 -11.105200 -16.681300
N -10.331400 -11.105200 -17.684000
C -9.704200 -11.105200 -20.292500
H -9.377300 -11.105200 -21.325300
C -8.995600 -11.105200 -18.004300
N -8.702700 -11.105200 -19.350900
O -8.133800 -11.105200 -17.128500
C -7.292200 -11.105200 -19.754100
H -7.260900 -11.105200 -20.830700
H -6.795600 -11.995500 -19.407200
H -6.795600 -10.214800 -19.407200
H -6.638500 -11.105200 -15.895600
H -6.435600 -11.105200 -11.406500
N -6.121000 -11.105200 -13.427900
C -5.663400 -11.105200 -12.165800
N -5.647700 -11.105200 -15.700000
C -5.219400 -11.105200 -14.437300
H -4.978500 -11.105200 -16.456300
N -4.410500 -11.105200 -11.712000
C -3.849400 -11.105200 -14.090400
C -3.541000 -11.105200 -12.734100
N -2.690600 -11.105200 -14.848400
N -2.169600 -11.105200 -12.663900
C -1.717900 -11.105200 -13.957200
H -1.588000 -11.994800 -10.881500
H -1.588000 -10.215500 -10.881500
C -1.374500 -11.105200 -11.450300
H -0.663100 -11.105200 -14.202500
H -0.343800 -11.105200 -11.760700
