18
Fragment
H -12.769400 -11.963700 -20.828600
H -12.769400 -10.246600 -20.828600
O -12.547900 -11.105200 -18.171300
C -12.133800 -11.105200 -20.963600
H -11.702600 -11.105200 -21.949900
C -11.381400 -11.105200 -18.574800
C -11.022600 -11.105200 -19.967700
H -10.571400 -11.105200 -16.681300
N -10.331400 -11.105200 -17.684000
C -9.704200 -11.105200 -20.292500
H -9.377300 -11.105200 -21.325300
C -8.995600 -11.105200 -18.004300
N -8.702700 -11.105200 -19.350900
O -8.133800 -11.105200 -17.128500
C -7.292200 -11.105200 -19.754100
H -7.260900 -11.105200 -20.830700
H -6.795600 -11.995500 -19.407200
H -6.795600 -10.214800 -19.407200
18
Fragment
H -11.198400 -11.105200 -28.191100
H -10.995500 -11.105200 -23.702000
N -10.681000 -11.105200 -25.723400
C -10.223300 -11.105200 -24.461300
N -10.207600 -11.105200 -27.995500
C -9.779400 -11.105200 -26.732800
H -9.538500 -11.105200 -28.751800
N -8.970500 -11.105200 -24.007500
C -8.409300 -11.105200 -26.385900
C -8.101000 -11.105200 -25.029600
N -7.250500 -11.105200 -27.143900
N -6.729500 -11.105200 -24.959400
C -6.277900 -11.105200 -26.252700
H -6.148000 -11.994800 -23.177000
H -6.148000 -10.215500 -23.177000
C -5.934500 -11.105200 -23.745800
H -5.223100 -11.105200 -26.498000
H -4.903800 -11.105200 -24.056200
36
Fragment
H -12.769400 -11.963700 -20.828600
H -12.769400 -10.246600 -20.828600
O -12.547900 -11.105200 -18.171300
C -12.133800 -11.105200 -20.963600
H -11.702600 -11.105200 -21.949900
C -11.381400 -11.105200 -18.574800
C -11.022600 -11.105200 -19.967700
H -10.571400 -11.105200 -16.681300
N -10.331400 -11.105200 -17.684000
C -9.704200 -11.105200 -20.292500
H -9.377300 -11.105200 -21.325300
C -8.995600 -11.105200 -18.004300
N -8.702700 -11.105200 -19.350900
O -8.133800 -11.105200 -17.128500
C -7.292200 -11.105200 -19.754100
H -7.260900 -11.105200 -20.830700
H -6.795600 -11.995500 -19.407200
H -6.795600 -10.214800 -19.407200
H -11.198400 -11.105200 -28.191100
H -10.995500 -11.105200 -23.702000
N -10.681000 -11.105200 -25.723400
C -10.223300 -11.105200 -24.461300
N -10.207600 -11.105200 -27.995500
C -9.779400 -11.105200 -26.732800
H -9.538500 -11.105200 -28.751800
N -8.970500 -11.105200 -24.007500
C -8.409300 -11.105200 -26.385900
C -8.101000 -11.105200 -25.029600
N -7.250500 -11.105200 -27.143900
N -6.729500 -11.105200 -24.959400
C -6.277900 -11.105200 -26.252700
H -6.148000 -11.994800 -23.177000
H -6.148000 -10.215500 -23.177000
C -5.934500 -11.105200 -23.745800
H -5.223100 -11.105200 -26.498000
H -4.903800 -11.105200 -24.056200
