12
Fragment
C -10.578100 -8.190000 -17.254900
O -9.683500 -8.190000 -19.885500
N -9.180300 -8.190000 -17.656700
C -8.866900 -8.190000 -18.997200
H -8.480000 -8.190000 -15.752100
C -8.181800 -8.190000 -16.699500
N -7.518500 -8.190000 -19.282200
H -7.150300 -8.190000 -20.175500
C -6.882900 -8.190000 -16.999300
C -6.490400 -8.190000 -18.365600
C -5.784900 -8.190000 -15.962300
O -5.315900 -8.190000 -18.756400
12
Fragment
O -16.749900 -11.466000 -18.105100
C -16.280900 -11.466000 -20.899200
C -15.575400 -11.466000 -18.495900
C -15.182900 -11.466000 -19.862200
H -14.915500 -11.466000 -16.686000
N -14.547300 -11.466000 -17.579200
C -13.884000 -11.466000 -20.162000
H -13.585800 -11.466000 -21.109400
C -13.198900 -11.466000 -17.864300
N -12.885500 -11.466000 -19.204800
O -12.382200 -11.466000 -16.975900
C -11.487700 -11.466000 -19.606600
24
Fragment
C -10.578100 -8.190000 -17.254900
O -9.683500 -8.190000 -19.885500
N -9.180300 -8.190000 -17.656700
C -8.866900 -8.190000 -18.997200
H -8.480000 -8.190000 -15.752100
C -8.181800 -8.190000 -16.699500
N -7.518500 -8.190000 -19.282200
H -7.150300 -8.190000 -20.175500
C -6.882900 -8.190000 -16.999300
C -6.490400 -8.190000 -18.365600
C -5.784900 -8.190000 -15.962300
O -5.315900 -8.190000 -18.756400
O -16.749900 -11.466000 -18.105100
C -16.280900 -11.466000 -20.899200
C -15.575400 -11.466000 -18.495900
C -15.182900 -11.466000 -19.862200
H -14.915500 -11.466000 -16.686000
N -14.547300 -11.466000 -17.579200
C -13.884000 -11.466000 -20.162000
H -13.585800 -11.466000 -21.109400
C -13.198900 -11.466000 -17.864300
N -12.885500 -11.466000 -19.204800
O -12.382200 -11.466000 -16.975900
C -11.487700 -11.466000 -19.606600
