12
Fragment
C -10.578100 -8.190000 -17.254900
O -9.683500 -8.190000 -19.885500
N -9.180300 -8.190000 -17.656700
C -8.866900 -8.190000 -18.997200
H -8.480000 -8.190000 -15.752100
C -8.181800 -8.190000 -16.699500
N -7.518500 -8.190000 -19.282200
H -7.150300 -8.190000 -20.175500
C -6.882900 -8.190000 -16.999300
C -6.490400 -8.190000 -18.365600
C -5.784900 -8.190000 -15.962300
O -5.315900 -8.190000 -18.756400
18
Fragment
H -12.817700 -8.190000 -13.024400
H -12.434600 -8.190000 -10.530100
C -11.840700 -8.190000 -13.256600
C -11.537800 -8.190000 -10.741400
H -11.474600 -8.995900 -13.786200
H -11.474600 -7.384100 -13.786200
N -11.072900 -8.190000 -12.023000
N -10.566700 -8.190000 -9.842000
C -9.686700 -8.190000 -11.933300
C -9.405700 -8.190000 -10.589100
N -8.806900 -8.190000 -12.953100
H -8.164300 -8.190000 -8.011200
C -8.048700 -8.190000 -10.221700
N -7.640000 -8.190000 -8.951200
C -7.588000 -8.190000 -12.488700
N -7.121300 -8.190000 -11.209600
H -6.799000 -8.190000 -8.736200
H -6.743800 -8.190000 -13.036700
30
Fragment
C -10.578100 -8.190000 -17.254900
O -9.683500 -8.190000 -19.885500
N -9.180300 -8.190000 -17.656700
C -8.866900 -8.190000 -18.997200
H -8.480000 -8.190000 -15.752100
C -8.181800 -8.190000 -16.699500
N -7.518500 -8.190000 -19.282200
H -7.150300 -8.190000 -20.175500
C -6.882900 -8.190000 -16.999300
C -6.490400 -8.190000 -18.365600
C -5.784900 -8.190000 -15.962300
O -5.315900 -8.190000 -18.756400
H -12.817700 -8.190000 -13.024400
H -12.434600 -8.190000 -10.530100
C -11.840700 -8.190000 -13.256600
C -11.537800 -8.190000 -10.741400
H -11.474600 -8.995900 -13.786200
H -11.474600 -7.384100 -13.786200
N -11.072900 -8.190000 -12.023000
N -10.566700 -8.190000 -9.842000
C -9.686700 -8.190000 -11.933300
C -9.405700 -8.190000 -10.589100
N -8.806900 -8.190000 -12.953100
H -8.164300 -8.190000 -8.011200
C -8.048700 -8.190000 -10.221700
N -7.640000 -8.190000 -8.951200
C -7.588000 -8.190000 -12.488700
N -7.121300 -8.190000 -11.209600
H -6.799000 -8.190000 -8.736200
H -6.743800 -8.190000 -13.036700
