12
Fragment
C -10.578100 -8.190000 -17.254900
O -9.683500 -8.190000 -19.885500
N -9.180300 -8.190000 -17.656700
C -8.866900 -8.190000 -18.997200
H -8.480000 -8.190000 -15.752100
C -8.181800 -8.190000 -16.699500
N -7.518500 -8.190000 -19.282200
H -7.150300 -8.190000 -20.175500
C -6.882900 -8.190000 -16.999300
C -6.490400 -8.190000 -18.365600
C -5.784900 -8.190000 -15.962300
O -5.315900 -8.190000 -18.756400
18
Fragment
H -9.101000 -8.190000 -25.311600
H -8.717800 -8.190000 -22.817300
C -8.124000 -8.190000 -25.543800
C -7.821000 -8.190000 -23.028600
H -7.757800 -8.995900 -26.073400
H -7.757800 -7.384100 -26.073400
N -7.356100 -8.190000 -24.310200
N -6.850000 -8.190000 -22.129200
C -5.969900 -8.190000 -24.220500
C -5.689000 -8.190000 -22.876200
N -5.090100 -8.190000 -25.240300
H -4.447600 -8.190000 -20.298400
C -4.332000 -8.190000 -22.508900
N -3.923200 -8.190000 -21.238400
C -3.871300 -8.190000 -24.775800
N -3.404500 -8.190000 -23.496700
H -3.082300 -8.190000 -21.023300
H -3.027100 -8.190000 -25.323800
30
Fragment
C -10.578100 -8.190000 -17.254900
O -9.683500 -8.190000 -19.885500
N -9.180300 -8.190000 -17.656700
C -8.866900 -8.190000 -18.997200
H -8.480000 -8.190000 -15.752100
C -8.181800 -8.190000 -16.699500
N -7.518500 -8.190000 -19.282200
H -7.150300 -8.190000 -20.175500
C -6.882900 -8.190000 -16.999300
C -6.490400 -8.190000 -18.365600
C -5.784900 -8.190000 -15.962300
O -5.315900 -8.190000 -18.756400
H -9.101000 -8.190000 -25.311600
H -8.717800 -8.190000 -22.817300
C -8.124000 -8.190000 -25.543800
C -7.821000 -8.190000 -23.028600
H -7.757800 -8.995900 -26.073400
H -7.757800 -7.384100 -26.073400
N -7.356100 -8.190000 -24.310200
N -6.850000 -8.190000 -22.129200
C -5.969900 -8.190000 -24.220500
C -5.689000 -8.190000 -22.876200
N -5.090100 -8.190000 -25.240300
H -4.447600 -8.190000 -20.298400
C -4.332000 -8.190000 -22.508900
N -3.923200 -8.190000 -21.238400
C -3.871300 -8.190000 -24.775800
N -3.404500 -8.190000 -23.496700
H -3.082300 -8.190000 -21.023300
H -3.027100 -8.190000 -25.323800
