12
Fragment
C -10.578100 -8.190000 -17.254900
O -9.683500 -8.190000 -19.885500
N -9.180300 -8.190000 -17.656700
C -8.866900 -8.190000 -18.997200
H -8.480000 -8.190000 -15.752100
C -8.181800 -8.190000 -16.699500
N -7.518500 -8.190000 -19.282200
H -7.150300 -8.190000 -20.175500
C -6.882900 -8.190000 -16.999300
C -6.490400 -8.190000 -18.365600
C -5.784900 -8.190000 -15.962300
O -5.315900 -8.190000 -18.756400
18
Fragment
H -4.513700 -8.190000 -13.024400
H -4.130600 -8.190000 -10.530100
C -3.536700 -8.190000 -13.256600
C -3.233800 -8.190000 -10.741400
H -3.170600 -8.995900 -13.786200
H -3.170600 -7.384100 -13.786200
N -2.768900 -8.190000 -12.023000
N -2.262700 -8.190000 -9.842000
C -1.382700 -8.190000 -11.933300
C -1.101700 -8.190000 -10.589100
N -0.502900 -8.190000 -12.953100
H 0.139700 -8.190000 -8.011200
C 0.255300 -8.190000 -10.221700
N 0.664000 -8.190000 -8.951200
C 0.716000 -8.190000 -12.488700
N 1.182700 -8.190000 -11.209600
H 1.505000 -8.190000 -8.736200
H 1.560200 -8.190000 -13.036700
30
Fragment
C -10.578100 -8.190000 -17.254900
O -9.683500 -8.190000 -19.885500
N -9.180300 -8.190000 -17.656700
C -8.866900 -8.190000 -18.997200
H -8.480000 -8.190000 -15.752100
C -8.181800 -8.190000 -16.699500
N -7.518500 -8.190000 -19.282200
H -7.150300 -8.190000 -20.175500
C -6.882900 -8.190000 -16.999300
C -6.490400 -8.190000 -18.365600
C -5.784900 -8.190000 -15.962300
O -5.315900 -8.190000 -18.756400
H -4.513700 -8.190000 -13.024400
H -4.130600 -8.190000 -10.530100
C -3.536700 -8.190000 -13.256600
C -3.233800 -8.190000 -10.741400
H -3.170600 -8.995900 -13.786200
H -3.170600 -7.384100 -13.786200
N -2.768900 -8.190000 -12.023000
N -2.262700 -8.190000 -9.842000
C -1.382700 -8.190000 -11.933300
C -1.101700 -8.190000 -10.589100
N -0.502900 -8.190000 -12.953100
H 0.139700 -8.190000 -8.011200
C 0.255300 -8.190000 -10.221700
N 0.664000 -8.190000 -8.951200
C 0.716000 -8.190000 -12.488700
N 1.182700 -8.190000 -11.209600
H 1.505000 -8.190000 -8.736200
H 1.560200 -8.190000 -13.036700
