18
Fragment
H -12.769400 -11.963700 -20.828600
H -12.769400 -10.246600 -20.828600
O -12.547900 -11.105200 -18.171300
C -12.133800 -11.105200 -20.963600
H -11.702600 -11.105200 -21.949900
C -11.381400 -11.105200 -18.574800
C -11.022600 -11.105200 -19.967700
H -10.571400 -11.105200 -16.681300
N -10.331400 -11.105200 -17.684000
C -9.704200 -11.105200 -20.292500
H -9.377300 -11.105200 -21.325300
C -8.995600 -11.105200 -18.004300
N -8.702700 -11.105200 -19.350900
O -8.133800 -11.105200 -17.128500
C -7.292200 -11.105200 -19.754100
H -7.260900 -11.105200 -20.830700
H -6.795600 -11.995500 -19.407200
H -6.795600 -10.214800 -19.407200
18
Fragment
H -13.336100 -14.278000 -25.125900
H -13.016700 -14.278000 -22.684000
C -12.305400 -14.278000 -25.436200
H -12.091900 -15.167700 -26.005000
H -12.091900 -13.388400 -26.005000
C -11.962000 -14.278000 -22.929300
N -11.510300 -14.278000 -24.222600
N -10.989300 -14.278000 -22.038100
C -10.138900 -14.278000 -24.152400
C -9.830500 -14.278000 -22.796100
N -9.269400 -14.278000 -25.174600
H -8.701400 -14.278000 -20.430200
C -8.460500 -14.278000 -22.449300
N -8.032200 -14.278000 -21.186500
C -8.016500 -14.278000 -24.720700
N -7.558900 -14.278000 -23.458600
H -7.244300 -14.278000 -25.480000
H -7.041400 -14.278000 -20.990900
36
Fragment
H -12.769400 -11.963700 -20.828600
H -12.769400 -10.246600 -20.828600
O -12.547900 -11.105200 -18.171300
C -12.133800 -11.105200 -20.963600
H -11.702600 -11.105200 -21.949900
C -11.381400 -11.105200 -18.574800
C -11.022600 -11.105200 -19.967700
H -10.571400 -11.105200 -16.681300
N -10.331400 -11.105200 -17.684000
C -9.704200 -11.105200 -20.292500
H -9.377300 -11.105200 -21.325300
C -8.995600 -11.105200 -18.004300
N -8.702700 -11.105200 -19.350900
O -8.133800 -11.105200 -17.128500
C -7.292200 -11.105200 -19.754100
H -7.260900 -11.105200 -20.830700
H -6.795600 -11.995500 -19.407200
H -6.795600 -10.214800 -19.407200
H -13.336100 -14.278000 -25.125900
H -13.016700 -14.278000 -22.684000
C -12.305400 -14.278000 -25.436200
H -12.091900 -15.167700 -26.005000
H -12.091900 -13.388400 -26.005000
C -11.962000 -14.278000 -22.929300
N -11.510300 -14.278000 -24.222600
N -10.989300 -14.278000 -22.038100
C -10.138900 -14.278000 -24.152400
C -9.830500 -14.278000 -22.796100
N -9.269400 -14.278000 -25.174600
H -8.701400 -14.278000 -20.430200
C -8.460500 -14.278000 -22.449300
N -8.032200 -14.278000 -21.186500
C -8.016500 -14.278000 -24.720700
N -7.558900 -14.278000 -23.458600
H -7.244300 -14.278000 -25.480000
H -7.041400 -14.278000 -20.990900
