23
Fragment
H -22.926100 -17.762300 -12.965200
O -22.508800 -18.398800 -10.709400
N -22.224700 -17.679100 -12.833000
C -21.777600 -17.995800 -11.612200
H -21.561000 -17.248400 -13.569000
H -20.610300 -15.905100 -15.407900
C -20.329500 -17.843300 -11.410900
H -20.322300 -17.161000 -16.005800
C -19.900700 -16.345400 -16.073700
N -19.764900 -18.116200 -10.173500
H -19.730100 -15.896600 -16.911000
N -19.527700 -17.107700 -13.622600
C -19.343000 -17.481900 -12.304200
N -18.600300 -16.363600 -15.430600
C -18.458700 -17.915800 -10.345000
N -18.434300 -16.753800 -14.197900
N -18.159100 -17.532000 -11.606300
H -17.807700 -18.075700 -9.570900
H -17.545300 -15.254800 -16.634700
C -17.406200 -15.972300 -16.152300
H -17.347300 -17.491500 -11.992200
H -17.178700 -16.629000 -16.855000
H -16.634200 -16.015000 -15.599700
23
Fragment
H -30.102000 -19.551200 -7.010200
O -29.684700 -18.914700 -4.754500
N -29.400600 -19.634400 -6.878000
C -28.953500 -19.317700 -5.657200
H -28.736900 -20.065100 -7.614000
H -27.786200 -21.408400 -9.452900
C -27.505400 -19.470200 -5.456000
H -27.498200 -20.152500 -10.050800
C -27.076600 -20.968100 -10.118700
N -26.940800 -19.197300 -4.218500
H -26.905900 -21.416900 -10.956000
N -26.703600 -20.205800 -7.667600
C -26.518900 -19.831600 -6.349200
N -25.776200 -20.949900 -9.475600
C -25.634600 -19.397700 -4.390000
N -25.610200 -20.559700 -8.242900
N -25.335000 -19.781500 -5.651300
H -24.983600 -19.237800 -3.615900
H -24.721200 -22.058700 -10.679700
C -24.582100 -21.341200 -10.197300
H -24.523200 -19.822000 -6.037200
H -24.354600 -20.684500 -10.900000
H -23.810100 -21.298500 -9.644700
46
Fragment
H -22.926100 -17.762300 -12.965200
O -22.508800 -18.398800 -10.709400
N -22.224700 -17.679100 -12.833000
C -21.777600 -17.995800 -11.612200
H -21.561000 -17.248400 -13.569000
H -20.610300 -15.905100 -15.407900
C -20.329500 -17.843300 -11.410900
H -20.322300 -17.161000 -16.005800
C -19.900700 -16.345400 -16.073700
N -19.764900 -18.116200 -10.173500
H -19.730100 -15.896600 -16.911000
N -19.527700 -17.107700 -13.622600
C -19.343000 -17.481900 -12.304200
N -18.600300 -16.363600 -15.430600
C -18.458700 -17.915800 -10.345000
N -18.434300 -16.753800 -14.197900
N -18.159100 -17.532000 -11.606300
H -17.807700 -18.075700 -9.570900
H -17.545300 -15.254800 -16.634700
C -17.406200 -15.972300 -16.152300
H -17.347300 -17.491500 -11.992200
H -17.178700 -16.629000 -16.855000
H -16.634200 -16.015000 -15.599700
H -30.102000 -19.551200 -7.010200
O -29.684700 -18.914700 -4.754500
N -29.400600 -19.634400 -6.878000
C -28.953500 -19.317700 -5.657200
H -28.736900 -20.065100 -7.614000
H -27.786200 -21.408400 -9.452900
C -27.505400 -19.470200 -5.456000
H -27.498200 -20.152500 -10.050800
C -27.076600 -20.968100 -10.118700
N -26.940800 -19.197300 -4.218500
H -26.905900 -21.416900 -10.956000
N -26.703600 -20.205800 -7.667600
C -26.518900 -19.831600 -6.349200
N -25.776200 -20.949900 -9.475600
C -25.634600 -19.397700 -4.390000
N -25.610200 -20.559700 -8.242900
N -25.335000 -19.781500 -5.651300
H -24.983600 -19.237800 -3.615900
H -24.721200 -22.058700 -10.679700
C -24.582100 -21.341200 -10.197300
H -24.523200 -19.822000 -6.037200
H -24.354600 -20.684500 -10.900000
H -23.810100 -21.298500 -9.644700
