23
Fragment
H -22.926100 -17.762300 -12.965200
O -22.508800 -18.398800 -10.709400
N -22.224700 -17.679100 -12.833000
C -21.777600 -17.995800 -11.612200
H -21.561000 -17.248400 -13.569000
H -20.610300 -15.905100 -15.407900
C -20.329500 -17.843300 -11.410900
H -20.322300 -17.161000 -16.005800
C -19.900700 -16.345400 -16.073700
N -19.764900 -18.116200 -10.173500
H -19.730100 -15.896600 -16.911000
N -19.527700 -17.107700 -13.622600
C -19.343000 -17.481900 -12.304200
N -18.600300 -16.363600 -15.430600
C -18.458700 -17.915800 -10.345000
N -18.434300 -16.753800 -14.197900
N -18.159100 -17.532000 -11.606300
H -17.807700 -18.075700 -9.570900
H -17.545300 -15.254800 -16.634700
C -17.406200 -15.972300 -16.152300
H -17.347300 -17.491500 -11.992200
H -17.178700 -16.629000 -16.855000
H -16.634200 -16.015000 -15.599700
23
Fragment
H -16.647700 -15.866800 -20.426800
H -16.228900 -16.812400 -19.142900
C -15.970200 -16.142900 -19.803900
H -15.749600 -15.527700 -19.213200
H -15.390900 -18.200500 -26.365100
N -15.147700 -17.667400 -24.324900
N -14.899000 -16.919000 -21.738100
C -14.794300 -18.046900 -25.548100
N -14.760300 -16.560800 -20.486300
C -13.959500 -17.618400 -23.631800
N -13.792100 -17.262300 -22.295500
H -13.678900 -16.501100 -18.924900
C -13.496300 -16.576800 -19.792000
N -13.476500 -18.236700 -25.681500
H -13.050800 -18.549100 -26.447300
H -12.933900 -17.226000 -20.090900
C -12.917300 -17.962700 -24.451200
H -12.879200 -15.791100 -20.195700
H -11.514900 -17.500000 -22.440800
C -11.458100 -18.065100 -24.246300
N -11.029400 -17.808100 -23.020800
O -10.716300 -18.395600 -25.176500
H -10.154300 -17.857200 -22.815900
46
Fragment
H -22.926100 -17.762300 -12.965200
O -22.508800 -18.398800 -10.709400
N -22.224700 -17.679100 -12.833000
C -21.777600 -17.995800 -11.612200
H -21.561000 -17.248400 -13.569000
H -20.610300 -15.905100 -15.407900
C -20.329500 -17.843300 -11.410900
H -20.322300 -17.161000 -16.005800
C -19.900700 -16.345400 -16.073700
N -19.764900 -18.116200 -10.173500
H -19.730100 -15.896600 -16.911000
N -19.527700 -17.107700 -13.622600
C -19.343000 -17.481900 -12.304200
N -18.600300 -16.363600 -15.430600
C -18.458700 -17.915800 -10.345000
N -18.434300 -16.753800 -14.197900
N -18.159100 -17.532000 -11.606300
H -17.807700 -18.075700 -9.570900
H -17.545300 -15.254800 -16.634700
C -17.406200 -15.972300 -16.152300
H -17.347300 -17.491500 -11.992200
H -17.178700 -16.629000 -16.855000
H -16.634200 -16.015000 -15.599700
H -16.647700 -15.866800 -20.426800
H -16.228900 -16.812400 -19.142900
C -15.970200 -16.142900 -19.803900
H -15.749600 -15.527700 -19.213200
H -15.390900 -18.200500 -26.365100
N -15.147700 -17.667400 -24.324900
N -14.899000 -16.919000 -21.738100
C -14.794300 -18.046900 -25.548100
N -14.760300 -16.560800 -20.486300
C -13.959500 -17.618400 -23.631800
N -13.792100 -17.262300 -22.295500
H -13.678900 -16.501100 -18.924900
C -13.496300 -16.576800 -19.792000
N -13.476500 -18.236700 -25.681500
H -13.050800 -18.549100 -26.447300
H -12.933900 -17.226000 -20.090900
C -12.917300 -17.962700 -24.451200
H -12.879200 -15.791100 -20.195700
H -11.514900 -17.500000 -22.440800
C -11.458100 -18.065100 -24.246300
N -11.029400 -17.808100 -23.020800
O -10.716300 -18.395600 -25.176500
H -10.154300 -17.857200 -22.815900
