23
Fragment
H -22.926100 -17.762300 -12.965200
O -22.508800 -18.398800 -10.709400
N -22.224700 -17.679100 -12.833000
C -21.777600 -17.995800 -11.612200
H -21.561000 -17.248400 -13.569000
H -20.610300 -15.905100 -15.407900
C -20.329500 -17.843300 -11.410900
H -20.322300 -17.161000 -16.005800
C -19.900700 -16.345400 -16.073700
N -19.764900 -18.116200 -10.173500
H -19.730100 -15.896600 -16.911000
N -19.527700 -17.107700 -13.622600
C -19.343000 -17.481900 -12.304200
N -18.600300 -16.363600 -15.430600
C -18.458700 -17.915800 -10.345000
N -18.434300 -16.753800 -14.197900
N -18.159100 -17.532000 -11.606300
H -17.807700 -18.075700 -9.570900
H -17.545300 -15.254800 -16.634700
C -17.406200 -15.972300 -16.152300
H -17.347300 -17.491500 -11.992200
H -17.178700 -16.629000 -16.855000
H -16.634200 -16.015000 -15.599700
23
Fragment
H -24.872200 -15.968000 -8.220300
H -24.327700 -15.354000 -6.965000
H -24.159100 -14.491500 -11.827800
C -24.100200 -16.010700 -7.667600
H -23.961100 -16.728200 -7.185300
H -23.698800 -13.907300 -14.249100
N -23.347300 -14.451000 -12.213700
N -23.072100 -15.229200 -9.622100
C -23.047700 -14.067200 -13.474900
N -22.906100 -15.619400 -8.389400
C -22.163400 -14.501100 -11.515800
N -21.978700 -14.875300 -10.197300
H -21.776400 -16.086400 -6.909000
N -21.741500 -13.866800 -13.646400
C -21.605700 -15.637600 -7.746200
H -21.184100 -14.822000 -7.814100
C -21.176900 -14.139700 -12.409000
H -20.896100 -16.077900 -8.412000
H -19.945400 -14.734600 -10.250900
C -19.728800 -13.987200 -12.207700
N -19.281700 -14.303900 -10.986900
O -18.997600 -13.584200 -13.110500
H -18.580300 -14.220700 -10.854700
46
Fragment
H -22.926100 -17.762300 -12.965200
O -22.508800 -18.398800 -10.709400
N -22.224700 -17.679100 -12.833000
C -21.777600 -17.995800 -11.612200
H -21.561000 -17.248400 -13.569000
H -20.610300 -15.905100 -15.407900
C -20.329500 -17.843300 -11.410900
H -20.322300 -17.161000 -16.005800
C -19.900700 -16.345400 -16.073700
N -19.764900 -18.116200 -10.173500
H -19.730100 -15.896600 -16.911000
N -19.527700 -17.107700 -13.622600
C -19.343000 -17.481900 -12.304200
N -18.600300 -16.363600 -15.430600
C -18.458700 -17.915800 -10.345000
N -18.434300 -16.753800 -14.197900
N -18.159100 -17.532000 -11.606300
H -17.807700 -18.075700 -9.570900
H -17.545300 -15.254800 -16.634700
C -17.406200 -15.972300 -16.152300
H -17.347300 -17.491500 -11.992200
H -17.178700 -16.629000 -16.855000
H -16.634200 -16.015000 -15.599700
H -24.872200 -15.968000 -8.220300
H -24.327700 -15.354000 -6.965000
H -24.159100 -14.491500 -11.827800
C -24.100200 -16.010700 -7.667600
H -23.961100 -16.728200 -7.185300
H -23.698800 -13.907300 -14.249100
N -23.347300 -14.451000 -12.213700
N -23.072100 -15.229200 -9.622100
C -23.047700 -14.067200 -13.474900
N -22.906100 -15.619400 -8.389400
C -22.163400 -14.501100 -11.515800
N -21.978700 -14.875300 -10.197300
H -21.776400 -16.086400 -6.909000
N -21.741500 -13.866800 -13.646400
C -21.605700 -15.637600 -7.746200
H -21.184100 -14.822000 -7.814100
C -21.176900 -14.139700 -12.409000
H -20.896100 -16.077900 -8.412000
H -19.945400 -14.734600 -10.250900
C -19.728800 -13.987200 -12.207700
N -19.281700 -14.303900 -10.986900
O -18.997600 -13.584200 -13.110500
H -18.580300 -14.220700 -10.854700
