23
Fragment
H -22.926100 -17.762300 -12.965200
O -22.508800 -18.398800 -10.709400
N -22.224700 -17.679100 -12.833000
C -21.777600 -17.995800 -11.612200
H -21.561000 -17.248400 -13.569000
H -20.610300 -15.905100 -15.407900
C -20.329500 -17.843300 -11.410900
H -20.322300 -17.161000 -16.005800
C -19.900700 -16.345400 -16.073700
N -19.764900 -18.116200 -10.173500
H -19.730100 -15.896600 -16.911000
N -19.527700 -17.107700 -13.622600
C -19.343000 -17.481900 -12.304200
N -18.600300 -16.363600 -15.430600
C -18.458700 -17.915800 -10.345000
N -18.434300 -16.753800 -14.197900
N -18.159100 -17.532000 -11.606300
H -17.807700 -18.075700 -9.570900
H -17.545300 -15.254800 -16.634700
C -17.406200 -15.972300 -16.152300
H -17.347300 -17.491500 -11.992200
H -17.178700 -16.629000 -16.855000
H -16.634200 -16.015000 -15.599700
23
Fragment
H -23.866400 -12.526700 -18.869000
O -23.304400 -13.065100 -16.508400
N -22.991300 -12.477600 -18.664100
C -22.562600 -12.734600 -17.438600
H -22.505800 -12.169500 -19.244100
H -21.141500 -10.460600 -21.489200
C -21.103400 -12.632200 -17.233700
H -21.086900 -11.895500 -21.594000
H -20.970000 -13.218600 -15.237600
N -20.544200 -12.906200 -16.003400
C -20.524400 -11.246300 -21.892900
H -20.341800 -11.170600 -22.760000
N -20.228700 -11.931800 -19.389400
C -20.061200 -12.287900 -18.053100
N -19.260500 -11.230300 -21.198600
C -19.226400 -12.716400 -16.136800
N -19.121700 -11.588500 -19.946800
N -18.873000 -12.336900 -17.360000
H -18.629800 -12.870000 -15.319800
H -18.271100 -10.197200 -22.471700
C -18.050500 -10.812400 -21.881000
H -17.791800 -11.481900 -22.542000
H -17.373100 -10.536300 -21.258100
46
Fragment
H -22.926100 -17.762300 -12.965200
O -22.508800 -18.398800 -10.709400
N -22.224700 -17.679100 -12.833000
C -21.777600 -17.995800 -11.612200
H -21.561000 -17.248400 -13.569000
H -20.610300 -15.905100 -15.407900
C -20.329500 -17.843300 -11.410900
H -20.322300 -17.161000 -16.005800
C -19.900700 -16.345400 -16.073700
N -19.764900 -18.116200 -10.173500
H -19.730100 -15.896600 -16.911000
N -19.527700 -17.107700 -13.622600
C -19.343000 -17.481900 -12.304200
N -18.600300 -16.363600 -15.430600
C -18.458700 -17.915800 -10.345000
N -18.434300 -16.753800 -14.197900
N -18.159100 -17.532000 -11.606300
H -17.807700 -18.075700 -9.570900
H -17.545300 -15.254800 -16.634700
C -17.406200 -15.972300 -16.152300
H -17.347300 -17.491500 -11.992200
H -17.178700 -16.629000 -16.855000
H -16.634200 -16.015000 -15.599700
H -23.866400 -12.526700 -18.869000
O -23.304400 -13.065100 -16.508400
N -22.991300 -12.477600 -18.664100
C -22.562600 -12.734600 -17.438600
H -22.505800 -12.169500 -19.244100
H -21.141500 -10.460600 -21.489200
C -21.103400 -12.632200 -17.233700
H -21.086900 -11.895500 -21.594000
H -20.970000 -13.218600 -15.237600
N -20.544200 -12.906200 -16.003400
C -20.524400 -11.246300 -21.892900
H -20.341800 -11.170600 -22.760000
N -20.228700 -11.931800 -19.389400
C -20.061200 -12.287900 -18.053100
N -19.260500 -11.230300 -21.198600
C -19.226400 -12.716400 -16.136800
N -19.121700 -11.588500 -19.946800
N -18.873000 -12.336900 -17.360000
H -18.629800 -12.870000 -15.319800
H -18.271100 -10.197200 -22.471700
C -18.050500 -10.812400 -21.881000
H -17.791800 -11.481900 -22.542000
H -17.373100 -10.536300 -21.258100
