23
Fragment
H -22.926100 -17.762300 -12.965200
O -22.508800 -18.398800 -10.709400
N -22.224700 -17.679100 -12.833000
C -21.777600 -17.995800 -11.612200
H -21.561000 -17.248400 -13.569000
H -20.610300 -15.905100 -15.407900
C -20.329500 -17.843300 -11.410900
H -20.322300 -17.161000 -16.005800
C -19.900700 -16.345400 -16.073700
N -19.764900 -18.116200 -10.173500
H -19.730100 -15.896600 -16.911000
N -19.527700 -17.107700 -13.622600
C -19.343000 -17.481900 -12.304200
N -18.600300 -16.363600 -15.430600
C -18.458700 -17.915800 -10.345000
N -18.434300 -16.753800 -14.197900
N -18.159100 -17.532000 -11.606300
H -17.807700 -18.075700 -9.570900
H -17.545300 -15.254800 -16.634700
C -17.406200 -15.972300 -16.152300
H -17.347300 -17.491500 -11.992200
H -17.178700 -16.629000 -16.855000
H -16.634200 -16.015000 -15.599700
23
Fragment
H -15.750200 -19.551200 -18.920200
O -15.332900 -18.914700 -16.664400
N -15.048800 -19.634400 -18.788000
C -14.601700 -19.317700 -17.567200
H -14.385100 -20.065100 -19.524000
H -13.434400 -21.408400 -21.362900
C -13.153600 -19.470200 -17.365900
H -13.146400 -20.152500 -21.960800
C -12.724800 -20.968100 -22.028700
N -12.589000 -19.197300 -16.128500
H -12.554200 -21.416900 -22.866000
N -12.351800 -20.205800 -19.577600
C -12.167100 -19.831600 -18.259200
N -11.424400 -20.949900 -21.385500
C -11.282800 -19.397700 -16.300000
N -11.258400 -20.559700 -20.152900
N -10.983200 -19.781500 -17.561300
H -10.631800 -19.237800 -15.525800
H -10.369400 -22.058700 -22.589600
C -10.230300 -21.341200 -22.107300
H -10.171400 -19.822000 -17.947100
H -10.002800 -20.684500 -22.810000
H -9.458300 -21.298500 -21.554700
46
Fragment
H -22.926100 -17.762300 -12.965200
O -22.508800 -18.398800 -10.709400
N -22.224700 -17.679100 -12.833000
C -21.777600 -17.995800 -11.612200
H -21.561000 -17.248400 -13.569000
H -20.610300 -15.905100 -15.407900
C -20.329500 -17.843300 -11.410900
H -20.322300 -17.161000 -16.005800
C -19.900700 -16.345400 -16.073700
N -19.764900 -18.116200 -10.173500
H -19.730100 -15.896600 -16.911000
N -19.527700 -17.107700 -13.622600
C -19.343000 -17.481900 -12.304200
N -18.600300 -16.363600 -15.430600
C -18.458700 -17.915800 -10.345000
N -18.434300 -16.753800 -14.197900
N -18.159100 -17.532000 -11.606300
H -17.807700 -18.075700 -9.570900
H -17.545300 -15.254800 -16.634700
C -17.406200 -15.972300 -16.152300
H -17.347300 -17.491500 -11.992200
H -17.178700 -16.629000 -16.855000
H -16.634200 -16.015000 -15.599700
H -15.750200 -19.551200 -18.920200
O -15.332900 -18.914700 -16.664400
N -15.048800 -19.634400 -18.788000
C -14.601700 -19.317700 -17.567200
H -14.385100 -20.065100 -19.524000
H -13.434400 -21.408400 -21.362900
C -13.153600 -19.470200 -17.365900
H -13.146400 -20.152500 -21.960800
C -12.724800 -20.968100 -22.028700
N -12.589000 -19.197300 -16.128500
H -12.554200 -21.416900 -22.866000
N -12.351800 -20.205800 -19.577600
C -12.167100 -19.831600 -18.259200
N -11.424400 -20.949900 -21.385500
C -11.282800 -19.397700 -16.300000
N -11.258400 -20.559700 -20.152900
N -10.983200 -19.781500 -17.561300
H -10.631800 -19.237800 -15.525800
H -10.369400 -22.058700 -22.589600
C -10.230300 -21.341200 -22.107300
H -10.171400 -19.822000 -17.947100
H -10.002800 -20.684500 -22.810000
H -9.458300 -21.298500 -21.554700
