23
Fragment
H -22.926100 -17.762300 -12.965200
O -22.508800 -18.398800 -10.709400
N -22.224700 -17.679100 -12.833000
C -21.777600 -17.995800 -11.612200
H -21.561000 -17.248400 -13.569000
H -20.610300 -15.905100 -15.407900
C -20.329500 -17.843300 -11.410900
H -20.322300 -17.161000 -16.005800
C -19.900700 -16.345400 -16.073700
N -19.764900 -18.116200 -10.173500
H -19.730100 -15.896600 -16.911000
N -19.527700 -17.107700 -13.622600
C -19.343000 -17.481900 -12.304200
N -18.600300 -16.363600 -15.430600
C -18.458700 -17.915800 -10.345000
N -18.434300 -16.753800 -14.197900
N -18.159100 -17.532000 -11.606300
H -17.807700 -18.075700 -9.570900
H -17.545300 -15.254800 -16.634700
C -17.406200 -15.972300 -16.152300
H -17.347300 -17.491500 -11.992200
H -17.178700 -16.629000 -16.855000
H -16.634200 -16.015000 -15.599700
23
Fragment
H -24.176200 -23.187700 -6.959000
O -23.614200 -23.726100 -4.598400
N -23.301100 -23.138600 -6.754100
C -22.872400 -23.395600 -5.528600
H -22.815600 -22.830500 -7.334200
H -21.451300 -21.121600 -9.579200
C -21.413200 -23.293200 -5.323800
H -21.396700 -22.556500 -9.684000
H -21.279800 -23.879600 -3.327600
N -20.854000 -23.567200 -4.093500
C -20.834200 -21.907300 -9.982900
H -20.651600 -21.831600 -10.850000
N -20.538500 -22.592800 -7.479500
C -20.371000 -22.948900 -6.143200
N -19.570200 -21.891300 -9.288600
C -19.536200 -23.377400 -4.226800
N -19.431500 -22.249500 -8.036800
N -19.182800 -22.997900 -5.450000
H -18.939600 -23.531000 -3.409800
H -18.580900 -20.858200 -10.561800
C -18.360300 -21.473400 -9.971000
H -18.101600 -22.142900 -10.632000
H -17.682900 -21.197300 -9.348100
46
Fragment
H -22.926100 -17.762300 -12.965200
O -22.508800 -18.398800 -10.709400
N -22.224700 -17.679100 -12.833000
C -21.777600 -17.995800 -11.612200
H -21.561000 -17.248400 -13.569000
H -20.610300 -15.905100 -15.407900
C -20.329500 -17.843300 -11.410900
H -20.322300 -17.161000 -16.005800
C -19.900700 -16.345400 -16.073700
N -19.764900 -18.116200 -10.173500
H -19.730100 -15.896600 -16.911000
N -19.527700 -17.107700 -13.622600
C -19.343000 -17.481900 -12.304200
N -18.600300 -16.363600 -15.430600
C -18.458700 -17.915800 -10.345000
N -18.434300 -16.753800 -14.197900
N -18.159100 -17.532000 -11.606300
H -17.807700 -18.075700 -9.570900
H -17.545300 -15.254800 -16.634700
C -17.406200 -15.972300 -16.152300
H -17.347300 -17.491500 -11.992200
H -17.178700 -16.629000 -16.855000
H -16.634200 -16.015000 -15.599700
H -24.176200 -23.187700 -6.959000
O -23.614200 -23.726100 -4.598400
N -23.301100 -23.138600 -6.754100
C -22.872400 -23.395600 -5.528600
H -22.815600 -22.830500 -7.334200
H -21.451300 -21.121600 -9.579200
C -21.413200 -23.293200 -5.323800
H -21.396700 -22.556500 -9.684000
H -21.279800 -23.879600 -3.327600
N -20.854000 -23.567200 -4.093500
C -20.834200 -21.907300 -9.982900
H -20.651600 -21.831600 -10.850000
N -20.538500 -22.592800 -7.479500
C -20.371000 -22.948900 -6.143200
N -19.570200 -21.891300 -9.288600
C -19.536200 -23.377400 -4.226800
N -19.431500 -22.249500 -8.036800
N -19.182800 -22.997900 -5.450000
H -18.939600 -23.531000 -3.409800
H -18.580900 -20.858200 -10.561800
C -18.360300 -21.473400 -9.971000
H -18.101600 -22.142900 -10.632000
H -17.682900 -21.197300 -9.348100
