31
Fragment
H -6.988100 -21.092600 -32.886100
H -6.425100 -23.030500 -31.637500
N -6.407900 -21.112300 -32.252700
C -6.054600 -22.184100 -31.526700
H -5.712400 -19.192100 -32.104900
C -5.678400 -20.069800 -31.798900
N -5.127800 -21.902300 -30.643100
C -4.885200 -20.553100 -30.806700
C -3.918400 -19.777200 -30.009500
O -3.840600 -18.549300 -30.118100
H -3.208900 -21.351400 -29.174800
N -3.136100 -20.494700 -29.189300
N -2.212300 -19.872000 -28.365100
H -1.705200 -21.598900 -27.718500
C -1.550500 -20.686100 -27.632400
H -0.800200 -18.239400 -26.924300
C -0.562000 -20.225100 -26.666100
C -0.335800 -18.876500 -26.432200
H 0.041600 -22.066500 -26.121500
C 0.165600 -21.160600 -25.950500
C 0.566900 -18.476100 -25.480500
O 0.764100 -17.142000 -25.262400
C 1.078900 -20.766500 -24.981000
C 1.264700 -19.429200 -24.729400
H 1.310800 -17.041600 -24.660800
H 1.560900 -21.403900 -24.505000
O 2.085800 -18.902900 -23.760300
H 2.266400 -20.411100 -22.527100
C 2.852600 -19.806000 -22.988000
H 3.374600 -19.317100 -22.347500
H 3.436800 -20.303600 -23.563600
31
Fragment
H -6.381700 -14.052100 -30.536000
H -6.319500 -13.065600 -31.752100
C -5.797500 -13.554500 -31.111600
H -5.211200 -14.159600 -31.572500
O -5.030600 -12.651400 -30.339300
H -4.505800 -15.152400 -29.594700
H -4.255600 -10.790100 -29.438800
C -4.209600 -13.177700 -29.370200
C -4.023700 -14.515000 -29.118600
O -3.709000 -10.890500 -28.837300
C -3.511800 -12.224600 -28.619100
C -3.110400 -14.909100 -28.149100
H -2.986400 -15.815000 -27.978200
C -2.609100 -12.625000 -27.667400
C -2.382900 -13.973600 -27.433500
H -2.144600 -11.987900 -27.175300
C -1.394300 -14.434600 -26.467300
H -1.239600 -15.347400 -26.381100
N -0.732500 -13.620500 -25.734500
N 0.191200 -14.243200 -24.910300
H 0.264000 -15.099900 -24.924800
O 0.895700 -12.297800 -23.981500
C 0.973500 -13.525700 -24.090100
C 1.940300 -14.301600 -23.292900
N 2.183000 -15.650800 -23.456500
C 2.733500 -13.818300 -22.300700
H 2.767600 -12.940600 -21.994700
C 3.109700 -15.932600 -22.573000
N 3.463000 -14.860800 -21.846900
H 3.480300 -16.779000 -22.462200
H 4.043200 -14.841100 -21.213500
62
Fragment
H -6.988100 -21.092600 -32.886100
H -6.425100 -23.030500 -31.637500
N -6.407900 -21.112300 -32.252700
C -6.054600 -22.184100 -31.526700
H -5.712400 -19.192100 -32.104900
C -5.678400 -20.069800 -31.798900
N -5.127800 -21.902300 -30.643100
C -4.885200 -20.553100 -30.806700
C -3.918400 -19.777200 -30.009500
O -3.840600 -18.549300 -30.118100
H -3.208900 -21.351400 -29.174800
N -3.136100 -20.494700 -29.189300
N -2.212300 -19.872000 -28.365100
H -1.705200 -21.598900 -27.718500
C -1.550500 -20.686100 -27.632400
H -0.800200 -18.239400 -26.924300
C -0.562000 -20.225100 -26.666100
C -0.335800 -18.876500 -26.432200
H 0.041600 -22.066500 -26.121500
C 0.165600 -21.160600 -25.950500
C 0.566900 -18.476100 -25.480500
O 0.764100 -17.142000 -25.262400
C 1.078900 -20.766500 -24.981000
C 1.264700 -19.429200 -24.729400
H 1.310800 -17.041600 -24.660800
H 1.560900 -21.403900 -24.505000
O 2.085800 -18.902900 -23.760300
H 2.266400 -20.411100 -22.527100
C 2.852600 -19.806000 -22.988000
H 3.374600 -19.317100 -22.347500
H 3.436800 -20.303600 -23.563600
H -6.381700 -14.052100 -30.536000
H -6.319500 -13.065600 -31.752100
C -5.797500 -13.554500 -31.111600
H -5.211200 -14.159600 -31.572500
O -5.030600 -12.651400 -30.339300
H -4.505800 -15.152400 -29.594700
H -4.255600 -10.790100 -29.438800
C -4.209600 -13.177700 -29.370200
C -4.023700 -14.515000 -29.118600
O -3.709000 -10.890500 -28.837300
C -3.511800 -12.224600 -28.619100
C -3.110400 -14.909100 -28.149100
H -2.986400 -15.815000 -27.978200
C -2.609100 -12.625000 -27.667400
C -2.382900 -13.973600 -27.433500
H -2.144600 -11.987900 -27.175300
C -1.394300 -14.434600 -26.467300
H -1.239600 -15.347400 -26.381100
N -0.732500 -13.620500 -25.734500
N 0.191200 -14.243200 -24.910300
H 0.264000 -15.099900 -24.924800
O 0.895700 -12.297800 -23.981500
C 0.973500 -13.525700 -24.090100
C 1.940300 -14.301600 -23.292900
N 2.183000 -15.650800 -23.456500
C 2.733500 -13.818300 -22.300700
H 2.767600 -12.940600 -21.994700
C 3.109700 -15.932600 -22.573000
N 3.463000 -14.860800 -21.846900
H 3.480300 -16.779000 -22.462200
H 4.043200 -14.841100 -21.213500
