31
Fragment
H -6.988100 -21.092600 -32.886100
H -6.425100 -23.030500 -31.637500
N -6.407900 -21.112300 -32.252700
C -6.054600 -22.184100 -31.526700
H -5.712400 -19.192100 -32.104900
C -5.678400 -20.069800 -31.798900
N -5.127800 -21.902300 -30.643100
C -4.885200 -20.553100 -30.806700
C -3.918400 -19.777200 -30.009500
O -3.840600 -18.549300 -30.118100
H -3.208900 -21.351400 -29.174800
N -3.136100 -20.494700 -29.189300
N -2.212300 -19.872000 -28.365100
H -1.705200 -21.598900 -27.718500
C -1.550500 -20.686100 -27.632400
H -0.800200 -18.239400 -26.924300
C -0.562000 -20.225100 -26.666100
C -0.335800 -18.876500 -26.432200
H 0.041600 -22.066500 -26.121500
C 0.165600 -21.160600 -25.950500
C 0.566900 -18.476100 -25.480500
O 0.764100 -17.142000 -25.262400
C 1.078900 -20.766500 -24.981000
C 1.264700 -19.429200 -24.729400
H 1.310800 -17.041600 -24.660800
H 1.560900 -21.403900 -24.505000
O 2.085800 -18.902900 -23.760300
H 2.266400 -20.411100 -22.527100
C 2.852600 -19.806000 -22.988000
H 3.374600 -19.317100 -22.347500
H 3.436800 -20.303600 -23.563600
31
Fragment
H -0.631000 -22.667900 -22.066200
H -0.068000 -20.730000 -20.817500
N -0.050700 -22.648200 -21.432800
C 0.302500 -21.576400 -20.706700
H 0.644700 -24.568400 -21.285000
C 0.678700 -23.690700 -20.979000
N 1.229300 -21.858200 -19.823200
C 1.472000 -23.207400 -19.986800
C 2.438700 -23.983300 -19.189600
O 2.516500 -25.211200 -19.298200
H 3.148300 -22.409100 -18.354900
N 3.221000 -23.265800 -18.369400
N 4.144800 -23.888500 -17.545200
H 4.651900 -22.161600 -16.898600
C 4.806600 -23.074400 -16.812400
H 5.556900 -25.521100 -16.104400
C 5.795100 -23.535400 -15.846200
C 6.021400 -24.884000 -15.612300
H 6.398700 -21.694000 -15.301500
C 6.522700 -22.599900 -15.130600
C 6.924000 -25.284400 -14.660600
O 7.121200 -26.618500 -14.442400
C 7.436000 -22.994000 -14.161100
C 7.621900 -24.331300 -13.909400
H 7.667900 -26.718900 -13.840800
H 7.918100 -22.356600 -13.685000
O 8.442900 -24.857600 -12.940400
H 8.623500 -23.349400 -11.707200
C 9.209800 -23.954500 -12.168100
H 9.731700 -24.443400 -11.527500
H 9.794000 -23.456900 -12.743700
62
Fragment
H -6.988100 -21.092600 -32.886100
H -6.425100 -23.030500 -31.637500
N -6.407900 -21.112300 -32.252700
C -6.054600 -22.184100 -31.526700
H -5.712400 -19.192100 -32.104900
C -5.678400 -20.069800 -31.798900
N -5.127800 -21.902300 -30.643100
C -4.885200 -20.553100 -30.806700
C -3.918400 -19.777200 -30.009500
O -3.840600 -18.549300 -30.118100
H -3.208900 -21.351400 -29.174800
N -3.136100 -20.494700 -29.189300
N -2.212300 -19.872000 -28.365100
H -1.705200 -21.598900 -27.718500
C -1.550500 -20.686100 -27.632400
H -0.800200 -18.239400 -26.924300
C -0.562000 -20.225100 -26.666100
C -0.335800 -18.876500 -26.432200
H 0.041600 -22.066500 -26.121500
C 0.165600 -21.160600 -25.950500
C 0.566900 -18.476100 -25.480500
O 0.764100 -17.142000 -25.262400
C 1.078900 -20.766500 -24.981000
C 1.264700 -19.429200 -24.729400
H 1.310800 -17.041600 -24.660800
H 1.560900 -21.403900 -24.505000
O 2.085800 -18.902900 -23.760300
H 2.266400 -20.411100 -22.527100
C 2.852600 -19.806000 -22.988000
H 3.374600 -19.317100 -22.347500
H 3.436800 -20.303600 -23.563600
H -0.631000 -22.667900 -22.066200
H -0.068000 -20.730000 -20.817500
N -0.050700 -22.648200 -21.432800
C 0.302500 -21.576400 -20.706700
H 0.644700 -24.568400 -21.285000
C 0.678700 -23.690700 -20.979000
N 1.229300 -21.858200 -19.823200
C 1.472000 -23.207400 -19.986800
C 2.438700 -23.983300 -19.189600
O 2.516500 -25.211200 -19.298200
H 3.148300 -22.409100 -18.354900
N 3.221000 -23.265800 -18.369400
N 4.144800 -23.888500 -17.545200
H 4.651900 -22.161600 -16.898600
C 4.806600 -23.074400 -16.812400
H 5.556900 -25.521100 -16.104400
C 5.795100 -23.535400 -15.846200
C 6.021400 -24.884000 -15.612300
H 6.398700 -21.694000 -15.301500
C 6.522700 -22.599900 -15.130600
C 6.924000 -25.284400 -14.660600
O 7.121200 -26.618500 -14.442400
C 7.436000 -22.994000 -14.161100
C 7.621900 -24.331300 -13.909400
H 7.667900 -26.718900 -13.840800
H 7.918100 -22.356600 -13.685000
O 8.442900 -24.857600 -12.940400
H 8.623500 -23.349400 -11.707200
C 9.209800 -23.954500 -12.168100
H 9.731700 -24.443400 -11.527500
H 9.794000 -23.456900 -12.743700
