31
Fragment
H -6.988100 -21.092600 -32.886100
H -6.425100 -23.030500 -31.637500
N -6.407900 -21.112300 -32.252700
C -6.054600 -22.184100 -31.526700
H -5.712400 -19.192100 -32.104900
C -5.678400 -20.069800 -31.798900
N -5.127800 -21.902300 -30.643100
C -4.885200 -20.553100 -30.806700
C -3.918400 -19.777200 -30.009500
O -3.840600 -18.549300 -30.118100
H -3.208900 -21.351400 -29.174800
N -3.136100 -20.494700 -29.189300
N -2.212300 -19.872000 -28.365100
H -1.705200 -21.598900 -27.718500
C -1.550500 -20.686100 -27.632400
H -0.800200 -18.239400 -26.924300
C -0.562000 -20.225100 -26.666100
C -0.335800 -18.876500 -26.432200
H 0.041600 -22.066500 -26.121500
C 0.165600 -21.160600 -25.950500
C 0.566900 -18.476100 -25.480500
O 0.764100 -17.142000 -25.262400
C 1.078900 -20.766500 -24.981000
C 1.264700 -19.429200 -24.729400
H 1.310800 -17.041600 -24.660800
H 1.560900 -21.403900 -24.505000
O 2.085800 -18.902900 -23.760300
H 2.266400 -20.411100 -22.527100
C 2.852600 -19.806000 -22.988000
H 3.374600 -19.317100 -22.347500
H 3.436800 -20.303600 -23.563600
31
Fragment
H -2.181300 -21.092600 -32.886100
H -1.618300 -23.030500 -31.637500
N -1.601100 -21.112300 -32.252700
C -1.247800 -22.184100 -31.526700
H -0.905600 -19.192100 -32.104900
C -0.871600 -20.069800 -31.798900
N -0.321000 -21.902300 -30.643100
C -0.078400 -20.553100 -30.806700
C 0.888400 -19.777200 -30.009500
O 0.966200 -18.549300 -30.118100
H 1.597900 -21.351400 -29.174800
N 1.670700 -20.494700 -29.189300
N 2.594500 -19.872000 -28.365100
H 3.101600 -21.598900 -27.718500
C 3.256300 -20.686100 -27.632400
H 4.006600 -18.239400 -26.924300
C 4.244800 -20.225100 -26.666100
C 4.471000 -18.876500 -26.432200
H 4.848400 -22.066500 -26.121500
C 4.972400 -21.160600 -25.950500
C 5.373700 -18.476100 -25.480500
O 5.570900 -17.142000 -25.262400
C 5.885700 -20.766500 -24.981000
C 6.071500 -19.429200 -24.729400
H 6.117600 -17.041600 -24.660800
H 6.367700 -21.403900 -24.505000
O 6.892600 -18.902900 -23.760300
H 7.073200 -20.411100 -22.527100
C 7.659400 -19.806000 -22.988000
H 8.181400 -19.317100 -22.347500
H 8.243600 -20.303600 -23.563600
62
Fragment
H -6.988100 -21.092600 -32.886100
H -6.425100 -23.030500 -31.637500
N -6.407900 -21.112300 -32.252700
C -6.054600 -22.184100 -31.526700
H -5.712400 -19.192100 -32.104900
C -5.678400 -20.069800 -31.798900
N -5.127800 -21.902300 -30.643100
C -4.885200 -20.553100 -30.806700
C -3.918400 -19.777200 -30.009500
O -3.840600 -18.549300 -30.118100
H -3.208900 -21.351400 -29.174800
N -3.136100 -20.494700 -29.189300
N -2.212300 -19.872000 -28.365100
H -1.705200 -21.598900 -27.718500
C -1.550500 -20.686100 -27.632400
H -0.800200 -18.239400 -26.924300
C -0.562000 -20.225100 -26.666100
C -0.335800 -18.876500 -26.432200
H 0.041600 -22.066500 -26.121500
C 0.165600 -21.160600 -25.950500
C 0.566900 -18.476100 -25.480500
O 0.764100 -17.142000 -25.262400
C 1.078900 -20.766500 -24.981000
C 1.264700 -19.429200 -24.729400
H 1.310800 -17.041600 -24.660800
H 1.560900 -21.403900 -24.505000
O 2.085800 -18.902900 -23.760300
H 2.266400 -20.411100 -22.527100
C 2.852600 -19.806000 -22.988000
H 3.374600 -19.317100 -22.347500
H 3.436800 -20.303600 -23.563600
H -2.181300 -21.092600 -32.886100
H -1.618300 -23.030500 -31.637500
N -1.601100 -21.112300 -32.252700
C -1.247800 -22.184100 -31.526700
H -0.905600 -19.192100 -32.104900
C -0.871600 -20.069800 -31.798900
N -0.321000 -21.902300 -30.643100
C -0.078400 -20.553100 -30.806700
C 0.888400 -19.777200 -30.009500
O 0.966200 -18.549300 -30.118100
H 1.597900 -21.351400 -29.174800
N 1.670700 -20.494700 -29.189300
N 2.594500 -19.872000 -28.365100
H 3.101600 -21.598900 -27.718500
C 3.256300 -20.686100 -27.632400
H 4.006600 -18.239400 -26.924300
C 4.244800 -20.225100 -26.666100
C 4.471000 -18.876500 -26.432200
H 4.848400 -22.066500 -26.121500
C 4.972400 -21.160600 -25.950500
C 5.373700 -18.476100 -25.480500
O 5.570900 -17.142000 -25.262400
C 5.885700 -20.766500 -24.981000
C 6.071500 -19.429200 -24.729400
H 6.117600 -17.041600 -24.660800
H 6.367700 -21.403900 -24.505000
O 6.892600 -18.902900 -23.760300
H 7.073200 -20.411100 -22.527100
C 7.659400 -19.806000 -22.988000
H 8.181400 -19.317100 -22.347500
H 8.243600 -20.303600 -23.563600
