25
Fragment
O -21.916900 -19.295300 -29.167300
H -21.753700 -17.940900 -31.194200
C -21.043400 -19.384000 -30.012700
N -21.036500 -18.580800 -31.129000
H -21.014800 -20.670400 -33.466600
H -20.286800 -21.866700 -32.710700
C -20.161900 -21.259800 -33.419100
O -20.149600 -17.781800 -33.036600
H -20.123800 -21.783200 -34.231700
C -20.067200 -18.566200 -32.110000
H -20.047800 -20.828200 -29.168400
N -20.030800 -20.306600 -29.909200
C -18.984200 -20.462800 -30.779100
C -18.910000 -19.544100 -31.986800
C -18.892300 -20.438300 -33.248700
H -18.737300 -19.824200 -34.034700
H -18.374400 -17.214000 -30.551400
O -18.138400 -21.312300 -30.574000
H -18.095100 -21.045700 -33.145200
C -17.616100 -18.710400 -31.876800
H -17.559500 -18.146400 -32.688000
C -17.556200 -17.840300 -30.623600
H -17.548600 -18.425000 -29.795400
H -16.832500 -19.322900 -31.866400
H -16.711900 -17.271100 -30.610200
25
Fragment
O -16.483900 -19.295300 -27.417700
H -16.320700 -17.940900 -25.390800
C -15.610400 -19.384000 -26.572300
N -15.603500 -18.580800 -25.456000
H -15.581800 -20.670400 -23.118400
H -14.853800 -21.866700 -23.874300
C -14.728900 -21.259800 -23.165900
O -14.716600 -17.781800 -23.548400
H -14.690800 -21.783200 -22.353300
C -14.634200 -18.566200 -24.475000
H -14.614800 -20.828200 -27.416600
N -14.597800 -20.306600 -26.675800
C -13.551200 -20.462800 -25.805900
C -13.477000 -19.544100 -24.598200
C -13.459300 -20.438300 -23.336300
H -13.304300 -19.824200 -22.550300
H -12.941400 -17.214000 -26.033600
O -12.705400 -21.312300 -26.011000
H -12.662100 -21.045700 -23.439800
C -12.183100 -18.710400 -24.708200
H -12.126500 -18.146400 -23.897000
C -12.123200 -17.840300 -25.961400
H -12.115600 -18.425000 -26.789600
H -11.399500 -19.322900 -24.718600
H -11.278900 -17.271100 -25.974800
50
Fragment
O -21.916900 -19.295300 -29.167300
H -21.753700 -17.940900 -31.194200
C -21.043400 -19.384000 -30.012700
N -21.036500 -18.580800 -31.129000
H -21.014800 -20.670400 -33.466600
H -20.286800 -21.866700 -32.710700
C -20.161900 -21.259800 -33.419100
O -20.149600 -17.781800 -33.036600
H -20.123800 -21.783200 -34.231700
C -20.067200 -18.566200 -32.110000
H -20.047800 -20.828200 -29.168400
N -20.030800 -20.306600 -29.909200
C -18.984200 -20.462800 -30.779100
C -18.910000 -19.544100 -31.986800
C -18.892300 -20.438300 -33.248700
H -18.737300 -19.824200 -34.034700
H -18.374400 -17.214000 -30.551400
O -18.138400 -21.312300 -30.574000
H -18.095100 -21.045700 -33.145200
C -17.616100 -18.710400 -31.876800
H -17.559500 -18.146400 -32.688000
C -17.556200 -17.840300 -30.623600
H -17.548600 -18.425000 -29.795400
H -16.832500 -19.322900 -31.866400
H -16.711900 -17.271100 -30.610200
O -16.483900 -19.295300 -27.417700
H -16.320700 -17.940900 -25.390800
C -15.610400 -19.384000 -26.572300
N -15.603500 -18.580800 -25.456000
H -15.581800 -20.670400 -23.118400
H -14.853800 -21.866700 -23.874300
C -14.728900 -21.259800 -23.165900
O -14.716600 -17.781800 -23.548400
H -14.690800 -21.783200 -22.353300
C -14.634200 -18.566200 -24.475000
H -14.614800 -20.828200 -27.416600
N -14.597800 -20.306600 -26.675800
C -13.551200 -20.462800 -25.805900
C -13.477000 -19.544100 -24.598200
C -13.459300 -20.438300 -23.336300
H -13.304300 -19.824200 -22.550300
H -12.941400 -17.214000 -26.033600
O -12.705400 -21.312300 -26.011000
H -12.662100 -21.045700 -23.439800
C -12.183100 -18.710400 -24.708200
H -12.126500 -18.146400 -23.897000
C -12.123200 -17.840300 -25.961400
H -12.115600 -18.425000 -26.789600
H -11.399500 -19.322900 -24.718600
H -11.278900 -17.271100 -25.974800
