25
Fragment
O -21.916900 -19.295300 -29.167300
H -21.753700 -17.940900 -31.194200
C -21.043400 -19.384000 -30.012700
N -21.036500 -18.580800 -31.129000
H -21.014800 -20.670400 -33.466600
H -20.286800 -21.866700 -32.710700
C -20.161900 -21.259800 -33.419100
O -20.149600 -17.781800 -33.036600
H -20.123800 -21.783200 -34.231700
C -20.067200 -18.566200 -32.110000
H -20.047800 -20.828200 -29.168400
N -20.030800 -20.306600 -29.909200
C -18.984200 -20.462800 -30.779100
C -18.910000 -19.544100 -31.986800
C -18.892300 -20.438300 -33.248700
H -18.737300 -19.824200 -34.034700
H -18.374400 -17.214000 -30.551400
O -18.138400 -21.312300 -30.574000
H -18.095100 -21.045700 -33.145200
C -17.616100 -18.710400 -31.876800
H -17.559500 -18.146400 -32.688000
C -17.556200 -17.840300 -30.623600
H -17.548600 -18.425000 -29.795400
H -16.832500 -19.322900 -31.866400
H -16.711900 -17.271100 -30.610200
25
Fragment
H -26.752100 -22.517900 -37.291800
H -26.631500 -20.466100 -36.035600
H -25.915400 -21.364000 -38.106600
C -25.907800 -21.948700 -37.278400
H -25.904500 -21.642600 -35.214000
C -25.847900 -21.078600 -36.025200
H -25.368900 -18.743300 -34.756800
O -25.325600 -18.476700 -37.328000
H -25.089600 -22.575000 -37.350600
H -24.726700 -19.964800 -33.867300
C -24.571700 -19.350700 -34.653300
C -24.554000 -20.244900 -35.915200
C -24.479800 -19.326200 -37.122900
N -23.433200 -19.482400 -37.992800
H -23.416200 -18.960800 -38.733600
C -23.396800 -21.222800 -35.792000
H -23.340200 -18.005800 -33.670300
O -23.314400 -22.007200 -34.865400
C -23.302100 -18.529200 -34.482900
H -23.177200 -17.922300 -35.191300
H -22.449200 -19.118600 -34.435400
N -22.427500 -21.208200 -36.773000
C -22.420600 -20.405000 -37.889300
H -21.710300 -21.848100 -36.707800
O -21.547100 -20.493700 -38.734700
50
Fragment
O -21.916900 -19.295300 -29.167300
H -21.753700 -17.940900 -31.194200
C -21.043400 -19.384000 -30.012700
N -21.036500 -18.580800 -31.129000
H -21.014800 -20.670400 -33.466600
H -20.286800 -21.866700 -32.710700
C -20.161900 -21.259800 -33.419100
O -20.149600 -17.781800 -33.036600
H -20.123800 -21.783200 -34.231700
C -20.067200 -18.566200 -32.110000
H -20.047800 -20.828200 -29.168400
N -20.030800 -20.306600 -29.909200
C -18.984200 -20.462800 -30.779100
C -18.910000 -19.544100 -31.986800
C -18.892300 -20.438300 -33.248700
H -18.737300 -19.824200 -34.034700
H -18.374400 -17.214000 -30.551400
O -18.138400 -21.312300 -30.574000
H -18.095100 -21.045700 -33.145200
C -17.616100 -18.710400 -31.876800
H -17.559500 -18.146400 -32.688000
C -17.556200 -17.840300 -30.623600
H -17.548600 -18.425000 -29.795400
H -16.832500 -19.322900 -31.866400
H -16.711900 -17.271100 -30.610200
H -26.752100 -22.517900 -37.291800
H -26.631500 -20.466100 -36.035600
H -25.915400 -21.364000 -38.106600
C -25.907800 -21.948700 -37.278400
H -25.904500 -21.642600 -35.214000
C -25.847900 -21.078600 -36.025200
H -25.368900 -18.743300 -34.756800
O -25.325600 -18.476700 -37.328000
H -25.089600 -22.575000 -37.350600
H -24.726700 -19.964800 -33.867300
C -24.571700 -19.350700 -34.653300
C -24.554000 -20.244900 -35.915200
C -24.479800 -19.326200 -37.122900
N -23.433200 -19.482400 -37.992800
H -23.416200 -18.960800 -38.733600
C -23.396800 -21.222800 -35.792000
H -23.340200 -18.005800 -33.670300
O -23.314400 -22.007200 -34.865400
C -23.302100 -18.529200 -34.482900
H -23.177200 -17.922300 -35.191300
H -22.449200 -19.118600 -34.435400
N -22.427500 -21.208200 -36.773000
C -22.420600 -20.405000 -37.889300
H -21.710300 -21.848100 -36.707800
O -21.547100 -20.493700 -38.734700
