25
Fragment
O -21.916900 -19.295300 -29.167300
H -21.753700 -17.940900 -31.194200
C -21.043400 -19.384000 -30.012700
N -21.036500 -18.580800 -31.129000
H -21.014800 -20.670400 -33.466600
H -20.286800 -21.866700 -32.710700
C -20.161900 -21.259800 -33.419100
O -20.149600 -17.781800 -33.036600
H -20.123800 -21.783200 -34.231700
C -20.067200 -18.566200 -32.110000
H -20.047800 -20.828200 -29.168400
N -20.030800 -20.306600 -29.909200
C -18.984200 -20.462800 -30.779100
C -18.910000 -19.544100 -31.986800
C -18.892300 -20.438300 -33.248700
H -18.737300 -19.824200 -34.034700
H -18.374400 -17.214000 -30.551400
O -18.138400 -21.312300 -30.574000
H -18.095100 -21.045700 -33.145200
C -17.616100 -18.710400 -31.876800
H -17.559500 -18.146400 -32.688000
C -17.556200 -17.840300 -30.623600
H -17.548600 -18.425000 -29.795400
H -16.832500 -19.322900 -31.866400
H -16.711900 -17.271100 -30.610200
22
Fragment
H -20.330300 -19.232700 -36.707800
H -20.204200 -18.439500 -38.984800
N -20.001500 -17.283900 -37.305600
H -19.979300 -18.151700 -35.553500
H -19.788100 -16.875800 -39.245100
C -19.733700 -18.434600 -36.424000
C -19.635300 -17.659700 -38.678100
H -19.365400 -15.926200 -35.951800
H -19.276300 -15.455400 -37.470600
C -19.131800 -16.187600 -36.888900
H -18.614500 -19.947600 -38.149600
N -18.330400 -18.855600 -36.464300
N -18.220900 -18.067800 -38.781300
C -18.005000 -19.197000 -37.853600
H -17.736600 -17.493900 -35.112100
N -17.701300 -16.544300 -36.936700
H -17.535600 -16.182200 -38.939500
C -17.499500 -17.721000 -36.062300
C -17.382100 -16.949800 -38.324300
H -17.070500 -19.476700 -37.900600
H -16.533700 -17.970000 -36.117100
H -16.480500 -17.235300 -38.326200
47
Fragment
O -21.916900 -19.295300 -29.167300
H -21.753700 -17.940900 -31.194200
C -21.043400 -19.384000 -30.012700
N -21.036500 -18.580800 -31.129000
H -21.014800 -20.670400 -33.466600
H -20.286800 -21.866700 -32.710700
C -20.161900 -21.259800 -33.419100
O -20.149600 -17.781800 -33.036600
H -20.123800 -21.783200 -34.231700
C -20.067200 -18.566200 -32.110000
H -20.047800 -20.828200 -29.168400
N -20.030800 -20.306600 -29.909200
C -18.984200 -20.462800 -30.779100
C -18.910000 -19.544100 -31.986800
C -18.892300 -20.438300 -33.248700
H -18.737300 -19.824200 -34.034700
H -18.374400 -17.214000 -30.551400
O -18.138400 -21.312300 -30.574000
H -18.095100 -21.045700 -33.145200
C -17.616100 -18.710400 -31.876800
H -17.559500 -18.146400 -32.688000
C -17.556200 -17.840300 -30.623600
H -17.548600 -18.425000 -29.795400
H -16.832500 -19.322900 -31.866400
H -16.711900 -17.271100 -30.610200
H -20.330300 -19.232700 -36.707800
H -20.204200 -18.439500 -38.984800
N -20.001500 -17.283900 -37.305600
H -19.979300 -18.151700 -35.553500
H -19.788100 -16.875800 -39.245100
C -19.733700 -18.434600 -36.424000
C -19.635300 -17.659700 -38.678100
H -19.365400 -15.926200 -35.951800
H -19.276300 -15.455400 -37.470600
C -19.131800 -16.187600 -36.888900
H -18.614500 -19.947600 -38.149600
N -18.330400 -18.855600 -36.464300
N -18.220900 -18.067800 -38.781300
C -18.005000 -19.197000 -37.853600
H -17.736600 -17.493900 -35.112100
N -17.701300 -16.544300 -36.936700
H -17.535600 -16.182200 -38.939500
C -17.499500 -17.721000 -36.062300
C -17.382100 -16.949800 -38.324300
H -17.070500 -19.476700 -37.900600
H -16.533700 -17.970000 -36.117100
H -16.480500 -17.235300 -38.326200
