2
Fragment
H -18.851800 -18.357000 -30.447000
Br -18.300000 -17.626100 -30.411000
2
Fragment
Br -18.720000 -13.513900 -30.552000
H -18.168200 -12.783000 -30.516000
4
Fragment
H -18.851800 -18.357000 -30.447000
Br -18.300000 -17.626100 -30.411000
Br -18.720000 -13.513900 -30.552000
H -18.168200 -12.783000 -30.516000
