34
Fragment
H -14.225900 -16.428300 -24.689600
H -13.829300 -16.513100 -22.157700
N -13.819500 -16.977900 -24.101300
N -13.483300 -16.243100 -22.947300
H -13.278700 -14.084600 -21.335500
H -13.074000 -17.314100 -24.477000
C -12.666700 -15.191600 -22.954400
C -12.479600 -14.559200 -21.583600
H -12.329500 -15.251100 -20.931500
H -12.265200 -11.763300 -21.692700
O -12.135600 -14.744300 -23.959500
C -11.458300 -12.285600 -21.658700
N -11.342300 -13.651900 -21.583600
N -10.206000 -16.401000 -21.637400
C -10.195300 -11.818900 -21.688500
C -10.010200 -13.941300 -21.583600
H -9.957500 -10.888200 -21.726800
H -9.532700 -18.347100 -21.726800
C -9.480000 -15.294000 -21.583600
C -9.294900 -17.416400 -21.688500
N -9.284200 -12.834300 -21.637400
N -8.147900 -15.583400 -21.583600
C -8.031900 -16.949700 -21.658700
O -7.354600 -14.491000 -23.959500
H -7.225000 -17.472000 -21.692700
H -7.160700 -13.984200 -20.931500
C -7.010600 -14.676100 -21.583600
C -6.823500 -14.043700 -22.954400
H -6.416200 -11.921200 -24.477000
H -6.211500 -15.150700 -21.335500
N -6.006900 -12.992200 -22.947300
N -5.670700 -12.257400 -24.101300
H -5.660900 -12.722200 -22.157700
H -5.264300 -12.807000 -24.689600
34
Fragment
H -13.474500 -9.957500 -25.270900
H -12.599400 -12.265200 -25.236800
C -12.543900 -10.195300 -25.232600
H -12.441600 -6.416200 -28.021100
N -12.105400 -5.670700 -27.645400
C -12.077100 -11.458300 -25.202800
H -11.640500 -5.660900 -25.701800
H -11.555700 -5.264300 -28.233700
N -11.528500 -9.284200 -25.181500
N -11.370600 -6.006900 -26.491400
N -10.710800 -11.342300 -25.127700
C -10.421400 -10.010200 -25.127700
H -10.378500 -7.160700 -24.475600
C -10.319100 -6.823500 -26.498500
H -10.278200 -13.278700 -24.879600
O -9.871800 -7.354600 -27.503600
C -9.803600 -12.479600 -25.127700
C -9.686600 -7.010600 -25.127700
O -9.618400 -12.135600 -27.503600
H -9.212000 -6.211500 -24.879600
C -9.171100 -12.666700 -26.498500
H -9.111700 -12.329500 -24.475600
C -9.068800 -9.480000 -25.127700
N -8.779400 -8.147900 -25.127700
N -8.119600 -13.483300 -26.491400
N -7.961700 -10.206000 -25.181500
H -7.934500 -14.225900 -28.233700
H -7.849700 -13.829300 -25.701800
C -7.413100 -8.031900 -25.202800
N -7.384800 -13.819500 -27.645400
H -7.048600 -13.074000 -28.021100
C -6.946300 -9.294900 -25.232600
H -6.890800 -7.225000 -25.236800
H -6.015700 -9.532700 -25.270900
68
Fragment
H -14.225900 -16.428300 -24.689600
H -13.829300 -16.513100 -22.157700
N -13.819500 -16.977900 -24.101300
N -13.483300 -16.243100 -22.947300
H -13.278700 -14.084600 -21.335500
H -13.074000 -17.314100 -24.477000
C -12.666700 -15.191600 -22.954400
C -12.479600 -14.559200 -21.583600
H -12.329500 -15.251100 -20.931500
H -12.265200 -11.763300 -21.692700
O -12.135600 -14.744300 -23.959500
C -11.458300 -12.285600 -21.658700
N -11.342300 -13.651900 -21.583600
N -10.206000 -16.401000 -21.637400
C -10.195300 -11.818900 -21.688500
C -10.010200 -13.941300 -21.583600
H -9.957500 -10.888200 -21.726800
H -9.532700 -18.347100 -21.726800
C -9.480000 -15.294000 -21.583600
C -9.294900 -17.416400 -21.688500
N -9.284200 -12.834300 -21.637400
N -8.147900 -15.583400 -21.583600
C -8.031900 -16.949700 -21.658700
O -7.354600 -14.491000 -23.959500
H -7.225000 -17.472000 -21.692700
H -7.160700 -13.984200 -20.931500
C -7.010600 -14.676100 -21.583600
C -6.823500 -14.043700 -22.954400
H -6.416200 -11.921200 -24.477000
H -6.211500 -15.150700 -21.335500
N -6.006900 -12.992200 -22.947300
N -5.670700 -12.257400 -24.101300
H -5.660900 -12.722200 -22.157700
H -5.264300 -12.807000 -24.689600
H -13.474500 -9.957500 -25.270900
H -12.599400 -12.265200 -25.236800
C -12.543900 -10.195300 -25.232600
H -12.441600 -6.416200 -28.021100
N -12.105400 -5.670700 -27.645400
C -12.077100 -11.458300 -25.202800
H -11.640500 -5.660900 -25.701800
H -11.555700 -5.264300 -28.233700
N -11.528500 -9.284200 -25.181500
N -11.370600 -6.006900 -26.491400
N -10.710800 -11.342300 -25.127700
C -10.421400 -10.010200 -25.127700
H -10.378500 -7.160700 -24.475600
C -10.319100 -6.823500 -26.498500
H -10.278200 -13.278700 -24.879600
O -9.871800 -7.354600 -27.503600
C -9.803600 -12.479600 -25.127700
C -9.686600 -7.010600 -25.127700
O -9.618400 -12.135600 -27.503600
H -9.212000 -6.211500 -24.879600
C -9.171100 -12.666700 -26.498500
H -9.111700 -12.329500 -24.475600
C -9.068800 -9.480000 -25.127700
N -8.779400 -8.147900 -25.127700
N -8.119600 -13.483300 -26.491400
N -7.961700 -10.206000 -25.181500
H -7.934500 -14.225900 -28.233700
H -7.849700 -13.829300 -25.701800
C -7.413100 -8.031900 -25.202800
N -7.384800 -13.819500 -27.645400
H -7.048600 -13.074000 -28.021100
C -6.946300 -9.294900 -25.232600
H -6.890800 -7.225000 -25.236800
H -6.015700 -9.532700 -25.270900
