34
Fragment
H -14.225900 -16.428300 -24.689600
H -13.829300 -16.513100 -22.157700
N -13.819500 -16.977900 -24.101300
N -13.483300 -16.243100 -22.947300
H -13.278700 -14.084600 -21.335500
H -13.074000 -17.314100 -24.477000
C -12.666700 -15.191600 -22.954400
C -12.479600 -14.559200 -21.583600
H -12.329500 -15.251100 -20.931500
H -12.265200 -11.763300 -21.692700
O -12.135600 -14.744300 -23.959500
C -11.458300 -12.285600 -21.658700
N -11.342300 -13.651900 -21.583600
N -10.206000 -16.401000 -21.637400
C -10.195300 -11.818900 -21.688500
C -10.010200 -13.941300 -21.583600
H -9.957500 -10.888200 -21.726800
H -9.532700 -18.347100 -21.726800
C -9.480000 -15.294000 -21.583600
C -9.294900 -17.416400 -21.688500
N -9.284200 -12.834300 -21.637400
N -8.147900 -15.583400 -21.583600
C -8.031900 -16.949700 -21.658700
O -7.354600 -14.491000 -23.959500
H -7.225000 -17.472000 -21.692700
H -7.160700 -13.984200 -20.931500
C -7.010600 -14.676100 -21.583600
C -6.823500 -14.043700 -22.954400
H -6.416200 -11.921200 -24.477000
H -6.211500 -15.150700 -21.335500
N -6.006900 -12.992200 -22.947300
N -5.670700 -12.257400 -24.101300
H -5.660900 -12.722200 -22.157700
H -5.264300 -12.807000 -24.689600
34
Fragment
H -23.971000 -16.428300 -24.689600
H -23.574400 -16.513100 -22.157700
N -23.564600 -16.977900 -24.101300
N -23.228400 -16.243100 -22.947300
H -23.023800 -14.084600 -21.335500
H -22.819100 -17.314100 -24.477000
C -22.411800 -15.191600 -22.954400
C -22.224700 -14.559200 -21.583600
H -22.074600 -15.251100 -20.931500
H -22.010300 -11.763300 -21.692700
O -21.880700 -14.744300 -23.959500
C -21.203400 -12.285600 -21.658700
N -21.087400 -13.651900 -21.583600
N -19.951100 -16.401000 -21.637400
C -19.940400 -11.818900 -21.688500
C -19.755300 -13.941300 -21.583600
H -19.702600 -10.888200 -21.726800
H -19.277800 -18.347100 -21.726800
C -19.225100 -15.294000 -21.583600
C -19.040000 -17.416400 -21.688500
N -19.029300 -12.834300 -21.637400
N -17.893000 -15.583400 -21.583600
C -17.777000 -16.949700 -21.658700
O -17.099700 -14.491000 -23.959500
H -16.970100 -17.472000 -21.692700
H -16.905800 -13.984200 -20.931500
C -16.755700 -14.676100 -21.583600
C -16.568600 -14.043700 -22.954400
H -16.161300 -11.921200 -24.477000
H -15.956600 -15.150700 -21.335500
N -15.752000 -12.992200 -22.947300
N -15.415800 -12.257400 -24.101300
H -15.406000 -12.722200 -22.157700
H -15.009400 -12.807000 -24.689600
68
Fragment
H -14.225900 -16.428300 -24.689600
H -13.829300 -16.513100 -22.157700
N -13.819500 -16.977900 -24.101300
N -13.483300 -16.243100 -22.947300
H -13.278700 -14.084600 -21.335500
H -13.074000 -17.314100 -24.477000
C -12.666700 -15.191600 -22.954400
C -12.479600 -14.559200 -21.583600
H -12.329500 -15.251100 -20.931500
H -12.265200 -11.763300 -21.692700
O -12.135600 -14.744300 -23.959500
C -11.458300 -12.285600 -21.658700
N -11.342300 -13.651900 -21.583600
N -10.206000 -16.401000 -21.637400
C -10.195300 -11.818900 -21.688500
C -10.010200 -13.941300 -21.583600
H -9.957500 -10.888200 -21.726800
H -9.532700 -18.347100 -21.726800
C -9.480000 -15.294000 -21.583600
C -9.294900 -17.416400 -21.688500
N -9.284200 -12.834300 -21.637400
N -8.147900 -15.583400 -21.583600
C -8.031900 -16.949700 -21.658700
O -7.354600 -14.491000 -23.959500
H -7.225000 -17.472000 -21.692700
H -7.160700 -13.984200 -20.931500
C -7.010600 -14.676100 -21.583600
C -6.823500 -14.043700 -22.954400
H -6.416200 -11.921200 -24.477000
H -6.211500 -15.150700 -21.335500
N -6.006900 -12.992200 -22.947300
N -5.670700 -12.257400 -24.101300
H -5.660900 -12.722200 -22.157700
H -5.264300 -12.807000 -24.689600
H -23.971000 -16.428300 -24.689600
H -23.574400 -16.513100 -22.157700
N -23.564600 -16.977900 -24.101300
N -23.228400 -16.243100 -22.947300
H -23.023800 -14.084600 -21.335500
H -22.819100 -17.314100 -24.477000
C -22.411800 -15.191600 -22.954400
C -22.224700 -14.559200 -21.583600
H -22.074600 -15.251100 -20.931500
H -22.010300 -11.763300 -21.692700
O -21.880700 -14.744300 -23.959500
C -21.203400 -12.285600 -21.658700
N -21.087400 -13.651900 -21.583600
N -19.951100 -16.401000 -21.637400
C -19.940400 -11.818900 -21.688500
C -19.755300 -13.941300 -21.583600
H -19.702600 -10.888200 -21.726800
H -19.277800 -18.347100 -21.726800
C -19.225100 -15.294000 -21.583600
C -19.040000 -17.416400 -21.688500
N -19.029300 -12.834300 -21.637400
N -17.893000 -15.583400 -21.583600
C -17.777000 -16.949700 -21.658700
O -17.099700 -14.491000 -23.959500
H -16.970100 -17.472000 -21.692700
H -16.905800 -13.984200 -20.931500
C -16.755700 -14.676100 -21.583600
C -16.568600 -14.043700 -22.954400
H -16.161300 -11.921200 -24.477000
H -15.956600 -15.150700 -21.335500
N -15.752000 -12.992200 -22.947300
N -15.415800 -12.257400 -24.101300
H -15.406000 -12.722200 -22.157700
H -15.009400 -12.807000 -24.689600
