38
Fragment
H -10.499300 -24.188600 -29.372200
H -9.832500 -25.939200 -27.840600
C -9.602400 -24.239600 -28.939900
C -9.251500 -25.218500 -28.034500
H -9.003500 -22.481600 -29.798700
C -8.756800 -23.187800 -29.190000
O -8.703500 -27.983300 -27.317700
C -8.053400 -27.455000 -26.417100
C -8.017100 -25.171900 -27.385400
H -7.796800 -26.668700 -23.963100
N -7.659900 -26.156600 -26.441400
H -7.653600 -29.805300 -27.200800
C -7.652900 -28.194700 -25.185600
C -7.615900 -27.539700 -23.959200
O -7.582700 -31.308000 -28.767900
C -7.552400 -23.107500 -28.525000
H -7.481000 -31.774800 -29.430400
C -7.382900 -29.573400 -25.222300
N -7.373100 -30.235700 -26.448200
C -7.331900 -28.202000 -22.794000
H -7.281700 -27.806600 -21.985500
C -7.148400 -24.096700 -27.630000
C -7.107700 -30.228400 -24.023200
C -7.084900 -29.555900 -22.836600
N -7.039800 -32.138100 -27.766900
C -6.984000 -31.513700 -26.661800
H -6.976300 -25.924700 -25.843700
H -6.931800 -31.074600 -24.040600
H -6.926400 -22.321200 -28.635500
H -6.855900 -30.038800 -22.043700
H -6.639300 -31.906100 -25.921200
C -5.811300 -23.977000 -27.001100
N -5.650400 -24.376800 -25.782200
H -5.032600 -23.269500 -28.654900
N -4.845300 -23.416800 -27.747500
H -4.330100 -24.174000 -24.389600
O -4.280000 -24.200200 -25.383800
H -4.130500 -23.240300 -27.394700
38
Fragment
H -15.847100 -35.115700 -30.768100
O -15.697700 -34.155800 -32.779000
H -15.647600 -34.182000 -33.773200
N -15.132400 -34.939200 -30.415300
H -14.945000 -35.086500 -29.507900
N -14.327300 -33.979200 -32.380600
C -14.166400 -34.379000 -31.161700
H -13.338400 -26.449900 -32.241600
H -13.121700 -28.317200 -36.119100
H -13.051300 -36.034800 -29.527300
H -13.045800 -27.281400 -34.122200
H -13.001300 -32.431300 -32.319100
C -12.993700 -26.842300 -31.501000
N -12.937900 -26.217900 -30.395900
C -12.892800 -28.800100 -35.326100
C -12.870000 -28.127600 -34.139600
C -12.829300 -34.259300 -30.532700
H -12.695900 -30.549400 -36.177200
C -12.645800 -30.154000 -35.368800
N -12.604600 -28.120300 -31.714600
C -12.594800 -28.782600 -32.940500
H -12.496700 -26.581200 -28.732400
C -12.425300 -35.248500 -29.637800
O -12.395000 -27.048000 -29.394900
C -12.361700 -30.816300 -34.203600
C -12.324800 -30.161300 -32.977100
H -12.324000 -28.550700 -30.962000
N -12.317800 -32.199400 -31.721400
H -12.180900 -31.687300 -34.199700
C -11.960600 -33.184100 -30.777400
C -11.924300 -30.901000 -31.745600
O -11.274200 -30.372700 -30.845100
C -11.220800 -35.168200 -28.972800
H -10.974200 -35.874400 -28.364000
C -10.726200 -33.137500 -30.128300
C -10.375300 -34.116400 -29.222900
H -10.145200 -32.416800 -30.322200
H -9.478400 -34.167400 -28.790600
76
Fragment
H -10.499300 -24.188600 -29.372200
H -9.832500 -25.939200 -27.840600
C -9.602400 -24.239600 -28.939900
C -9.251500 -25.218500 -28.034500
H -9.003500 -22.481600 -29.798700
C -8.756800 -23.187800 -29.190000
O -8.703500 -27.983300 -27.317700
C -8.053400 -27.455000 -26.417100
C -8.017100 -25.171900 -27.385400
H -7.796800 -26.668700 -23.963100
N -7.659900 -26.156600 -26.441400
H -7.653600 -29.805300 -27.200800
C -7.652900 -28.194700 -25.185600
C -7.615900 -27.539700 -23.959200
O -7.582700 -31.308000 -28.767900
C -7.552400 -23.107500 -28.525000
H -7.481000 -31.774800 -29.430400
C -7.382900 -29.573400 -25.222300
N -7.373100 -30.235700 -26.448200
C -7.331900 -28.202000 -22.794000
H -7.281700 -27.806600 -21.985500
C -7.148400 -24.096700 -27.630000
C -7.107700 -30.228400 -24.023200
C -7.084900 -29.555900 -22.836600
N -7.039800 -32.138100 -27.766900
C -6.984000 -31.513700 -26.661800
H -6.976300 -25.924700 -25.843700
H -6.931800 -31.074600 -24.040600
H -6.926400 -22.321200 -28.635500
H -6.855900 -30.038800 -22.043700
H -6.639300 -31.906100 -25.921200
C -5.811300 -23.977000 -27.001100
N -5.650400 -24.376800 -25.782200
H -5.032600 -23.269500 -28.654900
N -4.845300 -23.416800 -27.747500
H -4.330100 -24.174000 -24.389600
O -4.280000 -24.200200 -25.383800
H -4.130500 -23.240300 -27.394700
H -15.847100 -35.115700 -30.768100
O -15.697700 -34.155800 -32.779000
H -15.647600 -34.182000 -33.773200
N -15.132400 -34.939200 -30.415300
H -14.945000 -35.086500 -29.507900
N -14.327300 -33.979200 -32.380600
C -14.166400 -34.379000 -31.161700
H -13.338400 -26.449900 -32.241600
H -13.121700 -28.317200 -36.119100
H -13.051300 -36.034800 -29.527300
H -13.045800 -27.281400 -34.122200
H -13.001300 -32.431300 -32.319100
C -12.993700 -26.842300 -31.501000
N -12.937900 -26.217900 -30.395900
C -12.892800 -28.800100 -35.326100
C -12.870000 -28.127600 -34.139600
C -12.829300 -34.259300 -30.532700
H -12.695900 -30.549400 -36.177200
C -12.645800 -30.154000 -35.368800
N -12.604600 -28.120300 -31.714600
C -12.594800 -28.782600 -32.940500
H -12.496700 -26.581200 -28.732400
C -12.425300 -35.248500 -29.637800
O -12.395000 -27.048000 -29.394900
C -12.361700 -30.816300 -34.203600
C -12.324800 -30.161300 -32.977100
H -12.324000 -28.550700 -30.962000
N -12.317800 -32.199400 -31.721400
H -12.180900 -31.687300 -34.199700
C -11.960600 -33.184100 -30.777400
C -11.924300 -30.901000 -31.745600
O -11.274200 -30.372700 -30.845100
C -11.220800 -35.168200 -28.972800
H -10.974200 -35.874400 -28.364000
C -10.726200 -33.137500 -30.128300
C -10.375300 -34.116400 -29.222900
H -10.145200 -32.416800 -30.322200
H -9.478400 -34.167400 -28.790600
