38
Fragment
H -10.499300 -24.188600 -29.372200
H -9.832500 -25.939200 -27.840600
C -9.602400 -24.239600 -28.939900
C -9.251500 -25.218500 -28.034500
H -9.003500 -22.481600 -29.798700
C -8.756800 -23.187800 -29.190000
O -8.703500 -27.983300 -27.317700
C -8.053400 -27.455000 -26.417100
C -8.017100 -25.171900 -27.385400
H -7.796800 -26.668700 -23.963100
N -7.659900 -26.156600 -26.441400
H -7.653600 -29.805300 -27.200800
C -7.652900 -28.194700 -25.185600
C -7.615900 -27.539700 -23.959200
O -7.582700 -31.308000 -28.767900
C -7.552400 -23.107500 -28.525000
H -7.481000 -31.774800 -29.430400
C -7.382900 -29.573400 -25.222300
N -7.373100 -30.235700 -26.448200
C -7.331900 -28.202000 -22.794000
H -7.281700 -27.806600 -21.985500
C -7.148400 -24.096700 -27.630000
C -7.107700 -30.228400 -24.023200
C -7.084900 -29.555900 -22.836600
N -7.039800 -32.138100 -27.766900
C -6.984000 -31.513700 -26.661800
H -6.976300 -25.924700 -25.843700
H -6.931800 -31.074600 -24.040600
H -6.926400 -22.321200 -28.635500
H -6.855900 -30.038800 -22.043700
H -6.639300 -31.906100 -25.921200
C -5.811300 -23.977000 -27.001100
N -5.650400 -24.376800 -25.782200
H -5.032600 -23.269500 -28.654900
N -4.845300 -23.416800 -27.747500
H -4.330100 -24.174000 -24.389600
O -4.280000 -24.200200 -25.383800
H -4.130500 -23.240300 -27.394700
38
Fragment
H -9.981600 -27.821200 -30.768100
O -9.832200 -26.861300 -32.779000
H -9.782100 -26.887500 -33.773200
N -9.266900 -27.644700 -30.415300
H -9.079500 -27.792000 -29.507900
N -8.461800 -26.684700 -32.380600
C -8.300900 -27.084500 -31.161700
H -7.472900 -19.155400 -32.241600
H -7.256200 -21.022700 -36.119100
H -7.185800 -28.740300 -29.527300
H -7.180300 -19.986900 -34.122200
H -7.135800 -25.136800 -32.319100
C -7.128200 -19.547800 -31.501000
N -7.072400 -18.923400 -30.395900
C -7.027300 -21.505600 -35.326100
C -7.004500 -20.833100 -34.139600
C -6.963800 -26.964800 -30.532700
H -6.830400 -23.254900 -36.177200
C -6.780300 -22.859500 -35.368800
N -6.739100 -20.825800 -31.714600
C -6.729300 -21.488100 -32.940500
H -6.631200 -19.286700 -28.732400
C -6.559800 -27.954000 -29.637800
O -6.529500 -19.753500 -29.394900
C -6.496200 -23.521800 -34.203600
C -6.459300 -22.866800 -32.977100
H -6.458500 -21.256200 -30.962000
N -6.452300 -24.904900 -31.721400
H -6.315400 -24.392800 -34.199700
C -6.095100 -25.889600 -30.777400
C -6.058800 -23.606500 -31.745600
O -5.408700 -23.078200 -30.845100
C -5.355300 -27.873700 -28.972800
H -5.108700 -28.579900 -28.364000
C -4.860700 -25.843000 -30.128300
C -4.509800 -26.821900 -29.222900
H -4.279700 -25.122300 -30.322200
H -3.612900 -26.872900 -28.790600
76
Fragment
H -10.499300 -24.188600 -29.372200
H -9.832500 -25.939200 -27.840600
C -9.602400 -24.239600 -28.939900
C -9.251500 -25.218500 -28.034500
H -9.003500 -22.481600 -29.798700
C -8.756800 -23.187800 -29.190000
O -8.703500 -27.983300 -27.317700
C -8.053400 -27.455000 -26.417100
C -8.017100 -25.171900 -27.385400
H -7.796800 -26.668700 -23.963100
N -7.659900 -26.156600 -26.441400
H -7.653600 -29.805300 -27.200800
C -7.652900 -28.194700 -25.185600
C -7.615900 -27.539700 -23.959200
O -7.582700 -31.308000 -28.767900
C -7.552400 -23.107500 -28.525000
H -7.481000 -31.774800 -29.430400
C -7.382900 -29.573400 -25.222300
N -7.373100 -30.235700 -26.448200
C -7.331900 -28.202000 -22.794000
H -7.281700 -27.806600 -21.985500
C -7.148400 -24.096700 -27.630000
C -7.107700 -30.228400 -24.023200
C -7.084900 -29.555900 -22.836600
N -7.039800 -32.138100 -27.766900
C -6.984000 -31.513700 -26.661800
H -6.976300 -25.924700 -25.843700
H -6.931800 -31.074600 -24.040600
H -6.926400 -22.321200 -28.635500
H -6.855900 -30.038800 -22.043700
H -6.639300 -31.906100 -25.921200
C -5.811300 -23.977000 -27.001100
N -5.650400 -24.376800 -25.782200
H -5.032600 -23.269500 -28.654900
N -4.845300 -23.416800 -27.747500
H -4.330100 -24.174000 -24.389600
O -4.280000 -24.200200 -25.383800
H -4.130500 -23.240300 -27.394700
H -9.981600 -27.821200 -30.768100
O -9.832200 -26.861300 -32.779000
H -9.782100 -26.887500 -33.773200
N -9.266900 -27.644700 -30.415300
H -9.079500 -27.792000 -29.507900
N -8.461800 -26.684700 -32.380600
C -8.300900 -27.084500 -31.161700
H -7.472900 -19.155400 -32.241600
H -7.256200 -21.022700 -36.119100
H -7.185800 -28.740300 -29.527300
H -7.180300 -19.986900 -34.122200
H -7.135800 -25.136800 -32.319100
C -7.128200 -19.547800 -31.501000
N -7.072400 -18.923400 -30.395900
C -7.027300 -21.505600 -35.326100
C -7.004500 -20.833100 -34.139600
C -6.963800 -26.964800 -30.532700
H -6.830400 -23.254900 -36.177200
C -6.780300 -22.859500 -35.368800
N -6.739100 -20.825800 -31.714600
C -6.729300 -21.488100 -32.940500
H -6.631200 -19.286700 -28.732400
C -6.559800 -27.954000 -29.637800
O -6.529500 -19.753500 -29.394900
C -6.496200 -23.521800 -34.203600
C -6.459300 -22.866800 -32.977100
H -6.458500 -21.256200 -30.962000
N -6.452300 -24.904900 -31.721400
H -6.315400 -24.392800 -34.199700
C -6.095100 -25.889600 -30.777400
C -6.058800 -23.606500 -31.745600
O -5.408700 -23.078200 -30.845100
C -5.355300 -27.873700 -28.972800
H -5.108700 -28.579900 -28.364000
C -4.860700 -25.843000 -30.128300
C -4.509800 -26.821900 -29.222900
H -4.279700 -25.122300 -30.322200
H -3.612900 -26.872900 -28.790600
