38
Fragment
H -10.499300 -24.188600 -29.372200
H -9.832500 -25.939200 -27.840600
C -9.602400 -24.239600 -28.939900
C -9.251500 -25.218500 -28.034500
H -9.003500 -22.481600 -29.798700
C -8.756800 -23.187800 -29.190000
O -8.703500 -27.983300 -27.317700
C -8.053400 -27.455000 -26.417100
C -8.017100 -25.171900 -27.385400
H -7.796800 -26.668700 -23.963100
N -7.659900 -26.156600 -26.441400
H -7.653600 -29.805300 -27.200800
C -7.652900 -28.194700 -25.185600
C -7.615900 -27.539700 -23.959200
O -7.582700 -31.308000 -28.767900
C -7.552400 -23.107500 -28.525000
H -7.481000 -31.774800 -29.430400
C -7.382900 -29.573400 -25.222300
N -7.373100 -30.235700 -26.448200
C -7.331900 -28.202000 -22.794000
H -7.281700 -27.806600 -21.985500
C -7.148400 -24.096700 -27.630000
C -7.107700 -30.228400 -24.023200
C -7.084900 -29.555900 -22.836600
N -7.039800 -32.138100 -27.766900
C -6.984000 -31.513700 -26.661800
H -6.976300 -25.924700 -25.843700
H -6.931800 -31.074600 -24.040600
H -6.926400 -22.321200 -28.635500
H -6.855900 -30.038800 -22.043700
H -6.639300 -31.906100 -25.921200
C -5.811300 -23.977000 -27.001100
N -5.650400 -24.376800 -25.782200
H -5.032600 -23.269500 -28.654900
N -4.845300 -23.416800 -27.747500
H -4.330100 -24.174000 -24.389600
O -4.280000 -24.200200 -25.383800
H -4.130500 -23.240300 -27.394700
38
Fragment
H -7.169700 -26.872900 -19.678400
H -6.502800 -25.122300 -18.146800
C -6.272800 -26.821900 -19.246100
C -5.921900 -25.843000 -18.340700
H -5.673900 -28.579900 -20.104900
C -5.427200 -27.873700 -19.496200
O -5.373900 -23.078200 -17.623900
C -4.723800 -23.606500 -16.723300
C -4.687500 -25.889600 -17.691600
H -4.467100 -24.392800 -14.269300
N -4.330300 -24.904900 -16.747600
H -4.324000 -21.256200 -17.507000
C -4.323300 -22.866800 -15.491800
C -4.286300 -23.521800 -14.265400
O -4.253100 -19.753500 -19.074100
C -4.222800 -27.954000 -18.831200
H -4.151300 -19.286700 -19.736600
C -4.053300 -21.488100 -15.528500
N -4.043500 -20.825800 -16.754400
C -4.002200 -22.859500 -13.100200
H -3.952100 -23.254900 -12.291700
C -3.818700 -26.964800 -17.936200
C -3.778100 -20.833100 -14.329400
C -3.755300 -21.505600 -13.142800
N -3.710200 -18.923400 -18.073100
C -3.654400 -19.547800 -16.968000
H -3.646700 -25.136800 -16.149900
H -3.602200 -19.986900 -14.346800
H -3.596800 -28.740300 -18.941700
H -3.526300 -21.022700 -12.349900
H -3.309700 -19.155400 -16.227400
C -2.481700 -27.084500 -17.307300
N -2.320800 -26.684700 -16.088400
H -1.703000 -27.792000 -18.961100
N -1.515700 -27.644700 -18.053700
H -1.000500 -26.887500 -14.695800
O -0.950400 -26.861300 -15.690000
H -0.800900 -27.821200 -17.700900
76
Fragment
H -10.499300 -24.188600 -29.372200
H -9.832500 -25.939200 -27.840600
C -9.602400 -24.239600 -28.939900
C -9.251500 -25.218500 -28.034500
H -9.003500 -22.481600 -29.798700
C -8.756800 -23.187800 -29.190000
O -8.703500 -27.983300 -27.317700
C -8.053400 -27.455000 -26.417100
C -8.017100 -25.171900 -27.385400
H -7.796800 -26.668700 -23.963100
N -7.659900 -26.156600 -26.441400
H -7.653600 -29.805300 -27.200800
C -7.652900 -28.194700 -25.185600
C -7.615900 -27.539700 -23.959200
O -7.582700 -31.308000 -28.767900
C -7.552400 -23.107500 -28.525000
H -7.481000 -31.774800 -29.430400
C -7.382900 -29.573400 -25.222300
N -7.373100 -30.235700 -26.448200
C -7.331900 -28.202000 -22.794000
H -7.281700 -27.806600 -21.985500
C -7.148400 -24.096700 -27.630000
C -7.107700 -30.228400 -24.023200
C -7.084900 -29.555900 -22.836600
N -7.039800 -32.138100 -27.766900
C -6.984000 -31.513700 -26.661800
H -6.976300 -25.924700 -25.843700
H -6.931800 -31.074600 -24.040600
H -6.926400 -22.321200 -28.635500
H -6.855900 -30.038800 -22.043700
H -6.639300 -31.906100 -25.921200
C -5.811300 -23.977000 -27.001100
N -5.650400 -24.376800 -25.782200
H -5.032600 -23.269500 -28.654900
N -4.845300 -23.416800 -27.747500
H -4.330100 -24.174000 -24.389600
O -4.280000 -24.200200 -25.383800
H -4.130500 -23.240300 -27.394700
H -7.169700 -26.872900 -19.678400
H -6.502800 -25.122300 -18.146800
C -6.272800 -26.821900 -19.246100
C -5.921900 -25.843000 -18.340700
H -5.673900 -28.579900 -20.104900
C -5.427200 -27.873700 -19.496200
O -5.373900 -23.078200 -17.623900
C -4.723800 -23.606500 -16.723300
C -4.687500 -25.889600 -17.691600
H -4.467100 -24.392800 -14.269300
N -4.330300 -24.904900 -16.747600
H -4.324000 -21.256200 -17.507000
C -4.323300 -22.866800 -15.491800
C -4.286300 -23.521800 -14.265400
O -4.253100 -19.753500 -19.074100
C -4.222800 -27.954000 -18.831200
H -4.151300 -19.286700 -19.736600
C -4.053300 -21.488100 -15.528500
N -4.043500 -20.825800 -16.754400
C -4.002200 -22.859500 -13.100200
H -3.952100 -23.254900 -12.291700
C -3.818700 -26.964800 -17.936200
C -3.778100 -20.833100 -14.329400
C -3.755300 -21.505600 -13.142800
N -3.710200 -18.923400 -18.073100
C -3.654400 -19.547800 -16.968000
H -3.646700 -25.136800 -16.149900
H -3.602200 -19.986900 -14.346800
H -3.596800 -28.740300 -18.941700
H -3.526300 -21.022700 -12.349900
H -3.309700 -19.155400 -16.227400
C -2.481700 -27.084500 -17.307300
N -2.320800 -26.684700 -16.088400
H -1.703000 -27.792000 -18.961100
N -1.515700 -27.644700 -18.053700
H -1.000500 -26.887500 -14.695800
O -0.950400 -26.861300 -15.690000
H -0.800900 -27.821200 -17.700900
