38
Fragment
H -10.499300 -24.188600 -29.372200
H -9.832500 -25.939200 -27.840600
C -9.602400 -24.239600 -28.939900
C -9.251500 -25.218500 -28.034500
H -9.003500 -22.481600 -29.798700
C -8.756800 -23.187800 -29.190000
O -8.703500 -27.983300 -27.317700
C -8.053400 -27.455000 -26.417100
C -8.017100 -25.171900 -27.385400
H -7.796800 -26.668700 -23.963100
N -7.659900 -26.156600 -26.441400
H -7.653600 -29.805300 -27.200800
C -7.652900 -28.194700 -25.185600
C -7.615900 -27.539700 -23.959200
O -7.582700 -31.308000 -28.767900
C -7.552400 -23.107500 -28.525000
H -7.481000 -31.774800 -29.430400
C -7.382900 -29.573400 -25.222300
N -7.373100 -30.235700 -26.448200
C -7.331900 -28.202000 -22.794000
H -7.281700 -27.806600 -21.985500
C -7.148400 -24.096700 -27.630000
C -7.107700 -30.228400 -24.023200
C -7.084900 -29.555900 -22.836600
N -7.039800 -32.138100 -27.766900
C -6.984000 -31.513700 -26.661800
H -6.976300 -25.924700 -25.843700
H -6.931800 -31.074600 -24.040600
H -6.926400 -22.321200 -28.635500
H -6.855900 -30.038800 -22.043700
H -6.639300 -31.906100 -25.921200
C -5.811300 -23.977000 -27.001100
N -5.650400 -24.376800 -25.782200
H -5.032600 -23.269500 -28.654900
N -4.845300 -23.416800 -27.747500
H -4.330100 -24.174000 -24.389600
O -4.280000 -24.200200 -25.383800
H -4.130500 -23.240300 -27.394700
38
Fragment
H -12.517500 -15.945800 -21.074300
O -12.368000 -16.905700 -23.085200
H -12.318000 -16.879500 -24.079400
N -11.802700 -16.122300 -20.721500
H -11.615400 -15.975000 -19.814100
N -10.997700 -17.082300 -22.686800
C -10.836800 -16.682500 -21.467900
H -10.008800 -24.611600 -22.547800
H -9.792100 -22.744300 -26.425300
H -9.721700 -15.026700 -19.833500
H -9.716200 -23.780100 -24.428400
H -9.671700 -18.630200 -22.625300
C -9.664100 -24.219200 -21.807200
N -9.608200 -24.843600 -20.702100
C -9.563200 -22.261400 -25.632300
C -9.540400 -22.933900 -24.445800
C -9.499700 -16.802200 -20.838900
H -9.366300 -20.512100 -26.483400
C -9.316200 -20.907500 -25.675000
N -9.275000 -22.941200 -22.020800
C -9.265200 -22.278900 -23.246700
H -9.167100 -24.480300 -19.038600
C -9.095700 -15.813000 -19.944000
O -9.065400 -24.013500 -19.701100
C -9.032100 -20.245200 -24.509800
C -8.995200 -20.900200 -23.283300
H -8.994400 -22.510800 -21.268200
N -8.988200 -18.862100 -22.027600
H -8.851300 -19.374200 -24.505900
C -8.631000 -17.877400 -21.083600
C -8.594700 -20.160500 -22.051800
O -7.944600 -20.688800 -21.151300
C -7.891200 -15.893300 -19.279000
H -7.644600 -15.187100 -18.670300
C -7.396600 -17.924000 -20.434500
C -7.045700 -16.945100 -19.529100
H -6.815600 -18.644700 -20.628400
H -6.148800 -16.894100 -19.096800
76
Fragment
H -10.499300 -24.188600 -29.372200
H -9.832500 -25.939200 -27.840600
C -9.602400 -24.239600 -28.939900
C -9.251500 -25.218500 -28.034500
H -9.003500 -22.481600 -29.798700
C -8.756800 -23.187800 -29.190000
O -8.703500 -27.983300 -27.317700
C -8.053400 -27.455000 -26.417100
C -8.017100 -25.171900 -27.385400
H -7.796800 -26.668700 -23.963100
N -7.659900 -26.156600 -26.441400
H -7.653600 -29.805300 -27.200800
C -7.652900 -28.194700 -25.185600
C -7.615900 -27.539700 -23.959200
O -7.582700 -31.308000 -28.767900
C -7.552400 -23.107500 -28.525000
H -7.481000 -31.774800 -29.430400
C -7.382900 -29.573400 -25.222300
N -7.373100 -30.235700 -26.448200
C -7.331900 -28.202000 -22.794000
H -7.281700 -27.806600 -21.985500
C -7.148400 -24.096700 -27.630000
C -7.107700 -30.228400 -24.023200
C -7.084900 -29.555900 -22.836600
N -7.039800 -32.138100 -27.766900
C -6.984000 -31.513700 -26.661800
H -6.976300 -25.924700 -25.843700
H -6.931800 -31.074600 -24.040600
H -6.926400 -22.321200 -28.635500
H -6.855900 -30.038800 -22.043700
H -6.639300 -31.906100 -25.921200
C -5.811300 -23.977000 -27.001100
N -5.650400 -24.376800 -25.782200
H -5.032600 -23.269500 -28.654900
N -4.845300 -23.416800 -27.747500
H -4.330100 -24.174000 -24.389600
O -4.280000 -24.200200 -25.383800
H -4.130500 -23.240300 -27.394700
H -12.517500 -15.945800 -21.074300
O -12.368000 -16.905700 -23.085200
H -12.318000 -16.879500 -24.079400
N -11.802700 -16.122300 -20.721500
H -11.615400 -15.975000 -19.814100
N -10.997700 -17.082300 -22.686800
C -10.836800 -16.682500 -21.467900
H -10.008800 -24.611600 -22.547800
H -9.792100 -22.744300 -26.425300
H -9.721700 -15.026700 -19.833500
H -9.716200 -23.780100 -24.428400
H -9.671700 -18.630200 -22.625300
C -9.664100 -24.219200 -21.807200
N -9.608200 -24.843600 -20.702100
C -9.563200 -22.261400 -25.632300
C -9.540400 -22.933900 -24.445800
C -9.499700 -16.802200 -20.838900
H -9.366300 -20.512100 -26.483400
C -9.316200 -20.907500 -25.675000
N -9.275000 -22.941200 -22.020800
C -9.265200 -22.278900 -23.246700
H -9.167100 -24.480300 -19.038600
C -9.095700 -15.813000 -19.944000
O -9.065400 -24.013500 -19.701100
C -9.032100 -20.245200 -24.509800
C -8.995200 -20.900200 -23.283300
H -8.994400 -22.510800 -21.268200
N -8.988200 -18.862100 -22.027600
H -8.851300 -19.374200 -24.505900
C -8.631000 -17.877400 -21.083600
C -8.594700 -20.160500 -22.051800
O -7.944600 -20.688800 -21.151300
C -7.891200 -15.893300 -19.279000
H -7.644600 -15.187100 -18.670300
C -7.396600 -17.924000 -20.434500
C -7.045700 -16.945100 -19.529100
H -6.815600 -18.644700 -20.628400
H -6.148800 -16.894100 -19.096800
