38
Fragment
H -10.499300 -24.188600 -29.372200
H -9.832500 -25.939200 -27.840600
C -9.602400 -24.239600 -28.939900
C -9.251500 -25.218500 -28.034500
H -9.003500 -22.481600 -29.798700
C -8.756800 -23.187800 -29.190000
O -8.703500 -27.983300 -27.317700
C -8.053400 -27.455000 -26.417100
C -8.017100 -25.171900 -27.385400
H -7.796800 -26.668700 -23.963100
N -7.659900 -26.156600 -26.441400
H -7.653600 -29.805300 -27.200800
C -7.652900 -28.194700 -25.185600
C -7.615900 -27.539700 -23.959200
O -7.582700 -31.308000 -28.767900
C -7.552400 -23.107500 -28.525000
H -7.481000 -31.774800 -29.430400
C -7.382900 -29.573400 -25.222300
N -7.373100 -30.235700 -26.448200
C -7.331900 -28.202000 -22.794000
H -7.281700 -27.806600 -21.985500
C -7.148400 -24.096700 -27.630000
C -7.107700 -30.228400 -24.023200
C -7.084900 -29.555900 -22.836600
N -7.039800 -32.138100 -27.766900
C -6.984000 -31.513700 -26.661800
H -6.976300 -25.924700 -25.843700
H -6.931800 -31.074600 -24.040600
H -6.926400 -22.321200 -28.635500
H -6.855900 -30.038800 -22.043700
H -6.639300 -31.906100 -25.921200
C -5.811300 -23.977000 -27.001100
N -5.650400 -24.376800 -25.782200
H -5.032600 -23.269500 -28.654900
N -4.845300 -23.416800 -27.747500
H -4.330100 -24.174000 -24.389600
O -4.280000 -24.200200 -25.383800
H -4.130500 -23.240300 -27.394700
38
Fragment
H -13.828900 -26.872900 -39.066000
H -13.162100 -25.122300 -37.534400
C -12.932000 -26.821900 -38.633700
C -12.581100 -25.843000 -37.728300
H -12.333100 -28.579900 -39.492500
C -12.086400 -27.873700 -38.883800
O -12.033100 -23.078200 -37.011500
C -11.383000 -23.606500 -36.110900
C -11.346700 -25.889600 -37.079200
H -11.126400 -24.392800 -33.656900
N -10.989500 -24.904900 -36.135200
H -10.983200 -21.256200 -36.894600
C -10.982500 -22.866800 -34.879400
C -10.945600 -23.521800 -33.653000
O -10.912300 -19.753500 -38.461700
C -10.882000 -27.954000 -38.218800
H -10.810600 -19.286700 -39.124200
C -10.712500 -21.488100 -34.916100
N -10.702700 -20.825800 -36.142000
C -10.661500 -22.859500 -32.487800
H -10.611400 -23.254900 -31.679300
C -10.478000 -26.964800 -37.323800
C -10.437300 -20.833100 -33.717000
C -10.414500 -21.505600 -32.530400
N -10.369400 -18.923400 -37.460700
C -10.313600 -19.547800 -36.355600
H -10.305900 -25.136800 -35.537500
H -10.261400 -19.986900 -33.734400
H -10.256000 -28.740300 -38.329300
H -10.185600 -21.022700 -31.737500
H -9.968900 -19.155400 -35.615000
C -9.140900 -27.084500 -36.694900
N -8.980000 -26.684700 -35.476000
H -8.362200 -27.792000 -38.348700
N -8.174900 -27.644700 -37.441300
H -7.659700 -26.887500 -34.083400
O -7.609600 -26.861300 -35.077600
H -7.460100 -27.821200 -37.088500
76
Fragment
H -10.499300 -24.188600 -29.372200
H -9.832500 -25.939200 -27.840600
C -9.602400 -24.239600 -28.939900
C -9.251500 -25.218500 -28.034500
H -9.003500 -22.481600 -29.798700
C -8.756800 -23.187800 -29.190000
O -8.703500 -27.983300 -27.317700
C -8.053400 -27.455000 -26.417100
C -8.017100 -25.171900 -27.385400
H -7.796800 -26.668700 -23.963100
N -7.659900 -26.156600 -26.441400
H -7.653600 -29.805300 -27.200800
C -7.652900 -28.194700 -25.185600
C -7.615900 -27.539700 -23.959200
O -7.582700 -31.308000 -28.767900
C -7.552400 -23.107500 -28.525000
H -7.481000 -31.774800 -29.430400
C -7.382900 -29.573400 -25.222300
N -7.373100 -30.235700 -26.448200
C -7.331900 -28.202000 -22.794000
H -7.281700 -27.806600 -21.985500
C -7.148400 -24.096700 -27.630000
C -7.107700 -30.228400 -24.023200
C -7.084900 -29.555900 -22.836600
N -7.039800 -32.138100 -27.766900
C -6.984000 -31.513700 -26.661800
H -6.976300 -25.924700 -25.843700
H -6.931800 -31.074600 -24.040600
H -6.926400 -22.321200 -28.635500
H -6.855900 -30.038800 -22.043700
H -6.639300 -31.906100 -25.921200
C -5.811300 -23.977000 -27.001100
N -5.650400 -24.376800 -25.782200
H -5.032600 -23.269500 -28.654900
N -4.845300 -23.416800 -27.747500
H -4.330100 -24.174000 -24.389600
O -4.280000 -24.200200 -25.383800
H -4.130500 -23.240300 -27.394700
H -13.828900 -26.872900 -39.066000
H -13.162100 -25.122300 -37.534400
C -12.932000 -26.821900 -38.633700
C -12.581100 -25.843000 -37.728300
H -12.333100 -28.579900 -39.492500
C -12.086400 -27.873700 -38.883800
O -12.033100 -23.078200 -37.011500
C -11.383000 -23.606500 -36.110900
C -11.346700 -25.889600 -37.079200
H -11.126400 -24.392800 -33.656900
N -10.989500 -24.904900 -36.135200
H -10.983200 -21.256200 -36.894600
C -10.982500 -22.866800 -34.879400
C -10.945600 -23.521800 -33.653000
O -10.912300 -19.753500 -38.461700
C -10.882000 -27.954000 -38.218800
H -10.810600 -19.286700 -39.124200
C -10.712500 -21.488100 -34.916100
N -10.702700 -20.825800 -36.142000
C -10.661500 -22.859500 -32.487800
H -10.611400 -23.254900 -31.679300
C -10.478000 -26.964800 -37.323800
C -10.437300 -20.833100 -33.717000
C -10.414500 -21.505600 -32.530400
N -10.369400 -18.923400 -37.460700
C -10.313600 -19.547800 -36.355600
H -10.305900 -25.136800 -35.537500
H -10.261400 -19.986900 -33.734400
H -10.256000 -28.740300 -38.329300
H -10.185600 -21.022700 -31.737500
H -9.968900 -19.155400 -35.615000
C -9.140900 -27.084500 -36.694900
N -8.980000 -26.684700 -35.476000
H -8.362200 -27.792000 -38.348700
N -8.174900 -27.644700 -37.441300
H -7.659700 -26.887500 -34.083400
O -7.609600 -26.861300 -35.077600
H -7.460100 -27.821200 -37.088500
