32
Fragment
N -9.907300 -12.642600 -30.130000
H -9.810600 -14.505900 -30.944700
C -9.317600 -13.796200 -30.549900
H -8.977000 -11.075700 -29.271500
C -8.904900 -11.942400 -29.652300
N -8.012000 -13.857200 -30.368800
O -7.952400 -12.666600 -26.892700
N -7.757000 -12.639700 -29.785200
O -7.427100 -10.563700 -26.655400
N -7.275400 -11.679900 -27.138500
C -6.439000 -12.310500 -29.386200
O -6.233100 -12.113500 -32.391800
C -6.180900 -11.838200 -28.099600
N -5.669400 -12.898500 -31.646100
C -5.390500 -12.442500 -30.271500
O -5.301800 -14.023000 -31.949400
H -5.125600 -12.474300 -25.108200
C -4.883500 -11.498300 -27.732700
C -4.793700 -11.593400 -25.237400
N -4.623100 -10.999600 -26.430000
N -4.433600 -10.776300 -24.276100
N -4.120900 -9.738700 -26.261100
C -4.042300 -12.135100 -29.959100
C -4.031300 -9.662500 -24.946100
C -3.854500 -11.652200 -28.639300
H -3.709900 -8.887100 -24.500700
H -3.227900 -12.570800 -31.652100
N -3.054500 -12.276600 -30.841000
N -2.493200 -11.269500 -28.225300
H -2.228400 -12.075900 -30.612700
O -2.026300 -11.793300 -27.227900
O -1.925100 -10.440500 -28.916300
32
Fragment
N -8.632700 -11.013400 -39.562100
H -8.536000 -9.150100 -40.376800
C -8.043000 -9.859800 -39.982000
H -7.702400 -12.580300 -38.703600
C -7.630300 -11.713600 -39.084400
N -6.737400 -9.798800 -39.800900
O -6.677800 -10.989400 -36.324800
N -6.482400 -11.016300 -39.217200
O -6.152500 -13.092300 -36.087500
N -6.000800 -11.976100 -36.570600
C -5.164400 -11.345500 -38.818200
O -4.958500 -11.542500 -41.823900
C -4.906300 -11.817800 -37.531700
N -4.394800 -10.757500 -41.078200
C -4.115900 -11.213500 -39.703500
O -4.027200 -9.633000 -41.381500
H -3.851000 -11.181700 -34.540200
C -3.608900 -12.157700 -37.164800
C -3.519100 -12.062600 -34.669500
N -3.348500 -12.656400 -35.862000
N -3.159000 -12.879700 -33.708100
N -2.846300 -13.917300 -35.693200
C -2.767700 -11.520900 -39.391100
C -2.756700 -13.993500 -34.378200
C -2.579900 -12.003800 -38.071400
H -2.435300 -14.768900 -33.932800
H -1.953400 -11.085200 -41.084200
N -1.779900 -11.379400 -40.273000
N -1.218600 -12.386500 -37.657300
H -0.953800 -11.580100 -40.044800
O -0.751700 -11.862700 -36.660000
O -0.650500 -13.215500 -38.348300
64
Fragment
N -9.907300 -12.642600 -30.130000
H -9.810600 -14.505900 -30.944700
C -9.317600 -13.796200 -30.549900
H -8.977000 -11.075700 -29.271500
C -8.904900 -11.942400 -29.652300
N -8.012000 -13.857200 -30.368800
O -7.952400 -12.666600 -26.892700
N -7.757000 -12.639700 -29.785200
O -7.427100 -10.563700 -26.655400
N -7.275400 -11.679900 -27.138500
C -6.439000 -12.310500 -29.386200
O -6.233100 -12.113500 -32.391800
C -6.180900 -11.838200 -28.099600
N -5.669400 -12.898500 -31.646100
C -5.390500 -12.442500 -30.271500
O -5.301800 -14.023000 -31.949400
H -5.125600 -12.474300 -25.108200
C -4.883500 -11.498300 -27.732700
C -4.793700 -11.593400 -25.237400
N -4.623100 -10.999600 -26.430000
N -4.433600 -10.776300 -24.276100
N -4.120900 -9.738700 -26.261100
C -4.042300 -12.135100 -29.959100
C -4.031300 -9.662500 -24.946100
C -3.854500 -11.652200 -28.639300
H -3.709900 -8.887100 -24.500700
H -3.227900 -12.570800 -31.652100
N -3.054500 -12.276600 -30.841000
N -2.493200 -11.269500 -28.225300
H -2.228400 -12.075900 -30.612700
O -2.026300 -11.793300 -27.227900
O -1.925100 -10.440500 -28.916300
N -8.632700 -11.013400 -39.562100
H -8.536000 -9.150100 -40.376800
C -8.043000 -9.859800 -39.982000
H -7.702400 -12.580300 -38.703600
C -7.630300 -11.713600 -39.084400
N -6.737400 -9.798800 -39.800900
O -6.677800 -10.989400 -36.324800
N -6.482400 -11.016300 -39.217200
O -6.152500 -13.092300 -36.087500
N -6.000800 -11.976100 -36.570600
C -5.164400 -11.345500 -38.818200
O -4.958500 -11.542500 -41.823900
C -4.906300 -11.817800 -37.531700
N -4.394800 -10.757500 -41.078200
C -4.115900 -11.213500 -39.703500
O -4.027200 -9.633000 -41.381500
H -3.851000 -11.181700 -34.540200
C -3.608900 -12.157700 -37.164800
C -3.519100 -12.062600 -34.669500
N -3.348500 -12.656400 -35.862000
N -3.159000 -12.879700 -33.708100
N -2.846300 -13.917300 -35.693200
C -2.767700 -11.520900 -39.391100
C -2.756700 -13.993500 -34.378200
C -2.579900 -12.003800 -38.071400
H -2.435300 -14.768900 -33.932800
H -1.953400 -11.085200 -41.084200
N -1.779900 -11.379400 -40.273000
N -1.218600 -12.386500 -37.657300
H -0.953800 -11.580100 -40.044800
O -0.751700 -11.862700 -36.660000
O -0.650500 -13.215500 -38.348300
