32
Fragment
N -9.907300 -12.642600 -30.130000
H -9.810600 -14.505900 -30.944700
C -9.317600 -13.796200 -30.549900
H -8.977000 -11.075700 -29.271500
C -8.904900 -11.942400 -29.652300
N -8.012000 -13.857200 -30.368800
O -7.952400 -12.666600 -26.892700
N -7.757000 -12.639700 -29.785200
O -7.427100 -10.563700 -26.655400
N -7.275400 -11.679900 -27.138500
C -6.439000 -12.310500 -29.386200
O -6.233100 -12.113500 -32.391800
C -6.180900 -11.838200 -28.099600
N -5.669400 -12.898500 -31.646100
C -5.390500 -12.442500 -30.271500
O -5.301800 -14.023000 -31.949400
H -5.125600 -12.474300 -25.108200
C -4.883500 -11.498300 -27.732700
C -4.793700 -11.593400 -25.237400
N -4.623100 -10.999600 -26.430000
N -4.433600 -10.776300 -24.276100
N -4.120900 -9.738700 -26.261100
C -4.042300 -12.135100 -29.959100
C -4.031300 -9.662500 -24.946100
C -3.854500 -11.652200 -28.639300
H -3.709900 -8.887100 -24.500700
H -3.227900 -12.570800 -31.652100
N -3.054500 -12.276600 -30.841000
N -2.493200 -11.269500 -28.225300
H -2.228400 -12.075900 -30.612700
O -2.026300 -11.793300 -27.227900
O -1.925100 -10.440500 -28.916300
32
Fragment
N -19.576500 -12.642600 -30.130000
H -19.479800 -14.505900 -30.944700
C -18.986800 -13.796200 -30.549900
H -18.646200 -11.075700 -29.271500
C -18.574100 -11.942400 -29.652300
N -17.681200 -13.857200 -30.368800
O -17.621600 -12.666600 -26.892700
N -17.426200 -12.639700 -29.785200
O -17.096300 -10.563700 -26.655400
N -16.944600 -11.679900 -27.138500
C -16.108200 -12.310500 -29.386200
O -15.902300 -12.113500 -32.391800
C -15.850100 -11.838200 -28.099600
N -15.338600 -12.898500 -31.646100
C -15.059700 -12.442500 -30.271500
O -14.971000 -14.023000 -31.949400
H -14.794800 -12.474300 -25.108200
C -14.552700 -11.498300 -27.732700
C -14.462900 -11.593400 -25.237400
N -14.292300 -10.999600 -26.430000
N -14.102800 -10.776300 -24.276100
N -13.790100 -9.738700 -26.261100
C -13.711500 -12.135100 -29.959100
C -13.700500 -9.662500 -24.946100
C -13.523700 -11.652200 -28.639300
H -13.379100 -8.887100 -24.500700
H -12.897100 -12.570800 -31.652100
N -12.723700 -12.276600 -30.841000
N -12.162400 -11.269500 -28.225300
H -11.897600 -12.075900 -30.612700
O -11.695500 -11.793300 -27.227900
O -11.594300 -10.440500 -28.916300
64
Fragment
N -9.907300 -12.642600 -30.130000
H -9.810600 -14.505900 -30.944700
C -9.317600 -13.796200 -30.549900
H -8.977000 -11.075700 -29.271500
C -8.904900 -11.942400 -29.652300
N -8.012000 -13.857200 -30.368800
O -7.952400 -12.666600 -26.892700
N -7.757000 -12.639700 -29.785200
O -7.427100 -10.563700 -26.655400
N -7.275400 -11.679900 -27.138500
C -6.439000 -12.310500 -29.386200
O -6.233100 -12.113500 -32.391800
C -6.180900 -11.838200 -28.099600
N -5.669400 -12.898500 -31.646100
C -5.390500 -12.442500 -30.271500
O -5.301800 -14.023000 -31.949400
H -5.125600 -12.474300 -25.108200
C -4.883500 -11.498300 -27.732700
C -4.793700 -11.593400 -25.237400
N -4.623100 -10.999600 -26.430000
N -4.433600 -10.776300 -24.276100
N -4.120900 -9.738700 -26.261100
C -4.042300 -12.135100 -29.959100
C -4.031300 -9.662500 -24.946100
C -3.854500 -11.652200 -28.639300
H -3.709900 -8.887100 -24.500700
H -3.227900 -12.570800 -31.652100
N -3.054500 -12.276600 -30.841000
N -2.493200 -11.269500 -28.225300
H -2.228400 -12.075900 -30.612700
O -2.026300 -11.793300 -27.227900
O -1.925100 -10.440500 -28.916300
N -19.576500 -12.642600 -30.130000
H -19.479800 -14.505900 -30.944700
C -18.986800 -13.796200 -30.549900
H -18.646200 -11.075700 -29.271500
C -18.574100 -11.942400 -29.652300
N -17.681200 -13.857200 -30.368800
O -17.621600 -12.666600 -26.892700
N -17.426200 -12.639700 -29.785200
O -17.096300 -10.563700 -26.655400
N -16.944600 -11.679900 -27.138500
C -16.108200 -12.310500 -29.386200
O -15.902300 -12.113500 -32.391800
C -15.850100 -11.838200 -28.099600
N -15.338600 -12.898500 -31.646100
C -15.059700 -12.442500 -30.271500
O -14.971000 -14.023000 -31.949400
H -14.794800 -12.474300 -25.108200
C -14.552700 -11.498300 -27.732700
C -14.462900 -11.593400 -25.237400
N -14.292300 -10.999600 -26.430000
N -14.102800 -10.776300 -24.276100
N -13.790100 -9.738700 -26.261100
C -13.711500 -12.135100 -29.959100
C -13.700500 -9.662500 -24.946100
C -13.523700 -11.652200 -28.639300
H -13.379100 -8.887100 -24.500700
H -12.897100 -12.570800 -31.652100
N -12.723700 -12.276600 -30.841000
N -12.162400 -11.269500 -28.225300
H -11.897600 -12.075900 -30.612700
O -11.695500 -11.793300 -27.227900
O -11.594300 -10.440500 -28.916300
