50
Fragment
H -34.025700 -7.281900 -14.028800
H -33.226700 -5.323500 -14.526100
C -33.192200 -7.717900 -13.753100
H -33.175600 -7.803900 -12.777100
H -33.139100 -8.607400 -14.160800
H -32.366900 -5.769800 -15.800900
C -32.352800 -5.648700 -14.828500
N -32.060000 -6.917300 -14.187500
H -31.660500 -4.995900 -14.592100
H -31.246400 -9.111900 -13.062400
C -30.790700 -7.432600 -14.151900
C -30.532800 -8.657700 -13.496700
H -29.838600 -5.939300 -15.203500
C -29.699500 -6.767100 -14.758100
C -29.272700 -9.206300 -13.473700
H -29.132200 -10.041400 -13.043100
C -28.426000 -7.319400 -14.704800
C -28.191200 -8.549900 -14.079200
H -27.699900 -6.853100 -15.101300
N -26.874200 -9.036800 -14.065200
N -26.773800 -10.235800 -13.619700
H -25.622200 -12.688300 -12.935700
C -25.470200 -10.678400 -13.529300
C -25.057600 -11.955000 -13.152100
N -24.358000 -9.912400 -13.762800
H -24.358000 -9.107600 -13.999900
C -23.658400 -11.955000 -13.152100
C -23.245800 -10.678400 -13.529300
H -23.093800 -12.688300 -12.935700
N -21.942200 -10.235800 -13.619700
N -21.841800 -9.036800 -14.065200
H -21.016100 -6.853100 -15.101300
C -20.524800 -8.549900 -14.079200
C -20.290000 -7.319400 -14.704800
H -19.583800 -10.041400 -13.043100
C -19.443300 -9.206300 -13.473700
C -19.016500 -6.767100 -14.758100
H -18.877500 -5.939300 -15.203500
C -18.183200 -8.657700 -13.496700
C -17.925300 -7.432600 -14.151900
H -17.469600 -9.111900 -13.062400
H -17.055500 -4.995900 -14.592100
N -16.656000 -6.917300 -14.187500
C -16.363200 -5.648700 -14.828500
H -16.349100 -5.769800 -15.800900
H -15.576900 -8.607400 -14.160800
H -15.540400 -7.803900 -12.777100
C -15.523800 -7.717900 -13.753100
H -15.489300 -5.323500 -14.526100
H -14.690300 -7.281900 -14.028800
50
Fragment
H -34.025700 -1.226300 -14.028800
H -33.226700 0.732100 -14.526100
C -33.192200 -1.662300 -13.753100
H -33.175600 -1.748300 -12.777100
H -33.139100 -2.551800 -14.160800
H -32.366900 0.285800 -15.800900
C -32.352800 0.406900 -14.828500
N -32.060000 -0.861700 -14.187500
H -31.660500 1.059700 -14.592100
H -31.246400 -3.056300 -13.062400
C -30.790700 -1.377000 -14.151900
C -30.532800 -2.602100 -13.496700
H -29.838600 0.116300 -15.203500
C -29.699500 -0.711500 -14.758100
C -29.272700 -3.150700 -13.473700
H -29.132200 -3.985800 -13.043100
C -28.426000 -1.263800 -14.704800
C -28.191200 -2.494300 -14.079200
H -27.699900 -0.797500 -15.101300
N -26.874200 -2.981200 -14.065200
N -26.773800 -4.180200 -13.619700
H -25.622200 -6.632700 -12.935700
C -25.470200 -4.622800 -13.529300
C -25.057600 -5.899400 -13.152100
N -24.358000 -3.856800 -13.762800
H -24.358000 -3.052000 -13.999900
C -23.658400 -5.899400 -13.152100
C -23.245800 -4.622800 -13.529300
H -23.093800 -6.632700 -12.935700
N -21.942200 -4.180200 -13.619700
N -21.841800 -2.981200 -14.065200
H -21.016100 -0.797500 -15.101300
C -20.524800 -2.494300 -14.079200
C -20.290000 -1.263800 -14.704800
H -19.583800 -3.985800 -13.043100
C -19.443300 -3.150700 -13.473700
C -19.016500 -0.711500 -14.758100
H -18.877500 0.116300 -15.203500
C -18.183200 -2.602100 -13.496700
C -17.925300 -1.377000 -14.151900
H -17.469600 -3.056300 -13.062400
H -17.055500 1.059700 -14.592100
N -16.656000 -0.861700 -14.187500
C -16.363200 0.406900 -14.828500
H -16.349100 0.285800 -15.800900
H -15.576900 -2.551800 -14.160800
H -15.540400 -1.748300 -12.777100
C -15.523800 -1.662300 -13.753100
H -15.489300 0.732100 -14.526100
H -14.690300 -1.226300 -14.028800
100
Fragment
H -34.025700 -7.281900 -14.028800
H -33.226700 -5.323500 -14.526100
C -33.192200 -7.717900 -13.753100
H -33.175600 -7.803900 -12.777100
H -33.139100 -8.607400 -14.160800
H -32.366900 -5.769800 -15.800900
C -32.352800 -5.648700 -14.828500
N -32.060000 -6.917300 -14.187500
H -31.660500 -4.995900 -14.592100
H -31.246400 -9.111900 -13.062400
C -30.790700 -7.432600 -14.151900
C -30.532800 -8.657700 -13.496700
H -29.838600 -5.939300 -15.203500
C -29.699500 -6.767100 -14.758100
C -29.272700 -9.206300 -13.473700
H -29.132200 -10.041400 -13.043100
C -28.426000 -7.319400 -14.704800
C -28.191200 -8.549900 -14.079200
H -27.699900 -6.853100 -15.101300
N -26.874200 -9.036800 -14.065200
N -26.773800 -10.235800 -13.619700
H -25.622200 -12.688300 -12.935700
C -25.470200 -10.678400 -13.529300
C -25.057600 -11.955000 -13.152100
N -24.358000 -9.912400 -13.762800
H -24.358000 -9.107600 -13.999900
C -23.658400 -11.955000 -13.152100
C -23.245800 -10.678400 -13.529300
H -23.093800 -12.688300 -12.935700
N -21.942200 -10.235800 -13.619700
N -21.841800 -9.036800 -14.065200
H -21.016100 -6.853100 -15.101300
C -20.524800 -8.549900 -14.079200
C -20.290000 -7.319400 -14.704800
H -19.583800 -10.041400 -13.043100
C -19.443300 -9.206300 -13.473700
C -19.016500 -6.767100 -14.758100
H -18.877500 -5.939300 -15.203500
C -18.183200 -8.657700 -13.496700
C -17.925300 -7.432600 -14.151900
H -17.469600 -9.111900 -13.062400
H -17.055500 -4.995900 -14.592100
N -16.656000 -6.917300 -14.187500
C -16.363200 -5.648700 -14.828500
H -16.349100 -5.769800 -15.800900
H -15.576900 -8.607400 -14.160800
H -15.540400 -7.803900 -12.777100
C -15.523800 -7.717900 -13.753100
H -15.489300 -5.323500 -14.526100
H -14.690300 -7.281900 -14.028800
H -34.025700 -1.226300 -14.028800
H -33.226700 0.732100 -14.526100
C -33.192200 -1.662300 -13.753100
H -33.175600 -1.748300 -12.777100
H -33.139100 -2.551800 -14.160800
H -32.366900 0.285800 -15.800900
C -32.352800 0.406900 -14.828500
N -32.060000 -0.861700 -14.187500
H -31.660500 1.059700 -14.592100
H -31.246400 -3.056300 -13.062400
C -30.790700 -1.377000 -14.151900
C -30.532800 -2.602100 -13.496700
H -29.838600 0.116300 -15.203500
C -29.699500 -0.711500 -14.758100
C -29.272700 -3.150700 -13.473700
H -29.132200 -3.985800 -13.043100
C -28.426000 -1.263800 -14.704800
C -28.191200 -2.494300 -14.079200
H -27.699900 -0.797500 -15.101300
N -26.874200 -2.981200 -14.065200
N -26.773800 -4.180200 -13.619700
H -25.622200 -6.632700 -12.935700
C -25.470200 -4.622800 -13.529300
C -25.057600 -5.899400 -13.152100
N -24.358000 -3.856800 -13.762800
H -24.358000 -3.052000 -13.999900
C -23.658400 -5.899400 -13.152100
C -23.245800 -4.622800 -13.529300
H -23.093800 -6.632700 -12.935700
N -21.942200 -4.180200 -13.619700
N -21.841800 -2.981200 -14.065200
H -21.016100 -0.797500 -15.101300
C -20.524800 -2.494300 -14.079200
C -20.290000 -1.263800 -14.704800
H -19.583800 -3.985800 -13.043100
C -19.443300 -3.150700 -13.473700
C -19.016500 -0.711500 -14.758100
H -18.877500 0.116300 -15.203500
C -18.183200 -2.602100 -13.496700
C -17.925300 -1.377000 -14.151900
H -17.469600 -3.056300 -13.062400
H -17.055500 1.059700 -14.592100
N -16.656000 -0.861700 -14.187500
C -16.363200 0.406900 -14.828500
H -16.349100 0.285800 -15.800900
H -15.576900 -2.551800 -14.160800
H -15.540400 -1.748300 -12.777100
C -15.523800 -1.662300 -13.753100
H -15.489300 0.732100 -14.526100
H -14.690300 -1.226300 -14.028800
