50
Fragment
H -34.025700 -7.281900 -14.028800
H -33.226700 -5.323500 -14.526100
C -33.192200 -7.717900 -13.753100
H -33.175600 -7.803900 -12.777100
H -33.139100 -8.607400 -14.160800
H -32.366900 -5.769800 -15.800900
C -32.352800 -5.648700 -14.828500
N -32.060000 -6.917300 -14.187500
H -31.660500 -4.995900 -14.592100
H -31.246400 -9.111900 -13.062400
C -30.790700 -7.432600 -14.151900
C -30.532800 -8.657700 -13.496700
H -29.838600 -5.939300 -15.203500
C -29.699500 -6.767100 -14.758100
C -29.272700 -9.206300 -13.473700
H -29.132200 -10.041400 -13.043100
C -28.426000 -7.319400 -14.704800
C -28.191200 -8.549900 -14.079200
H -27.699900 -6.853100 -15.101300
N -26.874200 -9.036800 -14.065200
N -26.773800 -10.235800 -13.619700
H -25.622200 -12.688300 -12.935700
C -25.470200 -10.678400 -13.529300
C -25.057600 -11.955000 -13.152100
N -24.358000 -9.912400 -13.762800
H -24.358000 -9.107600 -13.999900
C -23.658400 -11.955000 -13.152100
C -23.245800 -10.678400 -13.529300
H -23.093800 -12.688300 -12.935700
N -21.942200 -10.235800 -13.619700
N -21.841800 -9.036800 -14.065200
H -21.016100 -6.853100 -15.101300
C -20.524800 -8.549900 -14.079200
C -20.290000 -7.319400 -14.704800
H -19.583800 -10.041400 -13.043100
C -19.443300 -9.206300 -13.473700
C -19.016500 -6.767100 -14.758100
H -18.877500 -5.939300 -15.203500
C -18.183200 -8.657700 -13.496700
C -17.925300 -7.432600 -14.151900
H -17.469600 -9.111900 -13.062400
H -17.055500 -4.995900 -14.592100
N -16.656000 -6.917300 -14.187500
C -16.363200 -5.648700 -14.828500
H -16.349100 -5.769800 -15.800900
H -15.576900 -8.607400 -14.160800
H -15.540400 -7.803900 -12.777100
C -15.523800 -7.717900 -13.753100
H -15.489300 -5.323500 -14.526100
H -14.690300 -7.281900 -14.028800
50
Fragment
H -46.204700 -4.829300 -17.734500
H -45.405700 -6.787700 -18.231800
C -45.371200 -4.393300 -17.458800
H -45.354600 -4.307300 -16.482700
H -45.318100 -3.503800 -17.866400
H -44.545900 -6.341400 -19.506500
C -44.531800 -6.462500 -18.534200
N -44.239000 -5.193900 -17.893100
H -43.839500 -7.115300 -18.297800
H -43.425400 -2.999300 -16.768100
C -42.969700 -4.678600 -17.857500
C -42.711800 -3.453500 -17.202400
H -42.017600 -6.171900 -18.909200
C -41.878500 -5.344100 -18.463800
C -41.451700 -2.904900 -17.179400
H -41.311200 -2.069800 -16.748800
C -40.605000 -4.791800 -18.410400
C -40.370200 -3.561300 -17.784900
H -39.878900 -5.258100 -18.806900
N -39.053200 -3.074400 -17.770800
N -38.952800 -1.875400 -17.325400
H -37.801200 0.577100 -16.641300
C -37.649200 -1.432800 -17.235000
C -37.236600 -0.156200 -16.857700
H -36.537000 -3.003600 -17.705600
N -36.537000 -2.198800 -17.468400
C -35.837400 -0.156200 -16.857700
C -35.424800 -1.432800 -17.235000
H -35.272800 0.577100 -16.641300
N -34.121200 -1.875400 -17.325400
N -34.020800 -3.074400 -17.770800
H -33.195100 -5.258100 -18.806900
C -32.703800 -3.561300 -17.784900
C -32.469000 -4.791800 -18.410400
H -31.762800 -2.069800 -16.748800
C -31.622300 -2.904900 -17.179400
C -31.195500 -5.344100 -18.463800
H -31.056500 -6.171900 -18.909200
C -30.362200 -3.453500 -17.202400
C -30.104300 -4.678600 -17.857500
H -29.648600 -2.999300 -16.768100
H -29.234500 -7.115300 -18.297800
N -28.835000 -5.193900 -17.893100
C -28.542200 -6.462500 -18.534200
H -28.528100 -6.341400 -19.506500
H -27.755900 -3.503800 -17.866400
H -27.719400 -4.307300 -16.482700
C -27.702800 -4.393300 -17.458800
H -27.668300 -6.787700 -18.231800
H -26.869300 -4.829300 -17.734500
100
Fragment
H -34.025700 -7.281900 -14.028800
H -33.226700 -5.323500 -14.526100
C -33.192200 -7.717900 -13.753100
H -33.175600 -7.803900 -12.777100
H -33.139100 -8.607400 -14.160800
H -32.366900 -5.769800 -15.800900
C -32.352800 -5.648700 -14.828500
N -32.060000 -6.917300 -14.187500
H -31.660500 -4.995900 -14.592100
H -31.246400 -9.111900 -13.062400
C -30.790700 -7.432600 -14.151900
C -30.532800 -8.657700 -13.496700
H -29.838600 -5.939300 -15.203500
C -29.699500 -6.767100 -14.758100
C -29.272700 -9.206300 -13.473700
H -29.132200 -10.041400 -13.043100
C -28.426000 -7.319400 -14.704800
C -28.191200 -8.549900 -14.079200
H -27.699900 -6.853100 -15.101300
N -26.874200 -9.036800 -14.065200
N -26.773800 -10.235800 -13.619700
H -25.622200 -12.688300 -12.935700
C -25.470200 -10.678400 -13.529300
C -25.057600 -11.955000 -13.152100
N -24.358000 -9.912400 -13.762800
H -24.358000 -9.107600 -13.999900
C -23.658400 -11.955000 -13.152100
C -23.245800 -10.678400 -13.529300
H -23.093800 -12.688300 -12.935700
N -21.942200 -10.235800 -13.619700
N -21.841800 -9.036800 -14.065200
H -21.016100 -6.853100 -15.101300
C -20.524800 -8.549900 -14.079200
C -20.290000 -7.319400 -14.704800
H -19.583800 -10.041400 -13.043100
C -19.443300 -9.206300 -13.473700
C -19.016500 -6.767100 -14.758100
H -18.877500 -5.939300 -15.203500
C -18.183200 -8.657700 -13.496700
C -17.925300 -7.432600 -14.151900
H -17.469600 -9.111900 -13.062400
H -17.055500 -4.995900 -14.592100
N -16.656000 -6.917300 -14.187500
C -16.363200 -5.648700 -14.828500
H -16.349100 -5.769800 -15.800900
H -15.576900 -8.607400 -14.160800
H -15.540400 -7.803900 -12.777100
C -15.523800 -7.717900 -13.753100
H -15.489300 -5.323500 -14.526100
H -14.690300 -7.281900 -14.028800
H -46.204700 -4.829300 -17.734500
H -45.405700 -6.787700 -18.231800
C -45.371200 -4.393300 -17.458800
H -45.354600 -4.307300 -16.482700
H -45.318100 -3.503800 -17.866400
H -44.545900 -6.341400 -19.506500
C -44.531800 -6.462500 -18.534200
N -44.239000 -5.193900 -17.893100
H -43.839500 -7.115300 -18.297800
H -43.425400 -2.999300 -16.768100
C -42.969700 -4.678600 -17.857500
C -42.711800 -3.453500 -17.202400
H -42.017600 -6.171900 -18.909200
C -41.878500 -5.344100 -18.463800
C -41.451700 -2.904900 -17.179400
H -41.311200 -2.069800 -16.748800
C -40.605000 -4.791800 -18.410400
C -40.370200 -3.561300 -17.784900
H -39.878900 -5.258100 -18.806900
N -39.053200 -3.074400 -17.770800
N -38.952800 -1.875400 -17.325400
H -37.801200 0.577100 -16.641300
C -37.649200 -1.432800 -17.235000
C -37.236600 -0.156200 -16.857700
H -36.537000 -3.003600 -17.705600
N -36.537000 -2.198800 -17.468400
C -35.837400 -0.156200 -16.857700
C -35.424800 -1.432800 -17.235000
H -35.272800 0.577100 -16.641300
N -34.121200 -1.875400 -17.325400
N -34.020800 -3.074400 -17.770800
H -33.195100 -5.258100 -18.806900
C -32.703800 -3.561300 -17.784900
C -32.469000 -4.791800 -18.410400
H -31.762800 -2.069800 -16.748800
C -31.622300 -2.904900 -17.179400
C -31.195500 -5.344100 -18.463800
H -31.056500 -6.171900 -18.909200
C -30.362200 -3.453500 -17.202400
C -30.104300 -4.678600 -17.857500
H -29.648600 -2.999300 -16.768100
H -29.234500 -7.115300 -18.297800
N -28.835000 -5.193900 -17.893100
C -28.542200 -6.462500 -18.534200
H -28.528100 -6.341400 -19.506500
H -27.755900 -3.503800 -17.866400
H -27.719400 -4.307300 -16.482700
C -27.702800 -4.393300 -17.458800
H -27.668300 -6.787700 -18.231800
H -26.869300 -4.829300 -17.734500
