50
Fragment
H -34.025700 -7.281900 -14.028800
H -33.226700 -5.323500 -14.526100
C -33.192200 -7.717900 -13.753100
H -33.175600 -7.803900 -12.777100
H -33.139100 -8.607400 -14.160800
H -32.366900 -5.769800 -15.800900
C -32.352800 -5.648700 -14.828500
N -32.060000 -6.917300 -14.187500
H -31.660500 -4.995900 -14.592100
H -31.246400 -9.111900 -13.062400
C -30.790700 -7.432600 -14.151900
C -30.532800 -8.657700 -13.496700
H -29.838600 -5.939300 -15.203500
C -29.699500 -6.767100 -14.758100
C -29.272700 -9.206300 -13.473700
H -29.132200 -10.041400 -13.043100
C -28.426000 -7.319400 -14.704800
C -28.191200 -8.549900 -14.079200
H -27.699900 -6.853100 -15.101300
N -26.874200 -9.036800 -14.065200
N -26.773800 -10.235800 -13.619700
H -25.622200 -12.688300 -12.935700
C -25.470200 -10.678400 -13.529300
C -25.057600 -11.955000 -13.152100
N -24.358000 -9.912400 -13.762800
H -24.358000 -9.107600 -13.999900
C -23.658400 -11.955000 -13.152100
C -23.245800 -10.678400 -13.529300
H -23.093800 -12.688300 -12.935700
N -21.942200 -10.235800 -13.619700
N -21.841800 -9.036800 -14.065200
H -21.016100 -6.853100 -15.101300
C -20.524800 -8.549900 -14.079200
C -20.290000 -7.319400 -14.704800
H -19.583800 -10.041400 -13.043100
C -19.443300 -9.206300 -13.473700
C -19.016500 -6.767100 -14.758100
H -18.877500 -5.939300 -15.203500
C -18.183200 -8.657700 -13.496700
C -17.925300 -7.432600 -14.151900
H -17.469600 -9.111900 -13.062400
H -17.055500 -4.995900 -14.592100
N -16.656000 -6.917300 -14.187500
C -16.363200 -5.648700 -14.828500
H -16.349100 -5.769800 -15.800900
H -15.576900 -8.607400 -14.160800
H -15.540400 -7.803900 -12.777100
C -15.523800 -7.717900 -13.753100
H -15.489300 -5.323500 -14.526100
H -14.690300 -7.281900 -14.028800
50
Fragment
H -46.204700 -10.884900 -10.323200
H -45.405700 -12.843300 -10.820500
C -45.371200 -10.448900 -10.047500
H -45.354600 -10.362900 -9.071400
H -45.318100 -9.559400 -10.455100
H -44.545900 -12.397000 -12.095200
C -44.531800 -12.518100 -11.122900
N -44.239000 -11.249500 -10.481800
H -43.839500 -13.170900 -10.886500
H -43.425400 -9.054900 -9.356800
C -42.969700 -10.734200 -10.446200
C -42.711800 -9.509100 -9.791100
H -42.017600 -12.227500 -11.497900
C -41.878500 -11.399700 -11.052500
C -41.451700 -8.960500 -9.768100
H -41.311200 -8.125400 -9.337500
C -40.605000 -10.847400 -10.999100
C -40.370200 -9.616900 -10.373600
H -39.878900 -11.313700 -11.395600
N -39.053200 -9.130000 -10.359500
N -38.952800 -7.931000 -9.914100
H -37.801200 -5.478500 -9.230000
C -37.649200 -7.488400 -9.823700
C -37.236600 -6.211800 -9.446400
H -36.537000 -9.059200 -10.294300
N -36.537000 -8.254400 -10.057100
C -35.837400 -6.211800 -9.446400
C -35.424800 -7.488400 -9.823700
H -35.272800 -5.478500 -9.230000
N -34.121200 -7.931000 -9.914100
N -34.020800 -9.130000 -10.359500
H -33.195100 -11.313700 -11.395600
C -32.703800 -9.616900 -10.373600
C -32.469000 -10.847400 -10.999100
H -31.762800 -8.125400 -9.337500
C -31.622300 -8.960500 -9.768100
C -31.195500 -11.399700 -11.052500
H -31.056500 -12.227500 -11.497900
C -30.362200 -9.509100 -9.791100
C -30.104300 -10.734200 -10.446200
H -29.648600 -9.054900 -9.356800
H -29.234500 -13.170900 -10.886500
N -28.835000 -11.249500 -10.481800
C -28.542200 -12.518100 -11.122900
H -28.528100 -12.397000 -12.095200
H -27.755900 -9.559400 -10.455100
H -27.719400 -10.362900 -9.071400
C -27.702800 -10.448900 -10.047500
H -27.668300 -12.843300 -10.820500
H -26.869300 -10.884900 -10.323200
100
Fragment
H -34.025700 -7.281900 -14.028800
H -33.226700 -5.323500 -14.526100
C -33.192200 -7.717900 -13.753100
H -33.175600 -7.803900 -12.777100
H -33.139100 -8.607400 -14.160800
H -32.366900 -5.769800 -15.800900
C -32.352800 -5.648700 -14.828500
N -32.060000 -6.917300 -14.187500
H -31.660500 -4.995900 -14.592100
H -31.246400 -9.111900 -13.062400
C -30.790700 -7.432600 -14.151900
C -30.532800 -8.657700 -13.496700
H -29.838600 -5.939300 -15.203500
C -29.699500 -6.767100 -14.758100
C -29.272700 -9.206300 -13.473700
H -29.132200 -10.041400 -13.043100
C -28.426000 -7.319400 -14.704800
C -28.191200 -8.549900 -14.079200
H -27.699900 -6.853100 -15.101300
N -26.874200 -9.036800 -14.065200
N -26.773800 -10.235800 -13.619700
H -25.622200 -12.688300 -12.935700
C -25.470200 -10.678400 -13.529300
C -25.057600 -11.955000 -13.152100
N -24.358000 -9.912400 -13.762800
H -24.358000 -9.107600 -13.999900
C -23.658400 -11.955000 -13.152100
C -23.245800 -10.678400 -13.529300
H -23.093800 -12.688300 -12.935700
N -21.942200 -10.235800 -13.619700
N -21.841800 -9.036800 -14.065200
H -21.016100 -6.853100 -15.101300
C -20.524800 -8.549900 -14.079200
C -20.290000 -7.319400 -14.704800
H -19.583800 -10.041400 -13.043100
C -19.443300 -9.206300 -13.473700
C -19.016500 -6.767100 -14.758100
H -18.877500 -5.939300 -15.203500
C -18.183200 -8.657700 -13.496700
C -17.925300 -7.432600 -14.151900
H -17.469600 -9.111900 -13.062400
H -17.055500 -4.995900 -14.592100
N -16.656000 -6.917300 -14.187500
C -16.363200 -5.648700 -14.828500
H -16.349100 -5.769800 -15.800900
H -15.576900 -8.607400 -14.160800
H -15.540400 -7.803900 -12.777100
C -15.523800 -7.717900 -13.753100
H -15.489300 -5.323500 -14.526100
H -14.690300 -7.281900 -14.028800
H -46.204700 -10.884900 -10.323200
H -45.405700 -12.843300 -10.820500
C -45.371200 -10.448900 -10.047500
H -45.354600 -10.362900 -9.071400
H -45.318100 -9.559400 -10.455100
H -44.545900 -12.397000 -12.095200
C -44.531800 -12.518100 -11.122900
N -44.239000 -11.249500 -10.481800
H -43.839500 -13.170900 -10.886500
H -43.425400 -9.054900 -9.356800
C -42.969700 -10.734200 -10.446200
C -42.711800 -9.509100 -9.791100
H -42.017600 -12.227500 -11.497900
C -41.878500 -11.399700 -11.052500
C -41.451700 -8.960500 -9.768100
H -41.311200 -8.125400 -9.337500
C -40.605000 -10.847400 -10.999100
C -40.370200 -9.616900 -10.373600
H -39.878900 -11.313700 -11.395600
N -39.053200 -9.130000 -10.359500
N -38.952800 -7.931000 -9.914100
H -37.801200 -5.478500 -9.230000
C -37.649200 -7.488400 -9.823700
C -37.236600 -6.211800 -9.446400
H -36.537000 -9.059200 -10.294300
N -36.537000 -8.254400 -10.057100
C -35.837400 -6.211800 -9.446400
C -35.424800 -7.488400 -9.823700
H -35.272800 -5.478500 -9.230000
N -34.121200 -7.931000 -9.914100
N -34.020800 -9.130000 -10.359500
H -33.195100 -11.313700 -11.395600
C -32.703800 -9.616900 -10.373600
C -32.469000 -10.847400 -10.999100
H -31.762800 -8.125400 -9.337500
C -31.622300 -8.960500 -9.768100
C -31.195500 -11.399700 -11.052500
H -31.056500 -12.227500 -11.497900
C -30.362200 -9.509100 -9.791100
C -30.104300 -10.734200 -10.446200
H -29.648600 -9.054900 -9.356800
H -29.234500 -13.170900 -10.886500
N -28.835000 -11.249500 -10.481800
C -28.542200 -12.518100 -11.122900
H -28.528100 -12.397000 -12.095200
H -27.755900 -9.559400 -10.455100
H -27.719400 -10.362900 -9.071400
C -27.702800 -10.448900 -10.047500
H -27.668300 -12.843300 -10.820500
H -26.869300 -10.884900 -10.323200
