50
Fragment
H -34.025700 -7.281900 -14.028800
H -33.226700 -5.323500 -14.526100
C -33.192200 -7.717900 -13.753100
H -33.175600 -7.803900 -12.777100
H -33.139100 -8.607400 -14.160800
H -32.366900 -5.769800 -15.800900
C -32.352800 -5.648700 -14.828500
N -32.060000 -6.917300 -14.187500
H -31.660500 -4.995900 -14.592100
H -31.246400 -9.111900 -13.062400
C -30.790700 -7.432600 -14.151900
C -30.532800 -8.657700 -13.496700
H -29.838600 -5.939300 -15.203500
C -29.699500 -6.767100 -14.758100
C -29.272700 -9.206300 -13.473700
H -29.132200 -10.041400 -13.043100
C -28.426000 -7.319400 -14.704800
C -28.191200 -8.549900 -14.079200
H -27.699900 -6.853100 -15.101300
N -26.874200 -9.036800 -14.065200
N -26.773800 -10.235800 -13.619700
H -25.622200 -12.688300 -12.935700
C -25.470200 -10.678400 -13.529300
C -25.057600 -11.955000 -13.152100
N -24.358000 -9.912400 -13.762800
H -24.358000 -9.107600 -13.999900
C -23.658400 -11.955000 -13.152100
C -23.245800 -10.678400 -13.529300
H -23.093800 -12.688300 -12.935700
N -21.942200 -10.235800 -13.619700
N -21.841800 -9.036800 -14.065200
H -21.016100 -6.853100 -15.101300
C -20.524800 -8.549900 -14.079200
C -20.290000 -7.319400 -14.704800
H -19.583800 -10.041400 -13.043100
C -19.443300 -9.206300 -13.473700
C -19.016500 -6.767100 -14.758100
H -18.877500 -5.939300 -15.203500
C -18.183200 -8.657700 -13.496700
C -17.925300 -7.432600 -14.151900
H -17.469600 -9.111900 -13.062400
H -17.055500 -4.995900 -14.592100
N -16.656000 -6.917300 -14.187500
C -16.363200 -5.648700 -14.828500
H -16.349100 -5.769800 -15.800900
H -15.576900 -8.607400 -14.160800
H -15.540400 -7.803900 -12.777100
C -15.523800 -7.717900 -13.753100
H -15.489300 -5.323500 -14.526100
H -14.690300 -7.281900 -14.028800
50
Fragment
H -21.846700 -4.829300 -10.323200
H -21.047700 -6.787700 -10.820500
C -21.013200 -4.393300 -10.047500
H -20.996600 -4.307300 -9.071400
H -20.960100 -3.503800 -10.455100
H -20.187900 -6.341400 -12.095200
C -20.173800 -6.462500 -11.122900
N -19.881000 -5.193900 -10.481800
H -19.481500 -7.115300 -10.886500
H -19.067400 -2.999300 -9.356800
C -18.611700 -4.678600 -10.446200
C -18.353800 -3.453500 -9.791100
H -17.659600 -6.171900 -11.497900
C -17.520500 -5.344100 -11.052500
C -17.093700 -2.904900 -9.768100
H -16.953200 -2.069800 -9.337500
C -16.247000 -4.791800 -10.999100
C -16.012200 -3.561300 -10.373600
H -15.520900 -5.258100 -11.395600
N -14.695200 -3.074400 -10.359500
N -14.594800 -1.875400 -9.914100
H -13.443200 0.577100 -9.230000
C -13.291200 -1.432800 -9.823700
C -12.878600 -0.156200 -9.446400
H -12.179000 -3.003600 -10.294300
N -12.179000 -2.198800 -10.057100
C -11.479400 -0.156200 -9.446400
C -11.066800 -1.432800 -9.823700
H -10.914800 0.577100 -9.230000
N -9.763200 -1.875400 -9.914100
N -9.662800 -3.074400 -10.359500
H -8.837100 -5.258100 -11.395600
C -8.345800 -3.561300 -10.373600
C -8.111000 -4.791800 -10.999100
H -7.404800 -2.069800 -9.337500
C -7.264300 -2.904900 -9.768100
C -6.837500 -5.344100 -11.052500
H -6.698500 -6.171900 -11.497900
C -6.004200 -3.453500 -9.791100
C -5.746300 -4.678600 -10.446200
H -5.290600 -2.999300 -9.356800
H -4.876500 -7.115300 -10.886500
N -4.477000 -5.193900 -10.481800
C -4.184200 -6.462500 -11.122900
H -4.170100 -6.341400 -12.095200
H -3.397900 -3.503800 -10.455100
H -3.361400 -4.307300 -9.071400
C -3.344800 -4.393300 -10.047500
H -3.310300 -6.787700 -10.820500
H -2.511300 -4.829300 -10.323200
100
Fragment
H -34.025700 -7.281900 -14.028800
H -33.226700 -5.323500 -14.526100
C -33.192200 -7.717900 -13.753100
H -33.175600 -7.803900 -12.777100
H -33.139100 -8.607400 -14.160800
H -32.366900 -5.769800 -15.800900
C -32.352800 -5.648700 -14.828500
N -32.060000 -6.917300 -14.187500
H -31.660500 -4.995900 -14.592100
H -31.246400 -9.111900 -13.062400
C -30.790700 -7.432600 -14.151900
C -30.532800 -8.657700 -13.496700
H -29.838600 -5.939300 -15.203500
C -29.699500 -6.767100 -14.758100
C -29.272700 -9.206300 -13.473700
H -29.132200 -10.041400 -13.043100
C -28.426000 -7.319400 -14.704800
C -28.191200 -8.549900 -14.079200
H -27.699900 -6.853100 -15.101300
N -26.874200 -9.036800 -14.065200
N -26.773800 -10.235800 -13.619700
H -25.622200 -12.688300 -12.935700
C -25.470200 -10.678400 -13.529300
C -25.057600 -11.955000 -13.152100
N -24.358000 -9.912400 -13.762800
H -24.358000 -9.107600 -13.999900
C -23.658400 -11.955000 -13.152100
C -23.245800 -10.678400 -13.529300
H -23.093800 -12.688300 -12.935700
N -21.942200 -10.235800 -13.619700
N -21.841800 -9.036800 -14.065200
H -21.016100 -6.853100 -15.101300
C -20.524800 -8.549900 -14.079200
C -20.290000 -7.319400 -14.704800
H -19.583800 -10.041400 -13.043100
C -19.443300 -9.206300 -13.473700
C -19.016500 -6.767100 -14.758100
H -18.877500 -5.939300 -15.203500
C -18.183200 -8.657700 -13.496700
C -17.925300 -7.432600 -14.151900
H -17.469600 -9.111900 -13.062400
H -17.055500 -4.995900 -14.592100
N -16.656000 -6.917300 -14.187500
C -16.363200 -5.648700 -14.828500
H -16.349100 -5.769800 -15.800900
H -15.576900 -8.607400 -14.160800
H -15.540400 -7.803900 -12.777100
C -15.523800 -7.717900 -13.753100
H -15.489300 -5.323500 -14.526100
H -14.690300 -7.281900 -14.028800
H -21.846700 -4.829300 -10.323200
H -21.047700 -6.787700 -10.820500
C -21.013200 -4.393300 -10.047500
H -20.996600 -4.307300 -9.071400
H -20.960100 -3.503800 -10.455100
H -20.187900 -6.341400 -12.095200
C -20.173800 -6.462500 -11.122900
N -19.881000 -5.193900 -10.481800
H -19.481500 -7.115300 -10.886500
H -19.067400 -2.999300 -9.356800
C -18.611700 -4.678600 -10.446200
C -18.353800 -3.453500 -9.791100
H -17.659600 -6.171900 -11.497900
C -17.520500 -5.344100 -11.052500
C -17.093700 -2.904900 -9.768100
H -16.953200 -2.069800 -9.337500
C -16.247000 -4.791800 -10.999100
C -16.012200 -3.561300 -10.373600
H -15.520900 -5.258100 -11.395600
N -14.695200 -3.074400 -10.359500
N -14.594800 -1.875400 -9.914100
H -13.443200 0.577100 -9.230000
C -13.291200 -1.432800 -9.823700
C -12.878600 -0.156200 -9.446400
H -12.179000 -3.003600 -10.294300
N -12.179000 -2.198800 -10.057100
C -11.479400 -0.156200 -9.446400
C -11.066800 -1.432800 -9.823700
H -10.914800 0.577100 -9.230000
N -9.763200 -1.875400 -9.914100
N -9.662800 -3.074400 -10.359500
H -8.837100 -5.258100 -11.395600
C -8.345800 -3.561300 -10.373600
C -8.111000 -4.791800 -10.999100
H -7.404800 -2.069800 -9.337500
C -7.264300 -2.904900 -9.768100
C -6.837500 -5.344100 -11.052500
H -6.698500 -6.171900 -11.497900
C -6.004200 -3.453500 -9.791100
C -5.746300 -4.678600 -10.446200
H -5.290600 -2.999300 -9.356800
H -4.876500 -7.115300 -10.886500
N -4.477000 -5.193900 -10.481800
C -4.184200 -6.462500 -11.122900
H -4.170100 -6.341400 -12.095200
H -3.397900 -3.503800 -10.455100
H -3.361400 -4.307300 -9.071400
C -3.344800 -4.393300 -10.047500
H -3.310300 -6.787700 -10.820500
H -2.511300 -4.829300 -10.323200
