16
Fragment
H -17.867300 -9.056700 -17.890700
N -17.325300 -8.339100 -17.830800
H -17.230300 -8.035800 -19.851100
H -16.872100 -8.662000 -15.871900
C -16.589300 -8.167600 -19.107200
C -16.374600 -8.536400 -16.718200
H -16.219300 -6.150100 -18.827500
H -16.052800 -8.977700 -19.298800
H -16.000400 -6.521500 -16.411100
H -15.833900 -9.349100 -16.882500
C -15.678600 -6.962800 -18.991700
C -15.464000 -7.331600 -16.602700
H -15.181100 -6.837200 -19.838000
H -14.822900 -7.463400 -15.858800
N -14.727900 -7.160100 -17.879100
H -14.185900 -6.442500 -17.819200
20
Fragment
H -16.429100 -4.241600 -12.177100
O -15.967000 -3.427400 -12.251100
H -15.276900 -5.244900 -14.025700
C -14.844300 -3.520900 -13.027700
C -14.633200 -4.552100 -13.937600
H -14.017900 -1.818100 -12.279400
C -13.882900 -2.521700 -12.903200
C -13.481500 -4.572800 -14.720200
H -13.346200 -5.280600 -15.339800
C -12.728400 -2.537700 -13.677600
C -12.528400 -3.568900 -14.603900
H -12.077500 -1.852700 -13.579300
N -11.349600 -3.651600 -15.408500
H -11.141600 -4.468900 -15.652800
O -10.986900 -1.428500 -15.719900
C -10.672300 -2.594600 -15.925400
H -9.724700 -2.789900 -17.735900
C -9.496600 -2.953100 -16.796800
H -9.275400 -3.899600 -16.674100
H -8.725100 -2.401900 -16.548000
36
Fragment
H -17.867300 -9.056700 -17.890700
N -17.325300 -8.339100 -17.830800
H -17.230300 -8.035800 -19.851100
H -16.872100 -8.662000 -15.871900
C -16.589300 -8.167600 -19.107200
C -16.374600 -8.536400 -16.718200
H -16.219300 -6.150100 -18.827500
H -16.052800 -8.977700 -19.298800
H -16.000400 -6.521500 -16.411100
H -15.833900 -9.349100 -16.882500
C -15.678600 -6.962800 -18.991700
C -15.464000 -7.331600 -16.602700
H -15.181100 -6.837200 -19.838000
H -14.822900 -7.463400 -15.858800
N -14.727900 -7.160100 -17.879100
H -14.185900 -6.442500 -17.819200
H -16.429100 -4.241600 -12.177100
O -15.967000 -3.427400 -12.251100
H -15.276900 -5.244900 -14.025700
C -14.844300 -3.520900 -13.027700
C -14.633200 -4.552100 -13.937600
H -14.017900 -1.818100 -12.279400
C -13.882900 -2.521700 -12.903200
C -13.481500 -4.572800 -14.720200
H -13.346200 -5.280600 -15.339800
C -12.728400 -2.537700 -13.677600
C -12.528400 -3.568900 -14.603900
H -12.077500 -1.852700 -13.579300
N -11.349600 -3.651600 -15.408500
H -11.141600 -4.468900 -15.652800
O -10.986900 -1.428500 -15.719900
C -10.672300 -2.594600 -15.925400
H -9.724700 -2.789900 -17.735900
C -9.496600 -2.953100 -16.796800
H -9.275400 -3.899600 -16.674100
H -8.725100 -2.401900 -16.548000
