16
Fragment
H -17.867300 -9.056700 -17.890700
N -17.325300 -8.339100 -17.830800
H -17.230300 -8.035800 -19.851100
H -16.872100 -8.662000 -15.871900
C -16.589300 -8.167600 -19.107200
C -16.374600 -8.536400 -16.718200
H -16.219300 -6.150100 -18.827500
H -16.052800 -8.977700 -19.298800
H -16.000400 -6.521500 -16.411100
H -15.833900 -9.349100 -16.882500
C -15.678600 -6.962800 -18.991700
C -15.464000 -7.331600 -16.602700
H -15.181100 -6.837200 -19.838000
H -14.822900 -7.463400 -15.858800
N -14.727900 -7.160100 -17.879100
H -14.185900 -6.442500 -17.819200
20
Fragment
H -13.824800 -8.674400 -18.128700
O -13.362700 -9.488600 -18.202800
H -12.672600 -7.671100 -19.977300
C -12.240000 -9.395100 -18.979300
C -12.028900 -8.363900 -19.889200
H -11.413600 -11.097900 -18.231100
C -11.278600 -10.394300 -18.854800
C -10.877200 -8.343200 -20.671900
H -10.741900 -7.635400 -21.291400
C -10.124100 -10.378300 -19.629300
C -9.924100 -9.347100 -20.555600
H -9.473200 -11.063300 -19.530900
N -8.745300 -9.264400 -21.360100
H -8.537300 -8.447100 -21.604500
O -8.382600 -11.487500 -21.671500
C -8.068000 -10.321400 -21.877100
H -7.120400 -10.126100 -23.687600
C -6.892300 -9.962900 -22.748400
H -6.671100 -9.016400 -22.625800
H -6.120800 -10.514100 -22.499600
36
Fragment
H -17.867300 -9.056700 -17.890700
N -17.325300 -8.339100 -17.830800
H -17.230300 -8.035800 -19.851100
H -16.872100 -8.662000 -15.871900
C -16.589300 -8.167600 -19.107200
C -16.374600 -8.536400 -16.718200
H -16.219300 -6.150100 -18.827500
H -16.052800 -8.977700 -19.298800
H -16.000400 -6.521500 -16.411100
H -15.833900 -9.349100 -16.882500
C -15.678600 -6.962800 -18.991700
C -15.464000 -7.331600 -16.602700
H -15.181100 -6.837200 -19.838000
H -14.822900 -7.463400 -15.858800
N -14.727900 -7.160100 -17.879100
H -14.185900 -6.442500 -17.819200
H -13.824800 -8.674400 -18.128700
O -13.362700 -9.488600 -18.202800
H -12.672600 -7.671100 -19.977300
C -12.240000 -9.395100 -18.979300
C -12.028900 -8.363900 -19.889200
H -11.413600 -11.097900 -18.231100
C -11.278600 -10.394300 -18.854800
C -10.877200 -8.343200 -20.671900
H -10.741900 -7.635400 -21.291400
C -10.124100 -10.378300 -19.629300
C -9.924100 -9.347100 -20.555600
H -9.473200 -11.063300 -19.530900
N -8.745300 -9.264400 -21.360100
H -8.537300 -8.447100 -21.604500
O -8.382600 -11.487500 -21.671500
C -8.068000 -10.321400 -21.877100
H -7.120400 -10.126100 -23.687600
C -6.892300 -9.962900 -22.748400
H -6.671100 -9.016400 -22.625800
H -6.120800 -10.514100 -22.499600
