16
Fragment
H -17.867300 -9.056700 -17.890700
N -17.325300 -8.339100 -17.830800
H -17.230300 -8.035800 -19.851100
H -16.872100 -8.662000 -15.871900
C -16.589300 -8.167600 -19.107200
C -16.374600 -8.536400 -16.718200
H -16.219300 -6.150100 -18.827500
H -16.052800 -8.977700 -19.298800
H -16.000400 -6.521500 -16.411100
H -15.833900 -9.349100 -16.882500
C -15.678600 -6.962800 -18.991700
C -15.464000 -7.331600 -16.602700
H -15.181100 -6.837200 -19.838000
H -14.822900 -7.463400 -15.858800
N -14.727900 -7.160100 -17.879100
H -14.185900 -6.442500 -17.819200
20
Fragment
H -25.932400 -10.151500 -13.210300
H -25.382100 -11.649200 -13.084100
C -25.160900 -10.702700 -12.961500
H -24.932800 -10.539500 -12.022300
C -23.985200 -10.344200 -13.832800
O -23.670700 -9.178100 -14.038400
H -23.515900 -12.218500 -14.105400
N -23.307900 -11.401200 -14.349800
H -22.580000 -9.602300 -16.179000
C -22.129100 -11.318500 -15.154300
C -21.929100 -10.287300 -16.080600
H -21.311300 -13.030200 -14.418500
C -21.176100 -12.322400 -15.038000
C -20.774600 -10.271300 -16.855100
H -20.639700 -9.567700 -17.478800
C -20.024300 -12.301700 -15.820700
C -19.813200 -11.270500 -16.730600
H -19.380600 -12.994500 -15.732600
O -18.690500 -11.177000 -17.507100
H -18.228400 -11.991200 -17.581200
36
Fragment
H -17.867300 -9.056700 -17.890700
N -17.325300 -8.339100 -17.830800
H -17.230300 -8.035800 -19.851100
H -16.872100 -8.662000 -15.871900
C -16.589300 -8.167600 -19.107200
C -16.374600 -8.536400 -16.718200
H -16.219300 -6.150100 -18.827500
H -16.052800 -8.977700 -19.298800
H -16.000400 -6.521500 -16.411100
H -15.833900 -9.349100 -16.882500
C -15.678600 -6.962800 -18.991700
C -15.464000 -7.331600 -16.602700
H -15.181100 -6.837200 -19.838000
H -14.822900 -7.463400 -15.858800
N -14.727900 -7.160100 -17.879100
H -14.185900 -6.442500 -17.819200
H -25.932400 -10.151500 -13.210300
H -25.382100 -11.649200 -13.084100
C -25.160900 -10.702700 -12.961500
H -24.932800 -10.539500 -12.022300
C -23.985200 -10.344200 -13.832800
O -23.670700 -9.178100 -14.038400
H -23.515900 -12.218500 -14.105400
N -23.307900 -11.401200 -14.349800
H -22.580000 -9.602300 -16.179000
C -22.129100 -11.318500 -15.154300
C -21.929100 -10.287300 -16.080600
H -21.311300 -13.030200 -14.418500
C -21.176100 -12.322400 -15.038000
C -20.774600 -10.271300 -16.855100
H -20.639700 -9.567700 -17.478800
C -20.024300 -12.301700 -15.820700
C -19.813200 -11.270500 -16.730600
H -19.380600 -12.994500 -15.732600
O -18.690500 -11.177000 -17.507100
H -18.228400 -11.991200 -17.581200
