16
Fragment
H -17.867300 -9.056700 -17.890700
N -17.325300 -8.339100 -17.830800
H -17.230300 -8.035800 -19.851100
H -16.872100 -8.662000 -15.871900
C -16.589300 -8.167600 -19.107200
C -16.374600 -8.536400 -16.718200
H -16.219300 -6.150100 -18.827500
H -16.052800 -8.977700 -19.298800
H -16.000400 -6.521500 -16.411100
H -15.833900 -9.349100 -16.882500
C -15.678600 -6.962800 -18.991700
C -15.464000 -7.331600 -16.602700
H -15.181100 -6.837200 -19.838000
H -14.822900 -7.463400 -15.858800
N -14.727900 -7.160100 -17.879100
H -14.185900 -6.442500 -17.819200
20
Fragment
H -23.328100 -7.930900 -19.161900
H -22.777800 -6.433200 -19.035800
C -22.556600 -7.379700 -18.913200
H -22.328500 -7.542900 -17.974000
C -21.380900 -7.738200 -19.784500
O -21.066400 -8.904300 -19.990000
H -20.911600 -5.863900 -20.057100
N -20.703600 -6.681200 -20.301400
H -19.975700 -8.480100 -22.130600
C -19.524800 -6.763900 -21.106000
C -19.324800 -7.795100 -22.032300
H -18.707000 -5.052200 -20.370100
C -18.571800 -5.760000 -20.989700
C -18.170300 -7.811100 -22.806700
H -18.035400 -8.514700 -23.430500
C -17.420000 -5.780700 -21.772300
C -17.208900 -6.811900 -22.682200
H -16.776300 -5.087900 -21.684200
O -16.086200 -6.905400 -23.458800
H -15.624100 -6.091200 -23.532800
36
Fragment
H -17.867300 -9.056700 -17.890700
N -17.325300 -8.339100 -17.830800
H -17.230300 -8.035800 -19.851100
H -16.872100 -8.662000 -15.871900
C -16.589300 -8.167600 -19.107200
C -16.374600 -8.536400 -16.718200
H -16.219300 -6.150100 -18.827500
H -16.052800 -8.977700 -19.298800
H -16.000400 -6.521500 -16.411100
H -15.833900 -9.349100 -16.882500
C -15.678600 -6.962800 -18.991700
C -15.464000 -7.331600 -16.602700
H -15.181100 -6.837200 -19.838000
H -14.822900 -7.463400 -15.858800
N -14.727900 -7.160100 -17.879100
H -14.185900 -6.442500 -17.819200
H -23.328100 -7.930900 -19.161900
H -22.777800 -6.433200 -19.035800
C -22.556600 -7.379700 -18.913200
H -22.328500 -7.542900 -17.974000
C -21.380900 -7.738200 -19.784500
O -21.066400 -8.904300 -19.990000
H -20.911600 -5.863900 -20.057100
N -20.703600 -6.681200 -20.301400
H -19.975700 -8.480100 -22.130600
C -19.524800 -6.763900 -21.106000
C -19.324800 -7.795100 -22.032300
H -18.707000 -5.052200 -20.370100
C -18.571800 -5.760000 -20.989700
C -18.170300 -7.811100 -22.806700
H -18.035400 -8.514700 -23.430500
C -17.420000 -5.780700 -21.772300
C -17.208900 -6.811900 -22.682200
H -16.776300 -5.087900 -21.684200
O -16.086200 -6.905400 -23.458800
H -15.624100 -6.091200 -23.532800
