3
Fragment
O -20.553800 -9.256500 -39.686300
H -20.430500 -9.249200 -40.582000
H -19.788600 -8.985600 -39.408500
26
Fragment
H -27.361300 -8.946400 -31.873900
H -26.868400 -9.479200 -33.247600
N -26.657400 -9.061300 -32.501500
O -25.930700 -7.307400 -34.930500
C -25.532500 -8.382700 -32.346900
O -25.295600 -7.636700 -31.391900
H -24.896700 -10.472000 -34.138700
C -24.849500 -7.849800 -34.731200
C -24.460900 -8.559900 -33.418100
C -24.113400 -10.025500 -33.765000
H -23.870100 -10.505700 -32.943300
H -23.832100 -7.465600 -36.348600
N -23.826600 -7.913200 -35.590500
N -23.232800 -7.913200 -32.955600
H -23.227200 -7.465600 -32.197500
H -23.189300 -10.505700 -35.602800
C -22.945900 -10.025500 -34.781100
C -22.598400 -8.559900 -35.128000
C -22.209900 -7.849800 -33.814900
H -22.162700 -10.472000 -34.407400
O -21.763700 -7.636700 -37.154200
C -21.526800 -8.382700 -36.199200
O -21.128600 -7.307400 -33.615600
N -20.401900 -9.061300 -36.044500
H -20.190900 -9.479200 -35.298500
H -19.698000 -8.946400 -36.672200
29
Fragment
O -20.553800 -9.256500 -39.686300
H -20.430500 -9.249200 -40.582000
H -19.788600 -8.985600 -39.408500
H -27.361300 -8.946400 -31.873900
H -26.868400 -9.479200 -33.247600
N -26.657400 -9.061300 -32.501500
O -25.930700 -7.307400 -34.930500
C -25.532500 -8.382700 -32.346900
O -25.295600 -7.636700 -31.391900
H -24.896700 -10.472000 -34.138700
C -24.849500 -7.849800 -34.731200
C -24.460900 -8.559900 -33.418100
C -24.113400 -10.025500 -33.765000
H -23.870100 -10.505700 -32.943300
H -23.832100 -7.465600 -36.348600
N -23.826600 -7.913200 -35.590500
N -23.232800 -7.913200 -32.955600
H -23.227200 -7.465600 -32.197500
H -23.189300 -10.505700 -35.602800
C -22.945900 -10.025500 -34.781100
C -22.598400 -8.559900 -35.128000
C -22.209900 -7.849800 -33.814900
H -22.162700 -10.472000 -34.407400
O -21.763700 -7.636700 -37.154200
C -21.526800 -8.382700 -36.199200
O -21.128600 -7.307400 -33.615600
N -20.401900 -9.061300 -36.044500
H -20.190900 -9.479200 -35.298500
H -19.698000 -8.946400 -36.672200
