3
Fragment
O -20.553800 -9.256500 -39.686300
H -20.430500 -9.249200 -40.582000
H -19.788600 -8.985600 -39.408500
26
Fragment
H -19.377300 -11.986400 -40.524400
H -19.236200 -12.895100 -41.711700
N -18.993500 -12.165400 -41.301800
O -18.896800 -10.601000 -44.278300
H -18.010500 -13.708400 -43.340300
C -17.973700 -11.413200 -41.676300
C -17.865900 -11.262900 -44.233900
O -17.578600 -10.426000 -41.058000
C -17.231000 -11.839500 -42.952400
H -17.213000 -11.173100 -46.057500
C -17.131700 -13.362900 -43.162400
N -17.113600 -11.596600 -45.296100
H -16.808300 -13.781300 -42.345000
H -16.595700 -14.252500 -45.018300
C -16.183800 -13.642800 -44.340000
N -15.874500 -11.280300 -42.908200
C -15.855000 -12.301100 -45.028500
H -15.677000 -10.662700 -42.268300
O -15.614800 -12.070600 -47.391700
H -15.378600 -14.039300 -44.061400
C -15.113900 -12.501300 -46.348100
C -15.109000 -11.440700 -43.998400
O -13.989700 -10.959400 -44.162900
N -13.982500 -13.180600 -46.282900
H -13.585500 -13.411100 -45.446100
H -13.489600 -13.349400 -47.052800
29
Fragment
O -20.553800 -9.256500 -39.686300
H -20.430500 -9.249200 -40.582000
H -19.788600 -8.985600 -39.408500
H -19.377300 -11.986400 -40.524400
H -19.236200 -12.895100 -41.711700
N -18.993500 -12.165400 -41.301800
O -18.896800 -10.601000 -44.278300
H -18.010500 -13.708400 -43.340300
C -17.973700 -11.413200 -41.676300
C -17.865900 -11.262900 -44.233900
O -17.578600 -10.426000 -41.058000
C -17.231000 -11.839500 -42.952400
H -17.213000 -11.173100 -46.057500
C -17.131700 -13.362900 -43.162400
N -17.113600 -11.596600 -45.296100
H -16.808300 -13.781300 -42.345000
H -16.595700 -14.252500 -45.018300
C -16.183800 -13.642800 -44.340000
N -15.874500 -11.280300 -42.908200
C -15.855000 -12.301100 -45.028500
H -15.677000 -10.662700 -42.268300
O -15.614800 -12.070600 -47.391700
H -15.378600 -14.039300 -44.061400
C -15.113900 -12.501300 -46.348100
C -15.109000 -11.440700 -43.998400
O -13.989700 -10.959400 -44.162900
N -13.982500 -13.180600 -46.282900
H -13.585500 -13.411100 -45.446100
H -13.489600 -13.349400 -47.052800
