24
Fragment
H -11.419100 -21.003200 -55.829400
O -11.171400 -19.735300 -58.139700
C -11.151400 -20.092500 -55.779600
H -11.015100 -20.032100 -53.785000
C -10.997900 -19.327800 -56.980900
C -10.918000 -19.525700 -54.582500
N -10.602500 -18.023200 -56.775500
C -10.524000 -18.157000 -54.523400
H -10.392600 -17.478700 -57.539600
N -10.367700 -17.421700 -55.592800
N -10.302000 -18.159800 -52.078400
C -10.261300 -17.514200 -53.232800
H -10.071400 -18.113700 -49.307200
C -10.002900 -17.188300 -51.132400
H -9.978600 -15.546000 -53.759300
N -9.943700 -16.193500 -53.109000
C -9.930800 -17.284100 -49.748900
C -9.775200 -15.954700 -51.767000
C -9.647500 -16.134700 -49.030100
H -9.609600 -16.173800 -48.082500
C -9.466900 -14.799000 -51.058200
C -9.415500 -14.912100 -49.679500
H -9.300600 -13.973400 -51.496300
H -9.217800 -14.142600 -49.159300
12
Fragment
H -9.088600 -20.723500 -46.073400
H -8.788100 -18.388600 -46.799900
H -8.740900 -21.044100 -44.543300
C -8.395500 -20.670800 -45.381700
N -8.021500 -19.279900 -45.175300
C -7.920800 -18.422300 -46.343400
O -7.818700 -19.498600 -42.928700
C -7.770900 -18.820800 -43.957600
H -7.664600 -17.518300 -46.063800
H -7.609600 -21.182100 -45.668400
H -7.544700 -17.848400 -43.945400
H -7.243400 -18.780000 -46.954200
36
Fragment
H -11.419100 -21.003200 -55.829400
O -11.171400 -19.735300 -58.139700
C -11.151400 -20.092500 -55.779600
H -11.015100 -20.032100 -53.785000
C -10.997900 -19.327800 -56.980900
C -10.918000 -19.525700 -54.582500
N -10.602500 -18.023200 -56.775500
C -10.524000 -18.157000 -54.523400
H -10.392600 -17.478700 -57.539600
N -10.367700 -17.421700 -55.592800
N -10.302000 -18.159800 -52.078400
C -10.261300 -17.514200 -53.232800
H -10.071400 -18.113700 -49.307200
C -10.002900 -17.188300 -51.132400
H -9.978600 -15.546000 -53.759300
N -9.943700 -16.193500 -53.109000
C -9.930800 -17.284100 -49.748900
C -9.775200 -15.954700 -51.767000
C -9.647500 -16.134700 -49.030100
H -9.609600 -16.173800 -48.082500
C -9.466900 -14.799000 -51.058200
C -9.415500 -14.912100 -49.679500
H -9.300600 -13.973400 -51.496300
H -9.217800 -14.142600 -49.159300
H -9.088600 -20.723500 -46.073400
H -8.788100 -18.388600 -46.799900
H -8.740900 -21.044100 -44.543300
C -8.395500 -20.670800 -45.381700
N -8.021500 -19.279900 -45.175300
C -7.920800 -18.422300 -46.343400
O -7.818700 -19.498600 -42.928700
C -7.770900 -18.820800 -43.957600
H -7.664600 -17.518300 -46.063800
H -7.609600 -21.182100 -45.668400
H -7.544700 -17.848400 -43.945400
H -7.243400 -18.780000 -46.954200
