24
Fragment
H -11.419100 -21.003200 -55.829400
O -11.171400 -19.735300 -58.139700
C -11.151400 -20.092500 -55.779600
H -11.015100 -20.032100 -53.785000
C -10.997900 -19.327800 -56.980900
C -10.918000 -19.525700 -54.582500
N -10.602500 -18.023200 -56.775500
C -10.524000 -18.157000 -54.523400
H -10.392600 -17.478700 -57.539600
N -10.367700 -17.421700 -55.592800
N -10.302000 -18.159800 -52.078400
C -10.261300 -17.514200 -53.232800
H -10.071400 -18.113700 -49.307200
C -10.002900 -17.188300 -51.132400
H -9.978600 -15.546000 -53.759300
N -9.943700 -16.193500 -53.109000
C -9.930800 -17.284100 -49.748900
C -9.775200 -15.954700 -51.767000
C -9.647500 -16.134700 -49.030100
H -9.609600 -16.173800 -48.082500
C -9.466900 -14.799000 -51.058200
C -9.415500 -14.912100 -49.679500
H -9.300600 -13.973400 -51.496300
H -9.217800 -14.142600 -49.159300
24
Fragment
H -12.195600 -8.140300 -63.348200
H -12.112800 -7.971100 -61.011200
C -11.997900 -8.909800 -62.828000
C -11.946500 -8.796700 -61.449300
H -11.803800 -10.171500 -64.425000
C -11.765900 -10.132400 -63.477400
C -11.638200 -9.952400 -60.740500
C -11.482600 -11.281800 -62.758600
N -11.469700 -10.191200 -59.398500
H -11.434800 -9.543700 -58.748200
C -11.410500 -11.186000 -61.375100
H -11.342000 -12.111400 -63.200300
C -11.152100 -11.511900 -59.274700
N -11.111400 -12.157500 -60.429100
N -11.045700 -11.419400 -56.914700
H -11.020800 -11.476400 -54.968000
C -10.889400 -12.154700 -57.984100
N -10.810900 -12.020900 -55.732000
C -10.495400 -13.523400 -57.925000
C -10.415500 -13.325500 -55.526600
H -10.398300 -14.029800 -58.722500
C -10.262000 -14.090200 -56.727900
O -10.242000 -13.733000 -54.367800
H -9.994300 -15.000900 -56.678100
48
Fragment
H -11.419100 -21.003200 -55.829400
O -11.171400 -19.735300 -58.139700
C -11.151400 -20.092500 -55.779600
H -11.015100 -20.032100 -53.785000
C -10.997900 -19.327800 -56.980900
C -10.918000 -19.525700 -54.582500
N -10.602500 -18.023200 -56.775500
C -10.524000 -18.157000 -54.523400
H -10.392600 -17.478700 -57.539600
N -10.367700 -17.421700 -55.592800
N -10.302000 -18.159800 -52.078400
C -10.261300 -17.514200 -53.232800
H -10.071400 -18.113700 -49.307200
C -10.002900 -17.188300 -51.132400
H -9.978600 -15.546000 -53.759300
N -9.943700 -16.193500 -53.109000
C -9.930800 -17.284100 -49.748900
C -9.775200 -15.954700 -51.767000
C -9.647500 -16.134700 -49.030100
H -9.609600 -16.173800 -48.082500
C -9.466900 -14.799000 -51.058200
C -9.415500 -14.912100 -49.679500
H -9.300600 -13.973400 -51.496300
H -9.217800 -14.142600 -49.159300
H -12.195600 -8.140300 -63.348200
H -12.112800 -7.971100 -61.011200
C -11.997900 -8.909800 -62.828000
C -11.946500 -8.796700 -61.449300
H -11.803800 -10.171500 -64.425000
C -11.765900 -10.132400 -63.477400
C -11.638200 -9.952400 -60.740500
C -11.482600 -11.281800 -62.758600
N -11.469700 -10.191200 -59.398500
H -11.434800 -9.543700 -58.748200
C -11.410500 -11.186000 -61.375100
H -11.342000 -12.111400 -63.200300
C -11.152100 -11.511900 -59.274700
N -11.111400 -12.157500 -60.429100
N -11.045700 -11.419400 -56.914700
H -11.020800 -11.476400 -54.968000
C -10.889400 -12.154700 -57.984100
N -10.810900 -12.020900 -55.732000
C -10.495400 -13.523400 -57.925000
C -10.415500 -13.325500 -55.526600
H -10.398300 -14.029800 -58.722500
C -10.262000 -14.090200 -56.727900
O -10.242000 -13.733000 -54.367800
H -9.994300 -15.000900 -56.678100
