24
Fragment
H -11.419100 -21.003200 -55.829400
O -11.171400 -19.735300 -58.139700
C -11.151400 -20.092500 -55.779600
H -11.015100 -20.032100 -53.785000
C -10.997900 -19.327800 -56.980900
C -10.918000 -19.525700 -54.582500
N -10.602500 -18.023200 -56.775500
C -10.524000 -18.157000 -54.523400
H -10.392600 -17.478700 -57.539600
N -10.367700 -17.421700 -55.592800
N -10.302000 -18.159800 -52.078400
C -10.261300 -17.514200 -53.232800
H -10.071400 -18.113700 -49.307200
C -10.002900 -17.188300 -51.132400
H -9.978600 -15.546000 -53.759300
N -9.943700 -16.193500 -53.109000
C -9.930800 -17.284100 -49.748900
C -9.775200 -15.954700 -51.767000
C -9.647500 -16.134700 -49.030100
H -9.609600 -16.173800 -48.082500
C -9.466900 -14.799000 -51.058200
C -9.415500 -14.912100 -49.679500
H -9.300600 -13.973400 -51.496300
H -9.217800 -14.142600 -49.159300
12
Fragment
H -7.032200 -17.233800 -49.480800
H -6.730900 -18.165400 -52.489600
H -6.666000 -14.831700 -50.766600
H -6.611000 -18.495500 -50.371200
C -6.504700 -17.193000 -52.477400
O -6.456900 -16.515200 -53.506300
C -6.354800 -17.591500 -50.091600
N -6.254100 -16.733900 -51.259700
C -5.880100 -15.343000 -51.053300
H -5.534700 -14.969700 -51.891700
H -5.487500 -17.625200 -49.635100
H -5.187000 -15.290300 -50.361600
36
Fragment
H -11.419100 -21.003200 -55.829400
O -11.171400 -19.735300 -58.139700
C -11.151400 -20.092500 -55.779600
H -11.015100 -20.032100 -53.785000
C -10.997900 -19.327800 -56.980900
C -10.918000 -19.525700 -54.582500
N -10.602500 -18.023200 -56.775500
C -10.524000 -18.157000 -54.523400
H -10.392600 -17.478700 -57.539600
N -10.367700 -17.421700 -55.592800
N -10.302000 -18.159800 -52.078400
C -10.261300 -17.514200 -53.232800
H -10.071400 -18.113700 -49.307200
C -10.002900 -17.188300 -51.132400
H -9.978600 -15.546000 -53.759300
N -9.943700 -16.193500 -53.109000
C -9.930800 -17.284100 -49.748900
C -9.775200 -15.954700 -51.767000
C -9.647500 -16.134700 -49.030100
H -9.609600 -16.173800 -48.082500
C -9.466900 -14.799000 -51.058200
C -9.415500 -14.912100 -49.679500
H -9.300600 -13.973400 -51.496300
H -9.217800 -14.142600 -49.159300
H -7.032200 -17.233800 -49.480800
H -6.730900 -18.165400 -52.489600
H -6.666000 -14.831700 -50.766600
H -6.611000 -18.495500 -50.371200
C -6.504700 -17.193000 -52.477400
O -6.456900 -16.515200 -53.506300
C -6.354800 -17.591500 -50.091600
N -6.254100 -16.733900 -51.259700
C -5.880100 -15.343000 -51.053300
H -5.534700 -14.969700 -51.891700
H -5.487500 -17.625200 -49.635100
H -5.187000 -15.290300 -50.361600
