24
Fragment
H -11.419100 -21.003200 -55.829400
O -11.171400 -19.735300 -58.139700
C -11.151400 -20.092500 -55.779600
H -11.015100 -20.032100 -53.785000
C -10.997900 -19.327800 -56.980900
C -10.918000 -19.525700 -54.582500
N -10.602500 -18.023200 -56.775500
C -10.524000 -18.157000 -54.523400
H -10.392600 -17.478700 -57.539600
N -10.367700 -17.421700 -55.592800
N -10.302000 -18.159800 -52.078400
C -10.261300 -17.514200 -53.232800
H -10.071400 -18.113700 -49.307200
C -10.002900 -17.188300 -51.132400
H -9.978600 -15.546000 -53.759300
N -9.943700 -16.193500 -53.109000
C -9.930800 -17.284100 -49.748900
C -9.775200 -15.954700 -51.767000
C -9.647500 -16.134700 -49.030100
H -9.609600 -16.173800 -48.082500
C -9.466900 -14.799000 -51.058200
C -9.415500 -14.912100 -49.679500
H -9.300600 -13.973400 -51.496300
H -9.217800 -14.142600 -49.159300
24
Fragment
H -12.195600 -21.871200 -47.275700
H -12.112800 -22.040400 -44.938700
C -11.997900 -21.101700 -46.755500
C -11.946500 -21.214800 -45.376800
H -11.803800 -19.840000 -48.352500
C -11.765900 -19.879100 -47.404900
C -11.638200 -20.059100 -44.668000
C -11.482600 -18.729700 -46.686100
N -11.469700 -19.820300 -43.326000
H -11.434800 -20.467800 -42.675700
C -11.410500 -18.825500 -45.302600
H -11.342000 -17.900100 -47.127800
C -11.152100 -18.499600 -43.202200
N -11.111400 -17.854000 -44.356600
N -11.045700 -18.592100 -40.842200
H -11.020800 -18.535100 -38.895500
C -10.889400 -17.856800 -41.911600
N -10.810900 -17.990600 -39.659500
C -10.495400 -16.488100 -41.852500
C -10.415500 -16.686000 -39.454100
H -10.398300 -15.981700 -42.650000
C -10.262000 -15.921300 -40.655400
O -10.242000 -16.278500 -38.295300
H -9.994300 -15.010600 -40.605600
48
Fragment
H -11.419100 -21.003200 -55.829400
O -11.171400 -19.735300 -58.139700
C -11.151400 -20.092500 -55.779600
H -11.015100 -20.032100 -53.785000
C -10.997900 -19.327800 -56.980900
C -10.918000 -19.525700 -54.582500
N -10.602500 -18.023200 -56.775500
C -10.524000 -18.157000 -54.523400
H -10.392600 -17.478700 -57.539600
N -10.367700 -17.421700 -55.592800
N -10.302000 -18.159800 -52.078400
C -10.261300 -17.514200 -53.232800
H -10.071400 -18.113700 -49.307200
C -10.002900 -17.188300 -51.132400
H -9.978600 -15.546000 -53.759300
N -9.943700 -16.193500 -53.109000
C -9.930800 -17.284100 -49.748900
C -9.775200 -15.954700 -51.767000
C -9.647500 -16.134700 -49.030100
H -9.609600 -16.173800 -48.082500
C -9.466900 -14.799000 -51.058200
C -9.415500 -14.912100 -49.679500
H -9.300600 -13.973400 -51.496300
H -9.217800 -14.142600 -49.159300
H -12.195600 -21.871200 -47.275700
H -12.112800 -22.040400 -44.938700
C -11.997900 -21.101700 -46.755500
C -11.946500 -21.214800 -45.376800
H -11.803800 -19.840000 -48.352500
C -11.765900 -19.879100 -47.404900
C -11.638200 -20.059100 -44.668000
C -11.482600 -18.729700 -46.686100
N -11.469700 -19.820300 -43.326000
H -11.434800 -20.467800 -42.675700
C -11.410500 -18.825500 -45.302600
H -11.342000 -17.900100 -47.127800
C -11.152100 -18.499600 -43.202200
N -11.111400 -17.854000 -44.356600
N -11.045700 -18.592100 -40.842200
H -11.020800 -18.535100 -38.895500
C -10.889400 -17.856800 -41.911600
N -10.810900 -17.990600 -39.659500
C -10.495400 -16.488100 -41.852500
C -10.415500 -16.686000 -39.454100
H -10.398300 -15.981700 -42.650000
C -10.262000 -15.921300 -40.655400
O -10.242000 -16.278500 -38.295300
H -9.994300 -15.010600 -40.605600
