24
Fragment
H -11.419100 -21.003200 -55.829400
O -11.171400 -19.735300 -58.139700
C -11.151400 -20.092500 -55.779600
H -11.015100 -20.032100 -53.785000
C -10.997900 -19.327800 -56.980900
C -10.918000 -19.525700 -54.582500
N -10.602500 -18.023200 -56.775500
C -10.524000 -18.157000 -54.523400
H -10.392600 -17.478700 -57.539600
N -10.367700 -17.421700 -55.592800
N -10.302000 -18.159800 -52.078400
C -10.261300 -17.514200 -53.232800
H -10.071400 -18.113700 -49.307200
C -10.002900 -17.188300 -51.132400
H -9.978600 -15.546000 -53.759300
N -9.943700 -16.193500 -53.109000
C -9.930800 -17.284100 -49.748900
C -9.775200 -15.954700 -51.767000
C -9.647500 -16.134700 -49.030100
H -9.609600 -16.173800 -48.082500
C -9.466900 -14.799000 -51.058200
C -9.415500 -14.912100 -49.679500
H -9.300600 -13.973400 -51.496300
H -9.217800 -14.142600 -49.159300
24
Fragment
H -8.626700 -8.140300 -49.159300
H -8.543900 -7.971100 -51.496300
C -8.429000 -8.909800 -49.679500
C -8.377600 -8.796700 -51.058200
H -8.234900 -10.171500 -48.082500
C -8.197000 -10.132400 -49.030100
C -8.069300 -9.952400 -51.767000
C -7.913700 -11.281800 -49.748900
N -7.900800 -10.191200 -53.109000
H -7.865900 -9.543700 -53.759300
C -7.841600 -11.186000 -51.132400
H -7.773100 -12.111400 -49.307200
C -7.583200 -11.511900 -53.232800
N -7.542500 -12.157500 -52.078400
N -7.476800 -11.419400 -55.592800
H -7.451900 -11.476400 -57.539600
C -7.320500 -12.154700 -54.523400
N -7.242000 -12.020900 -56.775500
C -6.926500 -13.523400 -54.582500
C -6.846600 -13.325500 -56.980900
H -6.829400 -14.029800 -53.785000
C -6.693100 -14.090200 -55.779600
O -6.673100 -13.733000 -58.139700
H -6.425400 -15.000900 -55.829400
48
Fragment
H -11.419100 -21.003200 -55.829400
O -11.171400 -19.735300 -58.139700
C -11.151400 -20.092500 -55.779600
H -11.015100 -20.032100 -53.785000
C -10.997900 -19.327800 -56.980900
C -10.918000 -19.525700 -54.582500
N -10.602500 -18.023200 -56.775500
C -10.524000 -18.157000 -54.523400
H -10.392600 -17.478700 -57.539600
N -10.367700 -17.421700 -55.592800
N -10.302000 -18.159800 -52.078400
C -10.261300 -17.514200 -53.232800
H -10.071400 -18.113700 -49.307200
C -10.002900 -17.188300 -51.132400
H -9.978600 -15.546000 -53.759300
N -9.943700 -16.193500 -53.109000
C -9.930800 -17.284100 -49.748900
C -9.775200 -15.954700 -51.767000
C -9.647500 -16.134700 -49.030100
H -9.609600 -16.173800 -48.082500
C -9.466900 -14.799000 -51.058200
C -9.415500 -14.912100 -49.679500
H -9.300600 -13.973400 -51.496300
H -9.217800 -14.142600 -49.159300
H -8.626700 -8.140300 -49.159300
H -8.543900 -7.971100 -51.496300
C -8.429000 -8.909800 -49.679500
C -8.377600 -8.796700 -51.058200
H -8.234900 -10.171500 -48.082500
C -8.197000 -10.132400 -49.030100
C -8.069300 -9.952400 -51.767000
C -7.913700 -11.281800 -49.748900
N -7.900800 -10.191200 -53.109000
H -7.865900 -9.543700 -53.759300
C -7.841600 -11.186000 -51.132400
H -7.773100 -12.111400 -49.307200
C -7.583200 -11.511900 -53.232800
N -7.542500 -12.157500 -52.078400
N -7.476800 -11.419400 -55.592800
H -7.451900 -11.476400 -57.539600
C -7.320500 -12.154700 -54.523400
N -7.242000 -12.020900 -56.775500
C -6.926500 -13.523400 -54.582500
C -6.846600 -13.325500 -56.980900
H -6.829400 -14.029800 -53.785000
C -6.693100 -14.090200 -55.779600
O -6.673100 -13.733000 -58.139700
H -6.425400 -15.000900 -55.829400
