24
Fragment
H -11.419100 -21.003200 -55.829400
O -11.171400 -19.735300 -58.139700
C -11.151400 -20.092500 -55.779600
H -11.015100 -20.032100 -53.785000
C -10.997900 -19.327800 -56.980900
C -10.918000 -19.525700 -54.582500
N -10.602500 -18.023200 -56.775500
C -10.524000 -18.157000 -54.523400
H -10.392600 -17.478700 -57.539600
N -10.367700 -17.421700 -55.592800
N -10.302000 -18.159800 -52.078400
C -10.261300 -17.514200 -53.232800
H -10.071400 -18.113700 -49.307200
C -10.002900 -17.188300 -51.132400
H -9.978600 -15.546000 -53.759300
N -9.943700 -16.193500 -53.109000
C -9.930800 -17.284100 -49.748900
C -9.775200 -15.954700 -51.767000
C -9.647500 -16.134700 -49.030100
H -9.609600 -16.173800 -48.082500
C -9.466900 -14.799000 -51.058200
C -9.415500 -14.912100 -49.679500
H -9.300600 -13.973400 -51.496300
H -9.217800 -14.142600 -49.159300
24
Fragment
H -7.850200 -21.003200 -56.678100
O -7.602500 -19.735300 -54.367800
C -7.582500 -20.092500 -56.727900
H -7.446200 -20.032100 -58.722500
C -7.429000 -19.327800 -55.526600
C -7.349100 -19.525700 -57.925000
N -7.033600 -18.023200 -55.732000
C -6.955100 -18.157000 -57.984100
H -6.823700 -17.478700 -54.968000
N -6.798800 -17.421700 -56.914700
N -6.733100 -18.159800 -60.429100
C -6.692400 -17.514200 -59.274700
H -6.502500 -18.113700 -63.200300
C -6.434000 -17.188300 -61.375100
H -6.409700 -15.546000 -58.748200
N -6.374800 -16.193500 -59.398500
C -6.361900 -17.284100 -62.758600
C -6.206300 -15.954700 -60.740500
C -6.078600 -16.134700 -63.477400
H -6.040700 -16.173800 -64.425000
C -5.898000 -14.799000 -61.449300
C -5.846600 -14.912100 -62.828000
H -5.731700 -13.973400 -61.011200
H -5.648900 -14.142600 -63.348200
48
Fragment
H -11.419100 -21.003200 -55.829400
O -11.171400 -19.735300 -58.139700
C -11.151400 -20.092500 -55.779600
H -11.015100 -20.032100 -53.785000
C -10.997900 -19.327800 -56.980900
C -10.918000 -19.525700 -54.582500
N -10.602500 -18.023200 -56.775500
C -10.524000 -18.157000 -54.523400
H -10.392600 -17.478700 -57.539600
N -10.367700 -17.421700 -55.592800
N -10.302000 -18.159800 -52.078400
C -10.261300 -17.514200 -53.232800
H -10.071400 -18.113700 -49.307200
C -10.002900 -17.188300 -51.132400
H -9.978600 -15.546000 -53.759300
N -9.943700 -16.193500 -53.109000
C -9.930800 -17.284100 -49.748900
C -9.775200 -15.954700 -51.767000
C -9.647500 -16.134700 -49.030100
H -9.609600 -16.173800 -48.082500
C -9.466900 -14.799000 -51.058200
C -9.415500 -14.912100 -49.679500
H -9.300600 -13.973400 -51.496300
H -9.217800 -14.142600 -49.159300
H -7.850200 -21.003200 -56.678100
O -7.602500 -19.735300 -54.367800
C -7.582500 -20.092500 -56.727900
H -7.446200 -20.032100 -58.722500
C -7.429000 -19.327800 -55.526600
C -7.349100 -19.525700 -57.925000
N -7.033600 -18.023200 -55.732000
C -6.955100 -18.157000 -57.984100
H -6.823700 -17.478700 -54.968000
N -6.798800 -17.421700 -56.914700
N -6.733100 -18.159800 -60.429100
C -6.692400 -17.514200 -59.274700
H -6.502500 -18.113700 -63.200300
C -6.434000 -17.188300 -61.375100
H -6.409700 -15.546000 -58.748200
N -6.374800 -16.193500 -59.398500
C -6.361900 -17.284100 -62.758600
C -6.206300 -15.954700 -60.740500
C -6.078600 -16.134700 -63.477400
H -6.040700 -16.173800 -64.425000
C -5.898000 -14.799000 -61.449300
C -5.846600 -14.912100 -62.828000
H -5.731700 -13.973400 -61.011200
H -5.648900 -14.142600 -63.348200
