15
Fragment
O -21.978700 -3.727000 -19.304400
H -21.962900 -3.014900 -18.898100
H -21.445300 -5.678900 -20.341100
N -20.661400 -4.111300 -19.631800
C -20.646500 -5.220300 -20.212900
H -20.192700 -7.497200 -21.461200
C -19.399700 -5.807400 -20.690900
C -19.397300 -7.027100 -21.350700
C -18.218300 -7.542700 -21.842500
H -18.208600 -8.366600 -22.273900
C -18.178200 -5.146000 -20.566700
H -18.154800 -4.328500 -20.124800
C -17.054300 -6.822000 -21.687500
N -17.043200 -5.641500 -21.057500
H -16.259100 -7.163600 -22.028200
14
Fragment
O -25.561700 1.769300 -16.494600
H -25.109200 -0.172800 -17.841300
C -24.498700 1.189700 -16.654200
N -24.389200 0.091600 -17.452500
H -23.411000 2.275100 -15.519200
N -23.355600 1.576300 -16.017200
O -23.295400 -1.570500 -18.477600
C -23.246500 -0.645300 -17.707400
C -22.115100 0.964400 -16.085800
C -22.042100 -0.205700 -16.984200
O -21.186400 1.387900 -15.428900
N -20.828100 -0.745500 -17.032100
O -20.698800 -1.761200 -17.831800
H -19.923600 -2.026800 -17.813500
29
Fragment
O -21.978700 -3.727000 -19.304400
H -21.962900 -3.014900 -18.898100
H -21.445300 -5.678900 -20.341100
N -20.661400 -4.111300 -19.631800
C -20.646500 -5.220300 -20.212900
H -20.192700 -7.497200 -21.461200
C -19.399700 -5.807400 -20.690900
C -19.397300 -7.027100 -21.350700
C -18.218300 -7.542700 -21.842500
H -18.208600 -8.366600 -22.273900
C -18.178200 -5.146000 -20.566700
H -18.154800 -4.328500 -20.124800
C -17.054300 -6.822000 -21.687500
N -17.043200 -5.641500 -21.057500
H -16.259100 -7.163600 -22.028200
O -25.561700 1.769300 -16.494600
H -25.109200 -0.172800 -17.841300
C -24.498700 1.189700 -16.654200
N -24.389200 0.091600 -17.452500
H -23.411000 2.275100 -15.519200
N -23.355600 1.576300 -16.017200
O -23.295400 -1.570500 -18.477600
C -23.246500 -0.645300 -17.707400
C -22.115100 0.964400 -16.085800
C -22.042100 -0.205700 -16.984200
O -21.186400 1.387900 -15.428900
N -20.828100 -0.745500 -17.032100
O -20.698800 -1.761200 -17.831800
H -19.923600 -2.026800 -17.813500
