15
Fragment
O -21.978700 -3.727000 -19.304400
H -21.962900 -3.014900 -18.898100
H -21.445300 -5.678900 -20.341100
N -20.661400 -4.111300 -19.631800
C -20.646500 -5.220300 -20.212900
H -20.192700 -7.497200 -21.461200
C -19.399700 -5.807400 -20.690900
C -19.397300 -7.027100 -21.350700
C -18.218300 -7.542700 -21.842500
H -18.208600 -8.366600 -22.273900
C -18.178200 -5.146000 -20.566700
H -18.154800 -4.328500 -20.124800
C -17.054300 -6.822000 -21.687500
N -17.043200 -5.641500 -21.057500
H -16.259100 -7.163600 -22.028200
14
Fragment
O -24.753700 -4.649900 -24.219400
H -24.301200 -2.707800 -25.566200
C -23.690800 -4.070400 -24.379000
N -23.581200 -2.972300 -25.177300
H -22.603000 -5.155800 -23.244100
N -22.547700 -4.456900 -23.742100
O -22.487500 -1.310100 -26.202400
C -22.438600 -2.235400 -25.432300
C -21.307100 -3.845100 -23.810600
C -21.234200 -2.675000 -24.709100
O -20.378500 -4.268500 -23.153700
N -20.020100 -2.135100 -24.756900
O -19.890900 -1.119400 -25.556600
H -19.115700 -0.853800 -25.538400
29
Fragment
O -21.978700 -3.727000 -19.304400
H -21.962900 -3.014900 -18.898100
H -21.445300 -5.678900 -20.341100
N -20.661400 -4.111300 -19.631800
C -20.646500 -5.220300 -20.212900
H -20.192700 -7.497200 -21.461200
C -19.399700 -5.807400 -20.690900
C -19.397300 -7.027100 -21.350700
C -18.218300 -7.542700 -21.842500
H -18.208600 -8.366600 -22.273900
C -18.178200 -5.146000 -20.566700
H -18.154800 -4.328500 -20.124800
C -17.054300 -6.822000 -21.687500
N -17.043200 -5.641500 -21.057500
H -16.259100 -7.163600 -22.028200
O -24.753700 -4.649900 -24.219400
H -24.301200 -2.707800 -25.566200
C -23.690800 -4.070400 -24.379000
N -23.581200 -2.972300 -25.177300
H -22.603000 -5.155800 -23.244100
N -22.547700 -4.456900 -23.742100
O -22.487500 -1.310100 -26.202400
C -22.438600 -2.235400 -25.432300
C -21.307100 -3.845100 -23.810600
C -21.234200 -2.675000 -24.709100
O -20.378500 -4.268500 -23.153700
N -20.020100 -2.135100 -24.756900
O -19.890900 -1.119400 -25.556600
H -19.115700 -0.853800 -25.538400
