15
Fragment
O -21.978700 -3.727000 -19.304400
H -21.962900 -3.014900 -18.898100
H -21.445300 -5.678900 -20.341100
N -20.661400 -4.111300 -19.631800
C -20.646500 -5.220300 -20.212900
H -20.192700 -7.497200 -21.461200
C -19.399700 -5.807400 -20.690900
C -19.397300 -7.027100 -21.350700
C -18.218300 -7.542700 -21.842500
H -18.208600 -8.366600 -22.273900
C -18.178200 -5.146000 -20.566700
H -18.154800 -4.328500 -20.124800
C -17.054300 -6.822000 -21.687500
N -17.043200 -5.641500 -21.057500
H -16.259100 -7.163600 -22.028200
15
Fragment
H -19.127100 -10.044300 -16.596100
N -18.343000 -8.522100 -17.566800
C -18.331900 -9.702600 -16.936800
H -17.231400 -7.209100 -18.499500
C -17.207900 -8.026600 -18.057600
H -17.177500 -11.247200 -16.350400
C -17.167900 -10.423300 -16.781800
C -15.988900 -9.907700 -17.273600
C -15.986500 -8.688000 -17.933400
H -15.193500 -10.377800 -17.163100
C -14.739700 -8.101000 -18.411400
N -14.724800 -6.991900 -18.992500
H -13.940900 -8.559600 -18.283200
H -13.423300 -5.895500 -19.726200
O -13.407500 -6.607600 -19.319900
30
Fragment
O -21.978700 -3.727000 -19.304400
H -21.962900 -3.014900 -18.898100
H -21.445300 -5.678900 -20.341100
N -20.661400 -4.111300 -19.631800
C -20.646500 -5.220300 -20.212900
H -20.192700 -7.497200 -21.461200
C -19.399700 -5.807400 -20.690900
C -19.397300 -7.027100 -21.350700
C -18.218300 -7.542700 -21.842500
H -18.208600 -8.366600 -22.273900
C -18.178200 -5.146000 -20.566700
H -18.154800 -4.328500 -20.124800
C -17.054300 -6.822000 -21.687500
N -17.043200 -5.641500 -21.057500
H -16.259100 -7.163600 -22.028200
H -19.127100 -10.044300 -16.596100
N -18.343000 -8.522100 -17.566800
C -18.331900 -9.702600 -16.936800
H -17.231400 -7.209100 -18.499500
C -17.207900 -8.026600 -18.057600
H -17.177500 -11.247200 -16.350400
C -17.167900 -10.423300 -16.781800
C -15.988900 -9.907700 -17.273600
C -15.986500 -8.688000 -17.933400
H -15.193500 -10.377800 -17.163100
C -14.739700 -8.101000 -18.411400
N -14.724800 -6.991900 -18.992500
H -13.940900 -8.559600 -18.283200
H -13.423300 -5.895500 -19.726200
O -13.407500 -6.607600 -19.319900
