15
Fragment
O -21.978700 -3.727000 -19.304400
H -21.962900 -3.014900 -18.898100
H -21.445300 -5.678900 -20.341100
N -20.661400 -4.111300 -19.631800
C -20.646500 -5.220300 -20.212900
H -20.192700 -7.497200 -21.461200
C -19.399700 -5.807400 -20.690900
C -19.397300 -7.027100 -21.350700
C -18.218300 -7.542700 -21.842500
H -18.208600 -8.366600 -22.273900
C -18.178200 -5.146000 -20.566700
H -18.154800 -4.328500 -20.124800
C -17.054300 -6.822000 -21.687500
N -17.043200 -5.641500 -21.057500
H -16.259100 -7.163600 -22.028200
14
Fragment
H -15.462500 -10.668800 -20.810800
O -14.687400 -10.403200 -20.792500
N -14.558100 -9.387500 -21.592200
O -14.199700 -7.254100 -23.195400
C -13.344000 -8.847600 -21.640100
C -13.271100 -7.677500 -22.538500
C -12.139700 -9.287200 -20.916900
O -12.090800 -10.212500 -20.146700
N -12.030600 -7.065700 -22.607100
H -11.975200 -6.366800 -23.105100
N -10.997000 -8.550300 -21.171800
C -10.887500 -7.452200 -21.970100
H -10.277000 -8.814800 -20.783000
O -9.824500 -6.872700 -22.129700
29
Fragment
O -21.978700 -3.727000 -19.304400
H -21.962900 -3.014900 -18.898100
H -21.445300 -5.678900 -20.341100
N -20.661400 -4.111300 -19.631800
C -20.646500 -5.220300 -20.212900
H -20.192700 -7.497200 -21.461200
C -19.399700 -5.807400 -20.690900
C -19.397300 -7.027100 -21.350700
C -18.218300 -7.542700 -21.842500
H -18.208600 -8.366600 -22.273900
C -18.178200 -5.146000 -20.566700
H -18.154800 -4.328500 -20.124800
C -17.054300 -6.822000 -21.687500
N -17.043200 -5.641500 -21.057500
H -16.259100 -7.163600 -22.028200
H -15.462500 -10.668800 -20.810800
O -14.687400 -10.403200 -20.792500
N -14.558100 -9.387500 -21.592200
O -14.199700 -7.254100 -23.195400
C -13.344000 -8.847600 -21.640100
C -13.271100 -7.677500 -22.538500
C -12.139700 -9.287200 -20.916900
O -12.090800 -10.212500 -20.146700
N -12.030600 -7.065700 -22.607100
H -11.975200 -6.366800 -23.105100
N -10.997000 -8.550300 -21.171800
C -10.887500 -7.452200 -21.970100
H -10.277000 -8.814800 -20.783000
O -9.824500 -6.872700 -22.129700
