25
Fragment
H -11.365900 -12.574000 -21.727600
H -11.354000 -10.534900 -19.847100
H -10.610000 -11.723400 -19.126300
N -10.572000 -8.749500 -18.158800
N -10.567100 -12.898100 -21.798900
C -10.502300 -10.833500 -19.521600
H -10.456900 -13.497800 -21.150100
C -10.026600 -9.882500 -18.479500
N -9.783700 -8.169100 -17.147600
N -9.633700 -11.868000 -21.634600
C -9.542400 -10.922600 -20.660300
N -8.905600 -10.086400 -17.733900
H -8.812400 -13.106400 -23.726100
C -8.791000 -9.001600 -16.925200
C -8.576500 -11.656200 -22.462500
H -8.552600 -11.885100 -17.321300
N -8.513500 -10.162700 -20.874500
N -8.317900 -12.418200 -23.534600
N -8.055500 -11.202600 -17.685500
N -7.870900 -10.632900 -22.037300
H -7.867900 -8.132900 -15.517900
H -7.863600 -11.459600 -18.507900
N -7.812500 -8.870800 -15.999400
H -7.648100 -12.204700 -24.044000
H -7.044300 -9.208500 -16.175700
25
Fragment
H -6.279300 -11.052800 -15.297600
H -5.675500 -8.056600 -7.429300
N -5.511200 -11.390500 -15.473800
H -5.460100 -8.801700 -12.965400
H -5.455700 -12.128400 -15.955400
N -5.452700 -9.628400 -9.436000
N -5.268200 -9.058600 -13.787800
N -5.005700 -7.843100 -7.938700
N -4.810200 -10.098600 -10.598800
H -4.771000 -8.376200 -14.152000
C -4.747200 -8.605100 -9.010800
C -4.532600 -11.259700 -14.548100
H -4.511300 -7.154900 -7.747200
N -4.418100 -10.174800 -13.739400
C -3.781300 -9.338700 -10.813000
N -3.690000 -8.393300 -9.838700
N -3.540000 -12.092200 -14.325700
C -3.297100 -10.378800 -12.993700
H -2.866800 -6.763500 -10.323200
C -2.821400 -9.427700 -11.951700
N -2.756500 -7.363200 -9.674400
N -2.751600 -11.511800 -13.314500
H -2.713600 -8.537800 -12.347000
H -1.969700 -9.726400 -11.626200
H -1.957700 -7.687300 -9.745700
50
Fragment
H -11.365900 -12.574000 -21.727600
H -11.354000 -10.534900 -19.847100
H -10.610000 -11.723400 -19.126300
N -10.572000 -8.749500 -18.158800
N -10.567100 -12.898100 -21.798900
C -10.502300 -10.833500 -19.521600
H -10.456900 -13.497800 -21.150100
C -10.026600 -9.882500 -18.479500
N -9.783700 -8.169100 -17.147600
N -9.633700 -11.868000 -21.634600
C -9.542400 -10.922600 -20.660300
N -8.905600 -10.086400 -17.733900
H -8.812400 -13.106400 -23.726100
C -8.791000 -9.001600 -16.925200
C -8.576500 -11.656200 -22.462500
H -8.552600 -11.885100 -17.321300
N -8.513500 -10.162700 -20.874500
N -8.317900 -12.418200 -23.534600
N -8.055500 -11.202600 -17.685500
N -7.870900 -10.632900 -22.037300
H -7.867900 -8.132900 -15.517900
H -7.863600 -11.459600 -18.507900
N -7.812500 -8.870800 -15.999400
H -7.648100 -12.204700 -24.044000
H -7.044300 -9.208500 -16.175700
H -6.279300 -11.052800 -15.297600
H -5.675500 -8.056600 -7.429300
N -5.511200 -11.390500 -15.473800
H -5.460100 -8.801700 -12.965400
H -5.455700 -12.128400 -15.955400
N -5.452700 -9.628400 -9.436000
N -5.268200 -9.058600 -13.787800
N -5.005700 -7.843100 -7.938700
N -4.810200 -10.098600 -10.598800
H -4.771000 -8.376200 -14.152000
C -4.747200 -8.605100 -9.010800
C -4.532600 -11.259700 -14.548100
H -4.511300 -7.154900 -7.747200
N -4.418100 -10.174800 -13.739400
C -3.781300 -9.338700 -10.813000
N -3.690000 -8.393300 -9.838700
N -3.540000 -12.092200 -14.325700
C -3.297100 -10.378800 -12.993700
H -2.866800 -6.763500 -10.323200
C -2.821400 -9.427700 -11.951700
N -2.756500 -7.363200 -9.674400
N -2.751600 -11.511800 -13.314500
H -2.713600 -8.537800 -12.347000
H -1.969700 -9.726400 -11.626200
H -1.957700 -7.687300 -9.745700
