25
Fragment
H -11.365900 -12.574000 -21.727600
H -11.354000 -10.534900 -19.847100
H -10.610000 -11.723400 -19.126300
N -10.572000 -8.749500 -18.158800
N -10.567100 -12.898100 -21.798900
C -10.502300 -10.833500 -19.521600
H -10.456900 -13.497800 -21.150100
C -10.026600 -9.882500 -18.479500
N -9.783700 -8.169100 -17.147600
N -9.633700 -11.868000 -21.634600
C -9.542400 -10.922600 -20.660300
N -8.905600 -10.086400 -17.733900
H -8.812400 -13.106400 -23.726100
C -8.791000 -9.001600 -16.925200
C -8.576500 -11.656200 -22.462500
H -8.552600 -11.885100 -17.321300
N -8.513500 -10.162700 -20.874500
N -8.317900 -12.418200 -23.534600
N -8.055500 -11.202600 -17.685500
N -7.870900 -10.632900 -22.037300
H -7.867900 -8.132900 -15.517900
H -7.863600 -11.459600 -18.507900
N -7.812500 -8.870800 -15.999400
H -7.648100 -12.204700 -24.044000
H -7.044300 -9.208500 -16.175700
25
Fragment
H -6.938100 -12.772200 -31.034200
H -6.334300 -9.776000 -23.165900
N -6.170000 -13.109900 -31.210500
H -6.118900 -10.521100 -28.702100
H -6.114500 -13.847800 -31.692000
N -6.111500 -11.347800 -25.172700
N -5.927000 -10.778000 -29.524500
N -5.664500 -9.562500 -23.675300
N -5.468900 -11.818000 -26.335400
H -5.429800 -10.095600 -29.888600
C -5.406000 -10.324500 -24.747400
C -5.191400 -12.979100 -30.284700
H -5.170100 -8.874300 -23.483800
N -5.076800 -11.894200 -29.476000
C -4.440100 -11.058100 -26.549600
N -4.348700 -10.112700 -25.575400
N -4.198800 -13.811600 -30.062300
C -3.955800 -12.098200 -28.730400
H -3.525500 -8.482900 -26.059900
C -3.480200 -11.147100 -27.688300
N -3.415300 -9.082600 -25.411100
N -3.410400 -13.231200 -29.051100
H -3.372400 -10.257200 -28.083600
H -2.628500 -11.445800 -27.362900
H -2.616500 -9.406700 -25.482300
50
Fragment
H -11.365900 -12.574000 -21.727600
H -11.354000 -10.534900 -19.847100
H -10.610000 -11.723400 -19.126300
N -10.572000 -8.749500 -18.158800
N -10.567100 -12.898100 -21.798900
C -10.502300 -10.833500 -19.521600
H -10.456900 -13.497800 -21.150100
C -10.026600 -9.882500 -18.479500
N -9.783700 -8.169100 -17.147600
N -9.633700 -11.868000 -21.634600
C -9.542400 -10.922600 -20.660300
N -8.905600 -10.086400 -17.733900
H -8.812400 -13.106400 -23.726100
C -8.791000 -9.001600 -16.925200
C -8.576500 -11.656200 -22.462500
H -8.552600 -11.885100 -17.321300
N -8.513500 -10.162700 -20.874500
N -8.317900 -12.418200 -23.534600
N -8.055500 -11.202600 -17.685500
N -7.870900 -10.632900 -22.037300
H -7.867900 -8.132900 -15.517900
H -7.863600 -11.459600 -18.507900
N -7.812500 -8.870800 -15.999400
H -7.648100 -12.204700 -24.044000
H -7.044300 -9.208500 -16.175700
H -6.938100 -12.772200 -31.034200
H -6.334300 -9.776000 -23.165900
N -6.170000 -13.109900 -31.210500
H -6.118900 -10.521100 -28.702100
H -6.114500 -13.847800 -31.692000
N -6.111500 -11.347800 -25.172700
N -5.927000 -10.778000 -29.524500
N -5.664500 -9.562500 -23.675300
N -5.468900 -11.818000 -26.335400
H -5.429800 -10.095600 -29.888600
C -5.406000 -10.324500 -24.747400
C -5.191400 -12.979100 -30.284700
H -5.170100 -8.874300 -23.483800
N -5.076800 -11.894200 -29.476000
C -4.440100 -11.058100 -26.549600
N -4.348700 -10.112700 -25.575400
N -4.198800 -13.811600 -30.062300
C -3.955800 -12.098200 -28.730400
H -3.525500 -8.482900 -26.059900
C -3.480200 -11.147100 -27.688300
N -3.415300 -9.082600 -25.411100
N -3.410400 -13.231200 -29.051100
H -3.372400 -10.257200 -28.083600
H -2.628500 -11.445800 -27.362900
H -2.616500 -9.406700 -25.482300
