25
Fragment
H -11.365900 -12.574000 -21.727600
H -11.354000 -10.534900 -19.847100
H -10.610000 -11.723400 -19.126300
N -10.572000 -8.749500 -18.158800
N -10.567100 -12.898100 -21.798900
C -10.502300 -10.833500 -19.521600
H -10.456900 -13.497800 -21.150100
C -10.026600 -9.882500 -18.479500
N -9.783700 -8.169100 -17.147600
N -9.633700 -11.868000 -21.634600
C -9.542400 -10.922600 -20.660300
N -8.905600 -10.086400 -17.733900
H -8.812400 -13.106400 -23.726100
C -8.791000 -9.001600 -16.925200
C -8.576500 -11.656200 -22.462500
H -8.552600 -11.885100 -17.321300
N -8.513500 -10.162700 -20.874500
N -8.317900 -12.418200 -23.534600
N -8.055500 -11.202600 -17.685500
N -7.870900 -10.632900 -22.037300
H -7.867900 -8.132900 -15.517900
H -7.863600 -11.459600 -18.507900
N -7.812500 -8.870800 -15.999400
H -7.648100 -12.204700 -24.044000
H -7.044300 -9.208500 -16.175700
25
Fragment
H -5.929500 -12.574000 -21.727600
H -5.917600 -10.534900 -19.847100
H -5.173600 -11.723400 -19.126300
N -5.135600 -8.749500 -18.158800
N -5.130700 -12.898100 -21.798900
C -5.065900 -10.833500 -19.521600
H -5.020500 -13.497800 -21.150100
C -4.590200 -9.882500 -18.479500
N -4.347300 -8.169100 -17.147600
N -4.197300 -11.868000 -21.634600
C -4.106000 -10.922600 -20.660300
N -3.469200 -10.086400 -17.733900
H -3.376000 -13.106400 -23.726100
C -3.354600 -9.001600 -16.925200
C -3.140100 -11.656200 -22.462500
H -3.116200 -11.885100 -17.321300
N -3.077100 -10.162700 -20.874500
N -2.881500 -12.418200 -23.534600
N -2.619100 -11.202600 -17.685500
N -2.434500 -10.632900 -22.037300
H -2.431500 -8.132900 -15.517900
H -2.427200 -11.459600 -18.507900
N -2.376100 -8.870800 -15.999400
H -2.211700 -12.204700 -24.044000
H -1.607900 -9.208500 -16.175700
50
Fragment
H -11.365900 -12.574000 -21.727600
H -11.354000 -10.534900 -19.847100
H -10.610000 -11.723400 -19.126300
N -10.572000 -8.749500 -18.158800
N -10.567100 -12.898100 -21.798900
C -10.502300 -10.833500 -19.521600
H -10.456900 -13.497800 -21.150100
C -10.026600 -9.882500 -18.479500
N -9.783700 -8.169100 -17.147600
N -9.633700 -11.868000 -21.634600
C -9.542400 -10.922600 -20.660300
N -8.905600 -10.086400 -17.733900
H -8.812400 -13.106400 -23.726100
C -8.791000 -9.001600 -16.925200
C -8.576500 -11.656200 -22.462500
H -8.552600 -11.885100 -17.321300
N -8.513500 -10.162700 -20.874500
N -8.317900 -12.418200 -23.534600
N -8.055500 -11.202600 -17.685500
N -7.870900 -10.632900 -22.037300
H -7.867900 -8.132900 -15.517900
H -7.863600 -11.459600 -18.507900
N -7.812500 -8.870800 -15.999400
H -7.648100 -12.204700 -24.044000
H -7.044300 -9.208500 -16.175700
H -5.929500 -12.574000 -21.727600
H -5.917600 -10.534900 -19.847100
H -5.173600 -11.723400 -19.126300
N -5.135600 -8.749500 -18.158800
N -5.130700 -12.898100 -21.798900
C -5.065900 -10.833500 -19.521600
H -5.020500 -13.497800 -21.150100
C -4.590200 -9.882500 -18.479500
N -4.347300 -8.169100 -17.147600
N -4.197300 -11.868000 -21.634600
C -4.106000 -10.922600 -20.660300
N -3.469200 -10.086400 -17.733900
H -3.376000 -13.106400 -23.726100
C -3.354600 -9.001600 -16.925200
C -3.140100 -11.656200 -22.462500
H -3.116200 -11.885100 -17.321300
N -3.077100 -10.162700 -20.874500
N -2.881500 -12.418200 -23.534600
N -2.619100 -11.202600 -17.685500
N -2.434500 -10.632900 -22.037300
H -2.431500 -8.132900 -15.517900
H -2.427200 -11.459600 -18.507900
N -2.376100 -8.870800 -15.999400
H -2.211700 -12.204700 -24.044000
H -1.607900 -9.208500 -16.175700
