26
Fragment
H -10.725700 -27.032200 -12.481300
N -10.207200 -27.561100 -14.312000
H -10.166600 -29.144200 -16.593100
C -10.015500 -27.208500 -13.056100
H -9.579000 -31.226000 -16.056400
H -9.517800 -30.276100 -14.803900
N -9.331800 -29.286400 -16.552400
C -9.138800 -30.448600 -15.679800
N -8.920700 -27.720400 -14.739200
H -8.863000 -27.364000 -16.725000
N -8.721500 -27.119400 -12.648900
C -8.612300 -28.105300 -16.135200
C -8.057300 -27.449300 -13.755400
C -7.683700 -30.693200 -15.566200
C -7.088200 -28.323300 -16.244700
N -7.042100 -31.806100 -15.198700
H -6.820000 -28.188700 -17.177000
N -6.816300 -29.741500 -15.875600
C -6.591400 -27.527000 -13.991000
N -6.377000 -27.396200 -15.429300
H -6.244100 -28.374500 -13.674900
H -6.136800 -26.812200 -13.517300
C -5.737600 -31.434500 -15.333900
H -5.542100 -27.358300 -15.631700
N -5.525600 -30.200300 -15.745300
H -5.037900 -32.016600 -15.145600
26
Fragment
H -17.532900 -27.032200 -12.481300
N -17.014400 -27.561100 -14.312000
H -16.973800 -29.144200 -16.593100
C -16.822700 -27.208500 -13.056100
H -16.386200 -31.226000 -16.056400
H -16.325000 -30.276100 -14.803900
N -16.139000 -29.286400 -16.552400
C -15.946000 -30.448600 -15.679800
N -15.727900 -27.720400 -14.739200
H -15.670200 -27.364000 -16.725000
N -15.528700 -27.119400 -12.648900
C -15.419500 -28.105300 -16.135200
C -14.864500 -27.449300 -13.755400
C -14.490900 -30.693200 -15.566200
C -13.895400 -28.323300 -16.244700
N -13.849300 -31.806100 -15.198700
H -13.627200 -28.188700 -17.177000
N -13.623500 -29.741500 -15.875600
C -13.398600 -27.527000 -13.991000
N -13.184200 -27.396200 -15.429300
H -13.051300 -28.374500 -13.674900
H -12.944000 -26.812200 -13.517300
C -12.544800 -31.434500 -15.333900
H -12.349300 -27.358300 -15.631700
N -12.332800 -30.200300 -15.745300
H -11.845100 -32.016600 -15.145600
52
Fragment
H -10.725700 -27.032200 -12.481300
N -10.207200 -27.561100 -14.312000
H -10.166600 -29.144200 -16.593100
C -10.015500 -27.208500 -13.056100
H -9.579000 -31.226000 -16.056400
H -9.517800 -30.276100 -14.803900
N -9.331800 -29.286400 -16.552400
C -9.138800 -30.448600 -15.679800
N -8.920700 -27.720400 -14.739200
H -8.863000 -27.364000 -16.725000
N -8.721500 -27.119400 -12.648900
C -8.612300 -28.105300 -16.135200
C -8.057300 -27.449300 -13.755400
C -7.683700 -30.693200 -15.566200
C -7.088200 -28.323300 -16.244700
N -7.042100 -31.806100 -15.198700
H -6.820000 -28.188700 -17.177000
N -6.816300 -29.741500 -15.875600
C -6.591400 -27.527000 -13.991000
N -6.377000 -27.396200 -15.429300
H -6.244100 -28.374500 -13.674900
H -6.136800 -26.812200 -13.517300
C -5.737600 -31.434500 -15.333900
H -5.542100 -27.358300 -15.631700
N -5.525600 -30.200300 -15.745300
H -5.037900 -32.016600 -15.145600
H -17.532900 -27.032200 -12.481300
N -17.014400 -27.561100 -14.312000
H -16.973800 -29.144200 -16.593100
C -16.822700 -27.208500 -13.056100
H -16.386200 -31.226000 -16.056400
H -16.325000 -30.276100 -14.803900
N -16.139000 -29.286400 -16.552400
C -15.946000 -30.448600 -15.679800
N -15.727900 -27.720400 -14.739200
H -15.670200 -27.364000 -16.725000
N -15.528700 -27.119400 -12.648900
C -15.419500 -28.105300 -16.135200
C -14.864500 -27.449300 -13.755400
C -14.490900 -30.693200 -15.566200
C -13.895400 -28.323300 -16.244700
N -13.849300 -31.806100 -15.198700
H -13.627200 -28.188700 -17.177000
N -13.623500 -29.741500 -15.875600
C -13.398600 -27.527000 -13.991000
N -13.184200 -27.396200 -15.429300
H -13.051300 -28.374500 -13.674900
H -12.944000 -26.812200 -13.517300
C -12.544800 -31.434500 -15.333900
H -12.349300 -27.358300 -15.631700
N -12.332800 -30.200300 -15.745300
H -11.845100 -32.016600 -15.145600
