26
Fragment
H -10.725700 -27.032200 -12.481300
N -10.207200 -27.561100 -14.312000
H -10.166600 -29.144200 -16.593100
C -10.015500 -27.208500 -13.056100
H -9.579000 -31.226000 -16.056400
H -9.517800 -30.276100 -14.803900
N -9.331800 -29.286400 -16.552400
C -9.138800 -30.448600 -15.679800
N -8.920700 -27.720400 -14.739200
H -8.863000 -27.364000 -16.725000
N -8.721500 -27.119400 -12.648900
C -8.612300 -28.105300 -16.135200
C -8.057300 -27.449300 -13.755400
C -7.683700 -30.693200 -15.566200
C -7.088200 -28.323300 -16.244700
N -7.042100 -31.806100 -15.198700
H -6.820000 -28.188700 -17.177000
N -6.816300 -29.741500 -15.875600
C -6.591400 -27.527000 -13.991000
N -6.377000 -27.396200 -15.429300
H -6.244100 -28.374500 -13.674900
H -6.136800 -26.812200 -13.517300
C -5.737600 -31.434500 -15.333900
H -5.542100 -27.358300 -15.631700
N -5.525600 -30.200300 -15.745300
H -5.037900 -32.016600 -15.145600
26
Fragment
H -13.877400 -29.159400 -19.334500
H -13.435300 -33.777900 -19.725200
N -13.400300 -30.979500 -19.926800
C -13.181900 -29.749000 -19.517900
H -12.874600 -34.276500 -17.644900
H -12.743600 -32.725600 -17.880400
N -12.594900 -33.795000 -19.577600
C -12.401800 -33.594000 -18.145900
N -12.131800 -31.451600 -20.052000
H -12.109100 -33.019500 -21.331100
N -11.873300 -29.388800 -19.380200
C -11.853900 -32.873500 -20.396300
C -11.243000 -30.496000 -19.731000
C -10.940900 -33.675500 -17.873000
C -10.334000 -33.082100 -20.271900
N -10.311200 -33.980800 -16.753200
H -10.076000 -33.834800 -20.844200
N -10.068400 -33.451800 -18.858400
C -9.787400 -30.763400 -19.844700
N -9.600500 -31.929400 -20.684100
H -9.409600 -30.924500 -18.965400
H -9.337700 -29.997400 -20.234500
H -9.089300 -31.927500 -21.375900
C -9.011100 -33.946600 -17.136400
N -8.783900 -33.620500 -18.396400
H -8.319300 -34.141900 -16.546600
52
Fragment
H -10.725700 -27.032200 -12.481300
N -10.207200 -27.561100 -14.312000
H -10.166600 -29.144200 -16.593100
C -10.015500 -27.208500 -13.056100
H -9.579000 -31.226000 -16.056400
H -9.517800 -30.276100 -14.803900
N -9.331800 -29.286400 -16.552400
C -9.138800 -30.448600 -15.679800
N -8.920700 -27.720400 -14.739200
H -8.863000 -27.364000 -16.725000
N -8.721500 -27.119400 -12.648900
C -8.612300 -28.105300 -16.135200
C -8.057300 -27.449300 -13.755400
C -7.683700 -30.693200 -15.566200
C -7.088200 -28.323300 -16.244700
N -7.042100 -31.806100 -15.198700
H -6.820000 -28.188700 -17.177000
N -6.816300 -29.741500 -15.875600
C -6.591400 -27.527000 -13.991000
N -6.377000 -27.396200 -15.429300
H -6.244100 -28.374500 -13.674900
H -6.136800 -26.812200 -13.517300
C -5.737600 -31.434500 -15.333900
H -5.542100 -27.358300 -15.631700
N -5.525600 -30.200300 -15.745300
H -5.037900 -32.016600 -15.145600
H -13.877400 -29.159400 -19.334500
H -13.435300 -33.777900 -19.725200
N -13.400300 -30.979500 -19.926800
C -13.181900 -29.749000 -19.517900
H -12.874600 -34.276500 -17.644900
H -12.743600 -32.725600 -17.880400
N -12.594900 -33.795000 -19.577600
C -12.401800 -33.594000 -18.145900
N -12.131800 -31.451600 -20.052000
H -12.109100 -33.019500 -21.331100
N -11.873300 -29.388800 -19.380200
C -11.853900 -32.873500 -20.396300
C -11.243000 -30.496000 -19.731000
C -10.940900 -33.675500 -17.873000
C -10.334000 -33.082100 -20.271900
N -10.311200 -33.980800 -16.753200
H -10.076000 -33.834800 -20.844200
N -10.068400 -33.451800 -18.858400
C -9.787400 -30.763400 -19.844700
N -9.600500 -31.929400 -20.684100
H -9.409600 -30.924500 -18.965400
H -9.337700 -29.997400 -20.234500
H -9.089300 -31.927500 -21.375900
C -9.011100 -33.946600 -17.136400
N -8.783900 -33.620500 -18.396400
H -8.319300 -34.141900 -16.546600
