23
Fragment
H -11.695500 -5.267900 -10.779900
H -11.374800 -4.366900 -9.637500
N -11.127400 -4.954900 -10.214200
O -10.430900 -7.578700 -9.081800
H -10.362000 -9.988200 -9.255100
N -10.076500 -9.596600 -9.965800
C -10.051800 -8.282400 -10.028300
C -9.876900 -5.377300 -10.232500
H -9.808500 -10.064100 -10.635800
C -9.552000 -7.659400 -11.269100
C -9.474900 -6.279700 -11.367400
O -9.164100 -9.682200 -12.504800
C -9.116700 -8.434600 -12.396500
O -9.008900 -4.975900 -9.456700
C -8.972700 -5.639000 -12.499800
H -8.938400 -4.709900 -12.534000
H -8.643100 -5.878500 -15.518700
N -8.628400 -7.727000 -13.472200
C -8.536600 -6.373000 -13.548900
H -8.359000 -8.179100 -14.152200
C -7.988800 -5.795700 -14.821300
H -7.778800 -4.868600 -14.688000
H -7.192700 -6.270700 -15.071300
23
Fragment
H -14.541400 -12.067000 -1.594000
H -13.955300 -13.469100 -1.977300
C -13.745300 -12.542000 -1.844000
H -13.375100 -10.158600 -2.513100
C -13.197500 -11.964700 -3.116400
N -13.105700 -10.610700 -3.193100
H -13.091000 -12.459200 -1.146600
H -12.795700 -13.627800 -4.131300
C -12.761400 -12.698700 -4.165500
O -12.725200 -13.361800 -7.208600
C -12.617400 -9.903100 -4.268800
O -12.570000 -8.655500 -4.160500
C -12.259200 -12.058000 -5.297900
C -12.182100 -10.678300 -5.396200
H -11.925600 -8.273700 -6.029500
C -11.857300 -12.960400 -6.432800
C -11.682400 -10.055300 -6.637000
N -11.657600 -8.741100 -6.699400
H -11.372100 -8.349500 -7.410200
O -11.303200 -10.759000 -7.583500
N -10.606800 -13.382800 -6.451100
H -10.359300 -13.970800 -7.027800
H -10.038600 -13.069800 -5.885300
46
Fragment
H -11.695500 -5.267900 -10.779900
H -11.374800 -4.366900 -9.637500
N -11.127400 -4.954900 -10.214200
O -10.430900 -7.578700 -9.081800
H -10.362000 -9.988200 -9.255100
N -10.076500 -9.596600 -9.965800
C -10.051800 -8.282400 -10.028300
C -9.876900 -5.377300 -10.232500
H -9.808500 -10.064100 -10.635800
C -9.552000 -7.659400 -11.269100
C -9.474900 -6.279700 -11.367400
O -9.164100 -9.682200 -12.504800
C -9.116700 -8.434600 -12.396500
O -9.008900 -4.975900 -9.456700
C -8.972700 -5.639000 -12.499800
H -8.938400 -4.709900 -12.534000
H -8.643100 -5.878500 -15.518700
N -8.628400 -7.727000 -13.472200
C -8.536600 -6.373000 -13.548900
H -8.359000 -8.179100 -14.152200
C -7.988800 -5.795700 -14.821300
H -7.778800 -4.868600 -14.688000
H -7.192700 -6.270700 -15.071300
H -14.541400 -12.067000 -1.594000
H -13.955300 -13.469100 -1.977300
C -13.745300 -12.542000 -1.844000
H -13.375100 -10.158600 -2.513100
C -13.197500 -11.964700 -3.116400
N -13.105700 -10.610700 -3.193100
H -13.091000 -12.459200 -1.146600
H -12.795700 -13.627800 -4.131300
C -12.761400 -12.698700 -4.165500
O -12.725200 -13.361800 -7.208600
C -12.617400 -9.903100 -4.268800
O -12.570000 -8.655500 -4.160500
C -12.259200 -12.058000 -5.297900
C -12.182100 -10.678300 -5.396200
H -11.925600 -8.273700 -6.029500
C -11.857300 -12.960400 -6.432800
C -11.682400 -10.055300 -6.637000
N -11.657600 -8.741100 -6.699400
H -11.372100 -8.349500 -7.410200
O -11.303200 -10.759000 -7.583500
N -10.606800 -13.382800 -6.451100
H -10.359300 -13.970800 -7.027800
H -10.038600 -13.069800 -5.885300
