23
Fragment
H -11.695500 -5.267900 -10.779900
H -11.374800 -4.366900 -9.637500
N -11.127400 -4.954900 -10.214200
O -10.430900 -7.578700 -9.081800
H -10.362000 -9.988200 -9.255100
N -10.076500 -9.596600 -9.965800
C -10.051800 -8.282400 -10.028300
C -9.876900 -5.377300 -10.232500
H -9.808500 -10.064100 -10.635800
C -9.552000 -7.659400 -11.269100
C -9.474900 -6.279700 -11.367400
O -9.164100 -9.682200 -12.504800
C -9.116700 -8.434600 -12.396500
O -9.008900 -4.975900 -9.456700
C -8.972700 -5.639000 -12.499800
H -8.938400 -4.709900 -12.534000
H -8.643100 -5.878500 -15.518700
N -8.628400 -7.727000 -13.472200
C -8.536600 -6.373000 -13.548900
H -8.359000 -8.179100 -14.152200
C -7.988800 -5.795700 -14.821300
H -7.778800 -4.868600 -14.688000
H -7.192700 -6.270700 -15.071300
23
Fragment
H -7.279000 -1.861500 -9.926700
H -6.692900 -3.263600 -10.310000
C -6.482900 -2.336500 -10.176700
H -6.112700 0.046900 -10.845800
C -5.935100 -1.759200 -11.449100
N -5.843300 -0.405200 -11.525700
H -5.828600 -2.253700 -9.479200
H -5.533300 -3.422300 -12.464000
C -5.499000 -2.493100 -12.498100
O -5.462800 -3.156300 -15.541200
C -5.355000 0.302400 -12.601500
O -5.307700 1.550000 -12.493100
C -4.996800 -1.852500 -13.630500
C -4.919800 -0.472700 -13.728900
H -4.663200 1.931900 -14.362200
C -4.594900 -2.754900 -14.765500
C -4.420000 0.150200 -14.969600
N -4.395200 1.464400 -15.032100
H -4.109800 1.856000 -15.742900
O -4.040800 -0.553500 -15.916200
N -3.344400 -3.177300 -14.783800
H -3.096900 -3.765300 -15.360400
H -2.776200 -2.864300 -14.218000
46
Fragment
H -11.695500 -5.267900 -10.779900
H -11.374800 -4.366900 -9.637500
N -11.127400 -4.954900 -10.214200
O -10.430900 -7.578700 -9.081800
H -10.362000 -9.988200 -9.255100
N -10.076500 -9.596600 -9.965800
C -10.051800 -8.282400 -10.028300
C -9.876900 -5.377300 -10.232500
H -9.808500 -10.064100 -10.635800
C -9.552000 -7.659400 -11.269100
C -9.474900 -6.279700 -11.367400
O -9.164100 -9.682200 -12.504800
C -9.116700 -8.434600 -12.396500
O -9.008900 -4.975900 -9.456700
C -8.972700 -5.639000 -12.499800
H -8.938400 -4.709900 -12.534000
H -8.643100 -5.878500 -15.518700
N -8.628400 -7.727000 -13.472200
C -8.536600 -6.373000 -13.548900
H -8.359000 -8.179100 -14.152200
C -7.988800 -5.795700 -14.821300
H -7.778800 -4.868600 -14.688000
H -7.192700 -6.270700 -15.071300
H -7.279000 -1.861500 -9.926700
H -6.692900 -3.263600 -10.310000
C -6.482900 -2.336500 -10.176700
H -6.112700 0.046900 -10.845800
C -5.935100 -1.759200 -11.449100
N -5.843300 -0.405200 -11.525700
H -5.828600 -2.253700 -9.479200
H -5.533300 -3.422300 -12.464000
C -5.499000 -2.493100 -12.498100
O -5.462800 -3.156300 -15.541200
C -5.355000 0.302400 -12.601500
O -5.307700 1.550000 -12.493100
C -4.996800 -1.852500 -13.630500
C -4.919800 -0.472700 -13.728900
H -4.663200 1.931900 -14.362200
C -4.594900 -2.754900 -14.765500
C -4.420000 0.150200 -14.969600
N -4.395200 1.464400 -15.032100
H -4.109800 1.856000 -15.742900
O -4.040800 -0.553500 -15.916200
N -3.344400 -3.177300 -14.783800
H -3.096900 -3.765300 -15.360400
H -2.776200 -2.864300 -14.218000
