23
Fragment
H -11.695500 -5.267900 -10.779900
H -11.374800 -4.366900 -9.637500
N -11.127400 -4.954900 -10.214200
O -10.430900 -7.578700 -9.081800
H -10.362000 -9.988200 -9.255100
N -10.076500 -9.596600 -9.965800
C -10.051800 -8.282400 -10.028300
C -9.876900 -5.377300 -10.232500
H -9.808500 -10.064100 -10.635800
C -9.552000 -7.659400 -11.269100
C -9.474900 -6.279700 -11.367400
O -9.164100 -9.682200 -12.504800
C -9.116700 -8.434600 -12.396500
O -9.008900 -4.975900 -9.456700
C -8.972700 -5.639000 -12.499800
H -8.938400 -4.709900 -12.534000
H -8.643100 -5.878500 -15.518700
N -8.628400 -7.727000 -13.472200
C -8.536600 -6.373000 -13.548900
H -8.359000 -8.179100 -14.152200
C -7.988800 -5.795700 -14.821300
H -7.778800 -4.868600 -14.688000
H -7.192700 -6.270700 -15.071300
23
Fragment
H -11.684900 -2.812100 -19.112600
H -11.364200 -1.911100 -17.970200
N -11.116700 -2.499100 -18.546800
O -10.420300 -5.122900 -17.414400
H -10.351300 -7.532400 -17.587700
N -10.065900 -7.140800 -18.298500
C -10.041100 -5.826600 -18.361000
C -9.866200 -2.921500 -18.565100
H -9.797900 -7.608300 -18.968400
C -9.541400 -5.203700 -19.601700
C -9.464300 -3.823900 -19.700000
O -9.153500 -7.226400 -20.837500
C -9.106100 -5.978800 -20.729100
O -8.998300 -2.520100 -17.789400
C -8.962100 -3.183300 -20.832500
H -8.927800 -2.254100 -20.866600
H -8.632500 -3.422700 -23.851400
N -8.617800 -5.271200 -21.804900
C -8.526000 -3.917200 -21.881500
H -8.348400 -5.723300 -22.484800
C -7.978200 -3.339900 -23.153900
H -7.768200 -2.412800 -23.020600
H -7.182100 -3.814900 -23.403900
46
Fragment
H -11.695500 -5.267900 -10.779900
H -11.374800 -4.366900 -9.637500
N -11.127400 -4.954900 -10.214200
O -10.430900 -7.578700 -9.081800
H -10.362000 -9.988200 -9.255100
N -10.076500 -9.596600 -9.965800
C -10.051800 -8.282400 -10.028300
C -9.876900 -5.377300 -10.232500
H -9.808500 -10.064100 -10.635800
C -9.552000 -7.659400 -11.269100
C -9.474900 -6.279700 -11.367400
O -9.164100 -9.682200 -12.504800
C -9.116700 -8.434600 -12.396500
O -9.008900 -4.975900 -9.456700
C -8.972700 -5.639000 -12.499800
H -8.938400 -4.709900 -12.534000
H -8.643100 -5.878500 -15.518700
N -8.628400 -7.727000 -13.472200
C -8.536600 -6.373000 -13.548900
H -8.359000 -8.179100 -14.152200
C -7.988800 -5.795700 -14.821300
H -7.778800 -4.868600 -14.688000
H -7.192700 -6.270700 -15.071300
H -11.684900 -2.812100 -19.112600
H -11.364200 -1.911100 -17.970200
N -11.116700 -2.499100 -18.546800
O -10.420300 -5.122900 -17.414400
H -10.351300 -7.532400 -17.587700
N -10.065900 -7.140800 -18.298500
C -10.041100 -5.826600 -18.361000
C -9.866200 -2.921500 -18.565100
H -9.797900 -7.608300 -18.968400
C -9.541400 -5.203700 -19.601700
C -9.464300 -3.823900 -19.700000
O -9.153500 -7.226400 -20.837500
C -9.106100 -5.978800 -20.729100
O -8.998300 -2.520100 -17.789400
C -8.962100 -3.183300 -20.832500
H -8.927800 -2.254100 -20.866600
H -8.632500 -3.422700 -23.851400
N -8.617800 -5.271200 -21.804900
C -8.526000 -3.917200 -21.881500
H -8.348400 -5.723300 -22.484800
C -7.978200 -3.339900 -23.153900
H -7.768200 -2.412800 -23.020600
H -7.182100 -3.814900 -23.403900
