31
Fragment
H -20.265300 -19.567600 -54.099200
H -20.200100 -19.998100 -52.595600
N -20.089800 -19.361100 -53.224100
O -20.078300 -18.003200 -55.709900
N -19.526400 -14.143700 -52.571100
C -19.345700 -17.144400 -55.164400
C -19.317000 -18.305600 -52.992200
H -19.262200 -15.889000 -56.681400
N -18.943200 -16.077800 -55.861400
C -18.931900 -17.278300 -53.800700
H -18.894900 -15.939200 -50.301600
C -18.878800 -15.068100 -52.740400
O -18.840700 -18.211400 -51.728200
H -18.537300 -15.426900 -55.571400
H -18.147700 -14.285500 -48.870500
C -18.101000 -16.305300 -52.997000
C -18.042500 -16.398300 -50.369300
H -18.005400 -17.088000 -49.752700
C -17.877300 -17.125200 -51.676000
H -17.154300 -15.365300 -48.076100
C -17.145400 -14.692400 -48.756000
H -16.934300 -14.746400 -50.804500
C -16.933300 -15.398400 -50.072300
H -16.918700 -17.517400 -51.774500
C -16.774900 -15.871000 -53.670000
O -16.582700 -14.691000 -53.910700
H -16.429500 -14.064700 -48.555300
H -16.190200 -15.910200 -50.149700
H -16.099100 -17.722700 -53.903700
N -15.925300 -16.836900 -53.962600
H -15.185900 -16.616100 -54.437000
31
Fragment
H -17.540100 -17.609700 -46.145400
H -17.304600 -17.240000 -40.285900
O -17.285800 -15.333800 -45.032400
H -16.836700 -17.390800 -42.810700
H -16.708800 -15.249100 -38.977100
N -16.695000 -17.411500 -45.668400
H -16.682200 -16.552400 -38.117500
C -16.552700 -16.326800 -44.964300
C -16.376900 -16.976900 -40.131800
H -16.373400 -15.343700 -41.436200
C -16.243200 -16.149000 -38.873000
H -16.237200 -18.196600 -45.508000
C -15.920900 -17.054700 -42.621800
H -15.873900 -17.847200 -40.061500
C -15.849100 -16.246900 -41.367700
C -15.384200 -16.346300 -43.936900
H -15.204300 -16.013500 -38.750800
O -15.122500 -18.256300 -42.472900
C -14.944000 -14.963500 -43.655800
H -14.941700 -15.966300 -41.207400
N -14.532300 -13.920100 -43.440600
C -14.229900 -17.235700 -44.309100
C -14.184700 -18.306700 -43.446900
H -13.828900 -15.222900 -45.815000
H -13.409400 -19.964300 -42.822100
N -13.384800 -19.339000 -43.441000
N -13.312400 -15.954900 -46.117200
C -13.268400 -17.066400 -45.365000
H -12.736600 -19.335500 -44.039100
H -12.614200 -15.821900 -46.529800
O -12.413000 -17.958600 -45.581300
62
Fragment
H -20.265300 -19.567600 -54.099200
H -20.200100 -19.998100 -52.595600
N -20.089800 -19.361100 -53.224100
O -20.078300 -18.003200 -55.709900
N -19.526400 -14.143700 -52.571100
C -19.345700 -17.144400 -55.164400
C -19.317000 -18.305600 -52.992200
H -19.262200 -15.889000 -56.681400
N -18.943200 -16.077800 -55.861400
C -18.931900 -17.278300 -53.800700
H -18.894900 -15.939200 -50.301600
C -18.878800 -15.068100 -52.740400
O -18.840700 -18.211400 -51.728200
H -18.537300 -15.426900 -55.571400
H -18.147700 -14.285500 -48.870500
C -18.101000 -16.305300 -52.997000
C -18.042500 -16.398300 -50.369300
H -18.005400 -17.088000 -49.752700
C -17.877300 -17.125200 -51.676000
H -17.154300 -15.365300 -48.076100
C -17.145400 -14.692400 -48.756000
H -16.934300 -14.746400 -50.804500
C -16.933300 -15.398400 -50.072300
H -16.918700 -17.517400 -51.774500
C -16.774900 -15.871000 -53.670000
O -16.582700 -14.691000 -53.910700
H -16.429500 -14.064700 -48.555300
H -16.190200 -15.910200 -50.149700
H -16.099100 -17.722700 -53.903700
N -15.925300 -16.836900 -53.962600
H -15.185900 -16.616100 -54.437000
H -17.540100 -17.609700 -46.145400
H -17.304600 -17.240000 -40.285900
O -17.285800 -15.333800 -45.032400
H -16.836700 -17.390800 -42.810700
H -16.708800 -15.249100 -38.977100
N -16.695000 -17.411500 -45.668400
H -16.682200 -16.552400 -38.117500
C -16.552700 -16.326800 -44.964300
C -16.376900 -16.976900 -40.131800
H -16.373400 -15.343700 -41.436200
C -16.243200 -16.149000 -38.873000
H -16.237200 -18.196600 -45.508000
C -15.920900 -17.054700 -42.621800
H -15.873900 -17.847200 -40.061500
C -15.849100 -16.246900 -41.367700
C -15.384200 -16.346300 -43.936900
H -15.204300 -16.013500 -38.750800
O -15.122500 -18.256300 -42.472900
C -14.944000 -14.963500 -43.655800
H -14.941700 -15.966300 -41.207400
N -14.532300 -13.920100 -43.440600
C -14.229900 -17.235700 -44.309100
C -14.184700 -18.306700 -43.446900
H -13.828900 -15.222900 -45.815000
H -13.409400 -19.964300 -42.822100
N -13.384800 -19.339000 -43.441000
N -13.312400 -15.954900 -46.117200
C -13.268400 -17.066400 -45.365000
H -12.736600 -19.335500 -44.039100
H -12.614200 -15.821900 -46.529800
O -12.413000 -17.958600 -45.581300
