31
Fragment
H -20.265300 -19.567600 -54.099200
H -20.200100 -19.998100 -52.595600
N -20.089800 -19.361100 -53.224100
O -20.078300 -18.003200 -55.709900
N -19.526400 -14.143700 -52.571100
C -19.345700 -17.144400 -55.164400
C -19.317000 -18.305600 -52.992200
H -19.262200 -15.889000 -56.681400
N -18.943200 -16.077800 -55.861400
C -18.931900 -17.278300 -53.800700
H -18.894900 -15.939200 -50.301600
C -18.878800 -15.068100 -52.740400
O -18.840700 -18.211400 -51.728200
H -18.537300 -15.426900 -55.571400
H -18.147700 -14.285500 -48.870500
C -18.101000 -16.305300 -52.997000
C -18.042500 -16.398300 -50.369300
H -18.005400 -17.088000 -49.752700
C -17.877300 -17.125200 -51.676000
H -17.154300 -15.365300 -48.076100
C -17.145400 -14.692400 -48.756000
H -16.934300 -14.746400 -50.804500
C -16.933300 -15.398400 -50.072300
H -16.918700 -17.517400 -51.774500
C -16.774900 -15.871000 -53.670000
O -16.582700 -14.691000 -53.910700
H -16.429500 -14.064700 -48.555300
H -16.190200 -15.910200 -50.149700
H -16.099100 -17.722700 -53.903700
N -15.925300 -16.836900 -53.962600
H -15.185900 -16.616100 -54.437000
31
Fragment
O -14.267000 -13.042600 -47.008700
H -14.065800 -10.905900 -46.060200
H -13.943400 -14.419500 -48.550900
C -13.411600 -12.150400 -47.225000
N -13.367600 -11.038900 -46.472800
N -13.295200 -14.423000 -49.149000
H -13.270600 -15.048300 -49.767900
H -12.851100 -10.306900 -46.775000
C -12.495300 -13.390700 -49.143100
C -12.450100 -12.319700 -48.280900
N -12.147700 -9.004100 -49.149400
H -11.738300 -11.050300 -51.382600
C -11.736000 -10.047500 -48.934200
O -11.557500 -13.340300 -50.117100
H -11.475700 -11.097500 -53.839200
C -11.295800 -11.430300 -48.653100
C -10.830900 -11.330900 -51.222300
H -10.806100 -12.931200 -52.528500
C -10.759100 -12.138700 -49.968200
H -10.442800 -13.280600 -47.082000
C -10.436800 -11.233000 -53.717000
H -10.306600 -10.427700 -51.153800
C -10.303100 -12.060900 -52.458200
C -10.127300 -11.410800 -47.625700
H -9.997800 -11.636400 -54.472500
N -9.985000 -12.495500 -46.921600
H -9.971200 -10.333100 -53.612900
H -9.843300 -12.474800 -49.779300
O -9.394200 -10.417800 -47.557600
H -9.375400 -12.324000 -52.304100
H -9.139900 -12.693700 -46.444600
62
Fragment
H -20.265300 -19.567600 -54.099200
H -20.200100 -19.998100 -52.595600
N -20.089800 -19.361100 -53.224100
O -20.078300 -18.003200 -55.709900
N -19.526400 -14.143700 -52.571100
C -19.345700 -17.144400 -55.164400
C -19.317000 -18.305600 -52.992200
H -19.262200 -15.889000 -56.681400
N -18.943200 -16.077800 -55.861400
C -18.931900 -17.278300 -53.800700
H -18.894900 -15.939200 -50.301600
C -18.878800 -15.068100 -52.740400
O -18.840700 -18.211400 -51.728200
H -18.537300 -15.426900 -55.571400
H -18.147700 -14.285500 -48.870500
C -18.101000 -16.305300 -52.997000
C -18.042500 -16.398300 -50.369300
H -18.005400 -17.088000 -49.752700
C -17.877300 -17.125200 -51.676000
H -17.154300 -15.365300 -48.076100
C -17.145400 -14.692400 -48.756000
H -16.934300 -14.746400 -50.804500
C -16.933300 -15.398400 -50.072300
H -16.918700 -17.517400 -51.774500
C -16.774900 -15.871000 -53.670000
O -16.582700 -14.691000 -53.910700
H -16.429500 -14.064700 -48.555300
H -16.190200 -15.910200 -50.149700
H -16.099100 -17.722700 -53.903700
N -15.925300 -16.836900 -53.962600
H -15.185900 -16.616100 -54.437000
O -14.267000 -13.042600 -47.008700
H -14.065800 -10.905900 -46.060200
H -13.943400 -14.419500 -48.550900
C -13.411600 -12.150400 -47.225000
N -13.367600 -11.038900 -46.472800
N -13.295200 -14.423000 -49.149000
H -13.270600 -15.048300 -49.767900
H -12.851100 -10.306900 -46.775000
C -12.495300 -13.390700 -49.143100
C -12.450100 -12.319700 -48.280900
N -12.147700 -9.004100 -49.149400
H -11.738300 -11.050300 -51.382600
C -11.736000 -10.047500 -48.934200
O -11.557500 -13.340300 -50.117100
H -11.475700 -11.097500 -53.839200
C -11.295800 -11.430300 -48.653100
C -10.830900 -11.330900 -51.222300
H -10.806100 -12.931200 -52.528500
C -10.759100 -12.138700 -49.968200
H -10.442800 -13.280600 -47.082000
C -10.436800 -11.233000 -53.717000
H -10.306600 -10.427700 -51.153800
C -10.303100 -12.060900 -52.458200
C -10.127300 -11.410800 -47.625700
H -9.997800 -11.636400 -54.472500
N -9.985000 -12.495500 -46.921600
H -9.971200 -10.333100 -53.612900
H -9.843300 -12.474800 -49.779300
O -9.394200 -10.417800 -47.557600
H -9.375400 -12.324000 -52.304100
H -9.139900 -12.693700 -46.444600
