31
Fragment
H -20.265300 -19.567600 -54.099200
H -20.200100 -19.998100 -52.595600
N -20.089800 -19.361100 -53.224100
O -20.078300 -18.003200 -55.709900
N -19.526400 -14.143700 -52.571100
C -19.345700 -17.144400 -55.164400
C -19.317000 -18.305600 -52.992200
H -19.262200 -15.889000 -56.681400
N -18.943200 -16.077800 -55.861400
C -18.931900 -17.278300 -53.800700
H -18.894900 -15.939200 -50.301600
C -18.878800 -15.068100 -52.740400
O -18.840700 -18.211400 -51.728200
H -18.537300 -15.426900 -55.571400
H -18.147700 -14.285500 -48.870500
C -18.101000 -16.305300 -52.997000
C -18.042500 -16.398300 -50.369300
H -18.005400 -17.088000 -49.752700
C -17.877300 -17.125200 -51.676000
H -17.154300 -15.365300 -48.076100
C -17.145400 -14.692400 -48.756000
H -16.934300 -14.746400 -50.804500
C -16.933300 -15.398400 -50.072300
H -16.918700 -17.517400 -51.774500
C -16.774900 -15.871000 -53.670000
O -16.582700 -14.691000 -53.910700
H -16.429500 -14.064700 -48.555300
H -16.190200 -15.910200 -50.149700
H -16.099100 -17.722700 -53.903700
N -15.925300 -16.836900 -53.962600
H -15.185900 -16.616100 -54.437000
31
Fragment
H -18.164100 -21.532100 -54.437000
N -17.424700 -21.752900 -53.962600
H -17.250900 -22.638700 -53.903700
H -17.159800 -20.826200 -50.149700
H -16.920500 -18.980700 -48.555300
O -16.767300 -19.607000 -53.910700
C -16.575100 -20.787000 -53.670000
H -16.431300 -22.433400 -51.774500
C -16.416700 -20.314400 -50.072300
H -16.415700 -19.662400 -50.804500
C -16.204600 -19.608400 -48.756000
H -16.195700 -20.281300 -48.076100
C -15.472700 -22.041200 -51.676000
H -15.344600 -22.004000 -49.752700
C -15.307500 -21.314300 -50.369300
C -15.249000 -21.221300 -52.997000
H -15.202300 -19.201500 -48.870500
H -14.812700 -20.342900 -55.571400
O -14.509300 -23.127400 -51.728200
C -14.471200 -19.984100 -52.740400
H -14.455100 -20.855200 -50.301600
C -14.418100 -22.194300 -53.800700
N -14.406800 -20.993800 -55.861400
H -14.087800 -20.805000 -56.681400
C -14.033000 -23.221600 -52.992200
C -14.004300 -22.060400 -55.164400
N -13.823600 -19.059700 -52.571100
O -13.271700 -22.919200 -55.709900
N -13.260200 -24.277100 -53.224100
H -13.149900 -24.914100 -52.595600
H -13.084700 -24.483600 -54.099200
62
Fragment
H -20.265300 -19.567600 -54.099200
H -20.200100 -19.998100 -52.595600
N -20.089800 -19.361100 -53.224100
O -20.078300 -18.003200 -55.709900
N -19.526400 -14.143700 -52.571100
C -19.345700 -17.144400 -55.164400
C -19.317000 -18.305600 -52.992200
H -19.262200 -15.889000 -56.681400
N -18.943200 -16.077800 -55.861400
C -18.931900 -17.278300 -53.800700
H -18.894900 -15.939200 -50.301600
C -18.878800 -15.068100 -52.740400
O -18.840700 -18.211400 -51.728200
H -18.537300 -15.426900 -55.571400
H -18.147700 -14.285500 -48.870500
C -18.101000 -16.305300 -52.997000
C -18.042500 -16.398300 -50.369300
H -18.005400 -17.088000 -49.752700
C -17.877300 -17.125200 -51.676000
H -17.154300 -15.365300 -48.076100
C -17.145400 -14.692400 -48.756000
H -16.934300 -14.746400 -50.804500
C -16.933300 -15.398400 -50.072300
H -16.918700 -17.517400 -51.774500
C -16.774900 -15.871000 -53.670000
O -16.582700 -14.691000 -53.910700
H -16.429500 -14.064700 -48.555300
H -16.190200 -15.910200 -50.149700
H -16.099100 -17.722700 -53.903700
N -15.925300 -16.836900 -53.962600
H -15.185900 -16.616100 -54.437000
H -18.164100 -21.532100 -54.437000
N -17.424700 -21.752900 -53.962600
H -17.250900 -22.638700 -53.903700
H -17.159800 -20.826200 -50.149700
H -16.920500 -18.980700 -48.555300
O -16.767300 -19.607000 -53.910700
C -16.575100 -20.787000 -53.670000
H -16.431300 -22.433400 -51.774500
C -16.416700 -20.314400 -50.072300
H -16.415700 -19.662400 -50.804500
C -16.204600 -19.608400 -48.756000
H -16.195700 -20.281300 -48.076100
C -15.472700 -22.041200 -51.676000
H -15.344600 -22.004000 -49.752700
C -15.307500 -21.314300 -50.369300
C -15.249000 -21.221300 -52.997000
H -15.202300 -19.201500 -48.870500
H -14.812700 -20.342900 -55.571400
O -14.509300 -23.127400 -51.728200
C -14.471200 -19.984100 -52.740400
H -14.455100 -20.855200 -50.301600
C -14.418100 -22.194300 -53.800700
N -14.406800 -20.993800 -55.861400
H -14.087800 -20.805000 -56.681400
C -14.033000 -23.221600 -52.992200
C -14.004300 -22.060400 -55.164400
N -13.823600 -19.059700 -52.571100
O -13.271700 -22.919200 -55.709900
N -13.260200 -24.277100 -53.224100
H -13.149900 -24.914100 -52.595600
H -13.084700 -24.483600 -54.099200
