31
Fragment
H -20.265300 -19.567600 -54.099200
H -20.200100 -19.998100 -52.595600
N -20.089800 -19.361100 -53.224100
O -20.078300 -18.003200 -55.709900
N -19.526400 -14.143700 -52.571100
C -19.345700 -17.144400 -55.164400
C -19.317000 -18.305600 -52.992200
H -19.262200 -15.889000 -56.681400
N -18.943200 -16.077800 -55.861400
C -18.931900 -17.278300 -53.800700
H -18.894900 -15.939200 -50.301600
C -18.878800 -15.068100 -52.740400
O -18.840700 -18.211400 -51.728200
H -18.537300 -15.426900 -55.571400
H -18.147700 -14.285500 -48.870500
C -18.101000 -16.305300 -52.997000
C -18.042500 -16.398300 -50.369300
H -18.005400 -17.088000 -49.752700
C -17.877300 -17.125200 -51.676000
H -17.154300 -15.365300 -48.076100
C -17.145400 -14.692400 -48.756000
H -16.934300 -14.746400 -50.804500
C -16.933300 -15.398400 -50.072300
H -16.918700 -17.517400 -51.774500
C -16.774900 -15.871000 -53.670000
O -16.582700 -14.691000 -53.910700
H -16.429500 -14.064700 -48.555300
H -16.190200 -15.910200 -50.149700
H -16.099100 -17.722700 -53.903700
N -15.925300 -16.836900 -53.962600
H -15.185900 -16.616100 -54.437000
31
Fragment
H -24.834100 -12.879900 -56.671000
N -24.094700 -12.659100 -57.145400
H -23.920900 -11.773300 -57.204300
H -23.829800 -13.585800 -60.958300
H -23.590500 -15.431300 -62.552700
O -23.437300 -14.805000 -57.197300
C -23.245100 -13.625000 -57.438000
H -23.101300 -11.978600 -59.333500
C -23.086700 -14.097600 -61.035700
H -23.085700 -14.749600 -60.303500
C -22.874600 -14.803600 -62.352000
H -22.865700 -14.130700 -63.031900
C -22.142700 -12.370800 -59.432000
H -22.014600 -12.408000 -61.355300
C -21.977500 -13.097700 -60.738700
C -21.919000 -13.190700 -58.111000
H -21.872300 -15.210500 -62.237500
H -21.482700 -14.069100 -55.536600
O -21.179300 -11.284600 -59.379800
C -21.141200 -14.427900 -58.367600
H -21.125100 -13.556800 -60.806400
C -21.088100 -12.217700 -57.307300
N -21.076800 -13.418200 -55.246600
H -20.757800 -13.607000 -54.426600
C -20.703000 -11.190400 -58.115800
C -20.674300 -12.351600 -55.943600
N -20.493600 -15.352300 -58.536900
O -19.941700 -11.492800 -55.398100
N -19.930200 -10.134900 -57.883900
H -19.819900 -9.497900 -58.512400
H -19.754700 -9.928400 -57.008800
62
Fragment
H -20.265300 -19.567600 -54.099200
H -20.200100 -19.998100 -52.595600
N -20.089800 -19.361100 -53.224100
O -20.078300 -18.003200 -55.709900
N -19.526400 -14.143700 -52.571100
C -19.345700 -17.144400 -55.164400
C -19.317000 -18.305600 -52.992200
H -19.262200 -15.889000 -56.681400
N -18.943200 -16.077800 -55.861400
C -18.931900 -17.278300 -53.800700
H -18.894900 -15.939200 -50.301600
C -18.878800 -15.068100 -52.740400
O -18.840700 -18.211400 -51.728200
H -18.537300 -15.426900 -55.571400
H -18.147700 -14.285500 -48.870500
C -18.101000 -16.305300 -52.997000
C -18.042500 -16.398300 -50.369300
H -18.005400 -17.088000 -49.752700
C -17.877300 -17.125200 -51.676000
H -17.154300 -15.365300 -48.076100
C -17.145400 -14.692400 -48.756000
H -16.934300 -14.746400 -50.804500
C -16.933300 -15.398400 -50.072300
H -16.918700 -17.517400 -51.774500
C -16.774900 -15.871000 -53.670000
O -16.582700 -14.691000 -53.910700
H -16.429500 -14.064700 -48.555300
H -16.190200 -15.910200 -50.149700
H -16.099100 -17.722700 -53.903700
N -15.925300 -16.836900 -53.962600
H -15.185900 -16.616100 -54.437000
H -24.834100 -12.879900 -56.671000
N -24.094700 -12.659100 -57.145400
H -23.920900 -11.773300 -57.204300
H -23.829800 -13.585800 -60.958300
H -23.590500 -15.431300 -62.552700
O -23.437300 -14.805000 -57.197300
C -23.245100 -13.625000 -57.438000
H -23.101300 -11.978600 -59.333500
C -23.086700 -14.097600 -61.035700
H -23.085700 -14.749600 -60.303500
C -22.874600 -14.803600 -62.352000
H -22.865700 -14.130700 -63.031900
C -22.142700 -12.370800 -59.432000
H -22.014600 -12.408000 -61.355300
C -21.977500 -13.097700 -60.738700
C -21.919000 -13.190700 -58.111000
H -21.872300 -15.210500 -62.237500
H -21.482700 -14.069100 -55.536600
O -21.179300 -11.284600 -59.379800
C -21.141200 -14.427900 -58.367600
H -21.125100 -13.556800 -60.806400
C -21.088100 -12.217700 -57.307300
N -21.076800 -13.418200 -55.246600
H -20.757800 -13.607000 -54.426600
C -20.703000 -11.190400 -58.115800
C -20.674300 -12.351600 -55.943600
N -20.493600 -15.352300 -58.536900
O -19.941700 -11.492800 -55.398100
N -19.930200 -10.134900 -57.883900
H -19.819900 -9.497900 -58.512400
H -19.754700 -9.928400 -57.008800
