23
Fragment
H -16.702700 -23.782000 -21.733000
H -16.557100 -22.951100 -23.054600
H -16.421000 -22.240800 -21.664100
C -16.245500 -23.049600 -22.151900
C -14.766700 -23.319800 -22.158700
N -14.314800 -24.550000 -21.993800
H -13.801400 -21.488100 -22.372200
C -13.721700 -22.409000 -22.273500
N -12.937200 -24.422600 -22.041100
N -12.862200 -26.719900 -21.757300
C -12.562500 -23.115900 -22.215400
N -12.181400 -27.838000 -21.691100
C -12.172600 -25.586600 -21.904600
C -11.151100 -22.636700 -22.319500
H -11.145100 -21.710700 -22.568100
N -10.859000 -25.462500 -21.912700
C -10.838500 -27.741100 -21.760000
H -10.713500 -22.745500 -21.472200
H -10.687900 -23.149900 -22.987000
H -10.603500 -29.651000 -21.729000
N -10.175400 -28.903400 -21.773500
N -10.149600 -26.592500 -21.828900
H -9.327700 -28.937400 -21.783000
23
Fragment
H -25.493700 -23.782000 -21.733000
H -25.348100 -22.951100 -23.054600
H -25.212000 -22.240800 -21.664100
C -25.036500 -23.049600 -22.151900
C -23.557700 -23.319800 -22.158700
N -23.105800 -24.550000 -21.993800
H -22.592400 -21.488100 -22.372200
C -22.512700 -22.409000 -22.273500
N -21.728200 -24.422600 -22.041100
N -21.653200 -26.719900 -21.757300
C -21.353500 -23.115900 -22.215400
N -20.972400 -27.838000 -21.691100
C -20.963600 -25.586600 -21.904600
C -19.942100 -22.636700 -22.319500
H -19.936100 -21.710700 -22.568100
N -19.650000 -25.462500 -21.912700
C -19.629500 -27.741100 -21.760000
H -19.504500 -22.745500 -21.472200
H -19.478900 -23.149900 -22.987000
H -19.394500 -29.651000 -21.729000
N -18.966400 -28.903400 -21.773500
N -18.940600 -26.592500 -21.828900
H -18.118700 -28.937400 -21.783000
46
Fragment
H -16.702700 -23.782000 -21.733000
H -16.557100 -22.951100 -23.054600
H -16.421000 -22.240800 -21.664100
C -16.245500 -23.049600 -22.151900
C -14.766700 -23.319800 -22.158700
N -14.314800 -24.550000 -21.993800
H -13.801400 -21.488100 -22.372200
C -13.721700 -22.409000 -22.273500
N -12.937200 -24.422600 -22.041100
N -12.862200 -26.719900 -21.757300
C -12.562500 -23.115900 -22.215400
N -12.181400 -27.838000 -21.691100
C -12.172600 -25.586600 -21.904600
C -11.151100 -22.636700 -22.319500
H -11.145100 -21.710700 -22.568100
N -10.859000 -25.462500 -21.912700
C -10.838500 -27.741100 -21.760000
H -10.713500 -22.745500 -21.472200
H -10.687900 -23.149900 -22.987000
H -10.603500 -29.651000 -21.729000
N -10.175400 -28.903400 -21.773500
N -10.149600 -26.592500 -21.828900
H -9.327700 -28.937400 -21.783000
H -25.493700 -23.782000 -21.733000
H -25.348100 -22.951100 -23.054600
H -25.212000 -22.240800 -21.664100
C -25.036500 -23.049600 -22.151900
C -23.557700 -23.319800 -22.158700
N -23.105800 -24.550000 -21.993800
H -22.592400 -21.488100 -22.372200
C -22.512700 -22.409000 -22.273500
N -21.728200 -24.422600 -22.041100
N -21.653200 -26.719900 -21.757300
C -21.353500 -23.115900 -22.215400
N -20.972400 -27.838000 -21.691100
C -20.963600 -25.586600 -21.904600
C -19.942100 -22.636700 -22.319500
H -19.936100 -21.710700 -22.568100
N -19.650000 -25.462500 -21.912700
C -19.629500 -27.741100 -21.760000
H -19.504500 -22.745500 -21.472200
H -19.478900 -23.149900 -22.987000
H -19.394500 -29.651000 -21.729000
N -18.966400 -28.903400 -21.773500
N -18.940600 -26.592500 -21.828900
H -18.118700 -28.937400 -21.783000
