23
Fragment
H -16.702700 -23.782000 -21.733000
H -16.557100 -22.951100 -23.054600
H -16.421000 -22.240800 -21.664100
C -16.245500 -23.049600 -22.151900
C -14.766700 -23.319800 -22.158700
N -14.314800 -24.550000 -21.993800
H -13.801400 -21.488100 -22.372200
C -13.721700 -22.409000 -22.273500
N -12.937200 -24.422600 -22.041100
N -12.862200 -26.719900 -21.757300
C -12.562500 -23.115900 -22.215400
N -12.181400 -27.838000 -21.691100
C -12.172600 -25.586600 -21.904600
C -11.151100 -22.636700 -22.319500
H -11.145100 -21.710700 -22.568100
N -10.859000 -25.462500 -21.912700
C -10.838500 -27.741100 -21.760000
H -10.713500 -22.745500 -21.472200
H -10.687900 -23.149900 -22.987000
H -10.603500 -29.651000 -21.729000
N -10.175400 -28.903400 -21.773500
N -10.149600 -26.592500 -21.828900
H -9.327700 -28.937400 -21.783000
23
Fragment
H -11.805900 -21.494900 -18.891200
N -10.961100 -21.479600 -18.848000
N -10.952900 -19.175500 -18.816900
H -10.577100 -22.242500 -18.796600
H -10.356600 -15.712500 -17.615600
H -10.349800 -15.421900 -19.156100
C -10.293900 -20.356400 -18.843900
N -10.235600 -18.081200 -18.731800
H -9.905000 -14.307300 -18.146600
C -9.902200 -15.252000 -18.323700
N -8.947100 -20.468600 -18.931800
C -8.909500 -18.217100 -18.712800
C -8.488600 -15.738000 -18.410200
N -8.246400 -19.364100 -18.850700
N -8.136600 -17.056600 -18.591200
C -7.321100 -15.049800 -18.329100
H -7.226200 -14.133900 -18.196600
N -6.754200 -17.201000 -18.614200
C -6.293700 -15.977600 -18.483100
C -4.805500 -15.743100 -18.433100
H -4.614500 -15.031100 -17.818300
H -4.489200 -15.505200 -19.307400
H -4.364200 -16.543400 -18.141200
46
Fragment
H -16.702700 -23.782000 -21.733000
H -16.557100 -22.951100 -23.054600
H -16.421000 -22.240800 -21.664100
C -16.245500 -23.049600 -22.151900
C -14.766700 -23.319800 -22.158700
N -14.314800 -24.550000 -21.993800
H -13.801400 -21.488100 -22.372200
C -13.721700 -22.409000 -22.273500
N -12.937200 -24.422600 -22.041100
N -12.862200 -26.719900 -21.757300
C -12.562500 -23.115900 -22.215400
N -12.181400 -27.838000 -21.691100
C -12.172600 -25.586600 -21.904600
C -11.151100 -22.636700 -22.319500
H -11.145100 -21.710700 -22.568100
N -10.859000 -25.462500 -21.912700
C -10.838500 -27.741100 -21.760000
H -10.713500 -22.745500 -21.472200
H -10.687900 -23.149900 -22.987000
H -10.603500 -29.651000 -21.729000
N -10.175400 -28.903400 -21.773500
N -10.149600 -26.592500 -21.828900
H -9.327700 -28.937400 -21.783000
H -11.805900 -21.494900 -18.891200
N -10.961100 -21.479600 -18.848000
N -10.952900 -19.175500 -18.816900
H -10.577100 -22.242500 -18.796600
H -10.356600 -15.712500 -17.615600
H -10.349800 -15.421900 -19.156100
C -10.293900 -20.356400 -18.843900
N -10.235600 -18.081200 -18.731800
H -9.905000 -14.307300 -18.146600
C -9.902200 -15.252000 -18.323700
N -8.947100 -20.468600 -18.931800
C -8.909500 -18.217100 -18.712800
C -8.488600 -15.738000 -18.410200
N -8.246400 -19.364100 -18.850700
N -8.136600 -17.056600 -18.591200
C -7.321100 -15.049800 -18.329100
H -7.226200 -14.133900 -18.196600
N -6.754200 -17.201000 -18.614200
C -6.293700 -15.977600 -18.483100
C -4.805500 -15.743100 -18.433100
H -4.614500 -15.031100 -17.818300
H -4.489200 -15.505200 -19.307400
H -4.364200 -16.543400 -18.141200
