23
Fragment
H -16.702700 -23.782000 -21.733000
H -16.557100 -22.951100 -23.054600
H -16.421000 -22.240800 -21.664100
C -16.245500 -23.049600 -22.151900
C -14.766700 -23.319800 -22.158700
N -14.314800 -24.550000 -21.993800
H -13.801400 -21.488100 -22.372200
C -13.721700 -22.409000 -22.273500
N -12.937200 -24.422600 -22.041100
N -12.862200 -26.719900 -21.757300
C -12.562500 -23.115900 -22.215400
N -12.181400 -27.838000 -21.691100
C -12.172600 -25.586600 -21.904600
C -11.151100 -22.636700 -22.319500
H -11.145100 -21.710700 -22.568100
N -10.859000 -25.462500 -21.912700
C -10.838500 -27.741100 -21.760000
H -10.713500 -22.745500 -21.472200
H -10.687900 -23.149900 -22.987000
H -10.603500 -29.651000 -21.729000
N -10.175400 -28.903400 -21.773500
N -10.149600 -26.592500 -21.828900
H -9.327700 -28.937400 -21.783000
23
Fragment
H -12.367900 -34.432600 -22.397800
H -12.242900 -35.470800 -21.231700
H -12.117700 -35.944900 -22.720800
C -11.926600 -35.232900 -22.106000
C -10.438400 -34.998400 -22.056000
N -9.977900 -33.775000 -21.924900
H -9.505900 -36.842100 -22.342400
C -9.411100 -35.926200 -22.210000
N -8.595500 -33.919400 -21.947900
N -8.485800 -31.611900 -21.688400
C -8.243600 -35.238000 -22.128900
C -7.822700 -32.758900 -21.826200
N -7.785100 -30.507400 -21.607300
C -6.829900 -35.724000 -22.215400
H -6.827100 -36.668700 -22.392400
N -6.496500 -32.894800 -21.807300
C -6.438200 -30.619600 -21.695200
H -6.382300 -35.554100 -21.383000
H -6.375500 -35.263500 -22.923500
H -6.155000 -28.733500 -21.742500
N -5.779200 -31.800500 -21.722200
N -5.771000 -29.496400 -21.691100
H -4.926300 -29.481100 -21.647900
46
Fragment
H -16.702700 -23.782000 -21.733000
H -16.557100 -22.951100 -23.054600
H -16.421000 -22.240800 -21.664100
C -16.245500 -23.049600 -22.151900
C -14.766700 -23.319800 -22.158700
N -14.314800 -24.550000 -21.993800
H -13.801400 -21.488100 -22.372200
C -13.721700 -22.409000 -22.273500
N -12.937200 -24.422600 -22.041100
N -12.862200 -26.719900 -21.757300
C -12.562500 -23.115900 -22.215400
N -12.181400 -27.838000 -21.691100
C -12.172600 -25.586600 -21.904600
C -11.151100 -22.636700 -22.319500
H -11.145100 -21.710700 -22.568100
N -10.859000 -25.462500 -21.912700
C -10.838500 -27.741100 -21.760000
H -10.713500 -22.745500 -21.472200
H -10.687900 -23.149900 -22.987000
H -10.603500 -29.651000 -21.729000
N -10.175400 -28.903400 -21.773500
N -10.149600 -26.592500 -21.828900
H -9.327700 -28.937400 -21.783000
H -12.367900 -34.432600 -22.397800
H -12.242900 -35.470800 -21.231700
H -12.117700 -35.944900 -22.720800
C -11.926600 -35.232900 -22.106000
C -10.438400 -34.998400 -22.056000
N -9.977900 -33.775000 -21.924900
H -9.505900 -36.842100 -22.342400
C -9.411100 -35.926200 -22.210000
N -8.595500 -33.919400 -21.947900
N -8.485800 -31.611900 -21.688400
C -8.243600 -35.238000 -22.128900
C -7.822700 -32.758900 -21.826200
N -7.785100 -30.507400 -21.607300
C -6.829900 -35.724000 -22.215400
H -6.827100 -36.668700 -22.392400
N -6.496500 -32.894800 -21.807300
C -6.438200 -30.619600 -21.695200
H -6.382300 -35.554100 -21.383000
H -6.375500 -35.263500 -22.923500
H -6.155000 -28.733500 -21.742500
N -5.779200 -31.800500 -21.722200
N -5.771000 -29.496400 -21.691100
H -4.926300 -29.481100 -21.647900
