14
Fragment
H -15.970400 -9.026100 -21.316800
O -15.683000 -9.710300 -21.674300
O -14.627900 -8.292100 -19.635200
C -14.507000 -10.061000 -21.176800
Cl -14.400000 -12.007900 -23.000800
C -13.981300 -9.244500 -20.015100
C -13.815000 -11.093800 -21.667000
C -12.712700 -9.655800 -19.424300
C -12.546500 -11.505100 -21.076100
Cl -12.127800 -8.741700 -18.090400
C -12.020800 -10.688600 -19.914500
O -11.899900 -12.457500 -21.456100
O -10.844800 -11.039300 -19.417000
H -10.557400 -11.723500 -19.774500
16
Fragment
O -21.914300 -9.321200 -24.790900
O -21.179500 -7.567900 -25.793700
N -21.164900 -8.354300 -24.849800
H -20.827900 -9.687500 -22.646800
C -20.209400 -8.995500 -22.700100
C -20.203200 -8.140600 -23.782900
H -19.326500 -6.525200 -24.613700
C -19.306100 -7.099500 -23.882000
C -19.282500 -8.805600 -21.700400
H -19.277400 -9.371600 -20.962000
C -18.378300 -6.923600 -22.878400
C -18.353200 -7.773800 -21.784700
H -17.763800 -6.228500 -22.935800
H -17.574900 -7.962700 -20.052500
N -17.362600 -7.660200 -20.817100
H -16.995000 -6.873300 -20.796300
30
Fragment
H -15.970400 -9.026100 -21.316800
O -15.683000 -9.710300 -21.674300
O -14.627900 -8.292100 -19.635200
C -14.507000 -10.061000 -21.176800
Cl -14.400000 -12.007900 -23.000800
C -13.981300 -9.244500 -20.015100
C -13.815000 -11.093800 -21.667000
C -12.712700 -9.655800 -19.424300
C -12.546500 -11.505100 -21.076100
Cl -12.127800 -8.741700 -18.090400
C -12.020800 -10.688600 -19.914500
O -11.899900 -12.457500 -21.456100
O -10.844800 -11.039300 -19.417000
H -10.557400 -11.723500 -19.774500
O -21.914300 -9.321200 -24.790900
O -21.179500 -7.567900 -25.793700
N -21.164900 -8.354300 -24.849800
H -20.827900 -9.687500 -22.646800
C -20.209400 -8.995500 -22.700100
C -20.203200 -8.140600 -23.782900
H -19.326500 -6.525200 -24.613700
C -19.306100 -7.099500 -23.882000
C -19.282500 -8.805600 -21.700400
H -19.277400 -9.371600 -20.962000
C -18.378300 -6.923600 -22.878400
C -18.353200 -7.773800 -21.784700
H -17.763800 -6.228500 -22.935800
H -17.574900 -7.962700 -20.052500
N -17.362600 -7.660200 -20.817100
H -16.995000 -6.873300 -20.796300
