14
Fragment
H -15.970400 -9.026100 -21.316800
O -15.683000 -9.710300 -21.674300
O -14.627900 -8.292100 -19.635200
C -14.507000 -10.061000 -21.176800
Cl -14.400000 -12.007900 -23.000800
C -13.981300 -9.244500 -20.015100
C -13.815000 -11.093800 -21.667000
C -12.712700 -9.655800 -19.424300
C -12.546500 -11.505100 -21.076100
Cl -12.127800 -8.741700 -18.090400
C -12.020800 -10.688600 -19.914500
O -11.899900 -12.457500 -21.456100
O -10.844800 -11.039300 -19.417000
H -10.557400 -11.723500 -19.774500
16
Fragment
H -13.954000 -9.467000 -27.143500
N -13.586400 -10.253900 -27.122700
H -13.374200 -10.556400 -27.887300
H -13.185300 -8.822200 -25.004000
C -12.595900 -10.367500 -26.155100
C -12.570800 -9.517300 -25.061400
H -11.671600 -11.965300 -26.977800
C -11.666600 -11.399300 -26.239400
C -11.643000 -9.693200 -24.057800
H -11.622600 -9.118900 -23.326100
C -10.745900 -10.734300 -24.156900
C -10.739700 -11.589200 -25.239800
H -10.121200 -12.281200 -25.293000
N -9.784200 -10.948000 -23.090000
O -9.769500 -10.161600 -22.146100
O -9.034700 -11.914900 -23.148900
30
Fragment
H -15.970400 -9.026100 -21.316800
O -15.683000 -9.710300 -21.674300
O -14.627900 -8.292100 -19.635200
C -14.507000 -10.061000 -21.176800
Cl -14.400000 -12.007900 -23.000800
C -13.981300 -9.244500 -20.015100
C -13.815000 -11.093800 -21.667000
C -12.712700 -9.655800 -19.424300
C -12.546500 -11.505100 -21.076100
Cl -12.127800 -8.741700 -18.090400
C -12.020800 -10.688600 -19.914500
O -11.899900 -12.457500 -21.456100
O -10.844800 -11.039300 -19.417000
H -10.557400 -11.723500 -19.774500
H -13.954000 -9.467000 -27.143500
N -13.586400 -10.253900 -27.122700
H -13.374200 -10.556400 -27.887300
H -13.185300 -8.822200 -25.004000
C -12.595900 -10.367500 -26.155100
C -12.570800 -9.517300 -25.061400
H -11.671600 -11.965300 -26.977800
C -11.666600 -11.399300 -26.239400
C -11.643000 -9.693200 -24.057800
H -11.622600 -9.118900 -23.326100
C -10.745900 -10.734300 -24.156900
C -10.739700 -11.589200 -25.239800
H -10.121200 -12.281200 -25.293000
N -9.784200 -10.948000 -23.090000
O -9.769500 -10.161600 -22.146100
O -9.034700 -11.914900 -23.148900
