14
Fragment
H -15.970400 -9.026100 -21.316800
O -15.683000 -9.710300 -21.674300
O -14.627900 -8.292100 -19.635200
C -14.507000 -10.061000 -21.176800
Cl -14.400000 -12.007900 -23.000800
C -13.981300 -9.244500 -20.015100
C -13.815000 -11.093800 -21.667000
C -12.712700 -9.655800 -19.424300
C -12.546500 -11.505100 -21.076100
Cl -12.127800 -8.741700 -18.090400
C -12.020800 -10.688600 -19.914500
O -11.899900 -12.457500 -21.456100
O -10.844800 -11.039300 -19.417000
H -10.557400 -11.723500 -19.774500
14
Fragment
H -20.391700 -14.317200 -28.165300
O -20.104300 -13.633000 -28.522800
O -19.049200 -15.051200 -26.483700
C -18.928300 -13.282300 -28.025300
Cl -18.821300 -11.335400 -29.849400
C -18.402600 -14.098800 -26.863700
C -18.236300 -12.249500 -28.515600
C -17.134000 -13.687500 -26.272800
C -16.967800 -11.838200 -27.924700
Cl -16.549100 -14.601600 -24.939000
C -16.442100 -12.654700 -26.763000
O -16.321200 -10.885800 -28.304600
O -15.266100 -12.304000 -26.265500
H -14.978700 -11.619800 -26.623000
28
Fragment
H -15.970400 -9.026100 -21.316800
O -15.683000 -9.710300 -21.674300
O -14.627900 -8.292100 -19.635200
C -14.507000 -10.061000 -21.176800
Cl -14.400000 -12.007900 -23.000800
C -13.981300 -9.244500 -20.015100
C -13.815000 -11.093800 -21.667000
C -12.712700 -9.655800 -19.424300
C -12.546500 -11.505100 -21.076100
Cl -12.127800 -8.741700 -18.090400
C -12.020800 -10.688600 -19.914500
O -11.899900 -12.457500 -21.456100
O -10.844800 -11.039300 -19.417000
H -10.557400 -11.723500 -19.774500
H -20.391700 -14.317200 -28.165300
O -20.104300 -13.633000 -28.522800
O -19.049200 -15.051200 -26.483700
C -18.928300 -13.282300 -28.025300
Cl -18.821300 -11.335400 -29.849400
C -18.402600 -14.098800 -26.863700
C -18.236300 -12.249500 -28.515600
C -17.134000 -13.687500 -26.272800
C -16.967800 -11.838200 -27.924700
Cl -16.549100 -14.601600 -24.939000
C -16.442100 -12.654700 -26.763000
O -16.321200 -10.885800 -28.304600
O -15.266100 -12.304000 -26.265500
H -14.978700 -11.619800 -26.623000
