14
Fragment
H -15.970400 -9.026100 -21.316800
O -15.683000 -9.710300 -21.674300
O -14.627900 -8.292100 -19.635200
C -14.507000 -10.061000 -21.176800
Cl -14.400000 -12.007900 -23.000800
C -13.981300 -9.244500 -20.015100
C -13.815000 -11.093800 -21.667000
C -12.712700 -9.655800 -19.424300
C -12.546500 -11.505100 -21.076100
Cl -12.127800 -8.741700 -18.090400
C -12.020800 -10.688600 -19.914500
O -11.899900 -12.457500 -21.456100
O -10.844800 -11.039300 -19.417000
H -10.557400 -11.723500 -19.774500
16
Fragment
H -9.532700 -8.688900 -20.295000
N -9.165100 -7.902000 -20.274200
H -8.952900 -7.599500 -21.038700
H -8.764000 -9.333700 -18.155500
C -8.174600 -7.788400 -19.306600
C -8.149500 -8.638600 -18.212900
H -7.250300 -6.190600 -20.129200
C -7.245300 -6.756600 -19.390800
C -7.221700 -8.462700 -17.209300
H -7.201300 -9.037000 -16.477600
C -6.324600 -7.421600 -17.308300
C -6.318400 -6.566700 -18.391200
H -5.699900 -5.874700 -18.444500
N -5.362900 -7.207900 -16.241500
O -5.348200 -7.994300 -15.297600
O -4.613500 -6.241000 -16.300400
30
Fragment
H -15.970400 -9.026100 -21.316800
O -15.683000 -9.710300 -21.674300
O -14.627900 -8.292100 -19.635200
C -14.507000 -10.061000 -21.176800
Cl -14.400000 -12.007900 -23.000800
C -13.981300 -9.244500 -20.015100
C -13.815000 -11.093800 -21.667000
C -12.712700 -9.655800 -19.424300
C -12.546500 -11.505100 -21.076100
Cl -12.127800 -8.741700 -18.090400
C -12.020800 -10.688600 -19.914500
O -11.899900 -12.457500 -21.456100
O -10.844800 -11.039300 -19.417000
H -10.557400 -11.723500 -19.774500
H -9.532700 -8.688900 -20.295000
N -9.165100 -7.902000 -20.274200
H -8.952900 -7.599500 -21.038700
H -8.764000 -9.333700 -18.155500
C -8.174600 -7.788400 -19.306600
C -8.149500 -8.638600 -18.212900
H -7.250300 -6.190600 -20.129200
C -7.245300 -6.756600 -19.390800
C -7.221700 -8.462700 -17.209300
H -7.201300 -9.037000 -16.477600
C -6.324600 -7.421600 -17.308300
C -6.318400 -6.566700 -18.391200
H -5.699900 -5.874700 -18.444500
N -5.362900 -7.207900 -16.241500
O -5.348200 -7.994300 -15.297600
O -4.613500 -6.241000 -16.300400
