49
Fragment
H -29.483900 -22.157900 -32.584400
O -29.129400 -21.432800 -34.362700
C -28.779300 -21.639100 -33.005000
H -28.752500 -20.775900 -32.563600
H -28.722700 -20.782700 -34.652200
H -27.915900 -23.768600 -34.187800
H -27.595000 -24.388200 -32.780100
C -27.502500 -22.318800 -32.767600
H -27.399000 -22.427900 -31.799400
C -27.339700 -23.698200 -33.411100
C -26.298500 -21.621700 -33.273600
H -26.241900 -24.128900 -35.834900
H -26.201600 -25.496600 -35.068600
N -25.913400 -20.335400 -33.290500
C -25.864900 -23.895800 -33.833800
C -25.770100 -24.632800 -35.154000
H -25.384100 -24.393400 -33.140400
C -25.378100 -22.463500 -33.871300
N -24.706400 -20.382600 -33.909200
H -24.543200 -18.490300 -34.525100
N -24.387700 -24.827900 -35.574600
C -24.351800 -21.652700 -34.269000
H -24.274400 -16.873900 -32.842600
H -24.008500 -23.410900 -36.974000
C -23.946800 -19.162600 -34.160700
N -23.782000 -26.705300 -34.161600
H -23.711300 -28.513900 -32.651000
C -23.648400 -24.115300 -36.486700
C -23.604200 -17.374800 -32.434500
H -23.570000 -21.913700 -34.700000
C -23.524200 -25.773500 -35.083200
C -23.284900 -18.613300 -32.925900
H -23.267000 -19.348100 -34.827100
H -23.147900 -16.019700 -31.008100
C -22.930600 -16.864200 -31.330800
N -22.829500 -28.448800 -32.986300
C -22.709200 -27.480900 -33.937900
N -22.411100 -24.490800 -36.619500
C -22.317500 -25.566500 -35.753700
C -22.296400 -19.314100 -32.297000
H -22.164900 -29.119700 -32.942600
H -22.055900 -20.153300 -32.619800
C -21.964300 -17.584600 -30.724900
C -21.646600 -18.796100 -31.187100
H -21.520400 -17.236500 -29.985600
N -21.483800 -27.389600 -34.520100
C -21.307800 -26.432500 -35.410100
H -20.985700 -19.294300 -30.762300
Cl -19.757900 -26.345900 -36.158900
49
Fragment
Cl -29.650100 -5.079300 -26.311100
H -28.422300 -12.130900 -31.707700
C -28.100200 -4.992600 -27.060000
N -27.924200 -4.035600 -27.949900
H -27.887600 -14.188600 -32.484400
C -27.761400 -12.629100 -31.282900
C -27.443600 -13.840600 -31.745200
H -27.352000 -11.271900 -29.850300
H -27.243000 -2.305400 -29.527500
C -27.111600 -12.111100 -30.173000
C -27.090400 -5.858700 -26.716400
N -26.996900 -6.934400 -25.850500
C -26.698700 -3.944200 -28.532200
N -26.578500 -2.976400 -29.483800
C -26.477300 -14.561000 -31.139300
H -26.260000 -15.405400 -31.462000
H -26.141000 -12.077000 -27.643000
C -26.123000 -12.811900 -29.544200
C -25.883700 -5.651700 -27.386900
H -25.837900 -9.511400 -27.770000
C -25.803700 -14.050300 -30.035600
C -25.759600 -7.309800 -25.983400
H -25.696600 -2.911300 -29.819100
N -25.626000 -4.719900 -28.308500
C -25.461100 -12.262600 -28.309400
H -25.399500 -8.014200 -25.496100
H -25.133600 -14.551300 -29.627500
C -25.056100 -9.772400 -28.201100
N -25.020300 -6.597200 -26.895500
H -24.864700 -12.934800 -27.944900
N -24.701600 -11.042600 -28.560900
C -24.029800 -8.961600 -28.598800
H -24.023800 -7.031700 -29.329700
C -23.637900 -6.792400 -27.316100
C -23.543000 -7.529400 -28.636300
N -23.494600 -11.089800 -29.179600
H -23.206300 -5.928500 -27.401500
H -23.166100 -7.296300 -26.635200
C -23.109500 -9.803400 -29.196400
C -22.068200 -7.727000 -29.059000
H -22.008900 -8.997200 -30.670700
C -21.905400 -9.106400 -29.702400
H -21.812900 -7.037000 -29.689900
H -21.492000 -7.656600 -28.282300
H -20.685300 -10.642400 -27.817900
H -20.655500 -10.649300 -29.906500
C -20.628600 -9.786100 -29.465100
O -20.278500 -9.992400 -28.107400
H -19.924000 -9.267200 -29.885700
98
Fragment
H -29.483900 -22.157900 -32.584400
O -29.129400 -21.432800 -34.362700
C -28.779300 -21.639100 -33.005000
H -28.752500 -20.775900 -32.563600
H -28.722700 -20.782700 -34.652200
H -27.915900 -23.768600 -34.187800
H -27.595000 -24.388200 -32.780100
C -27.502500 -22.318800 -32.767600
H -27.399000 -22.427900 -31.799400
C -27.339700 -23.698200 -33.411100
C -26.298500 -21.621700 -33.273600
H -26.241900 -24.128900 -35.834900
H -26.201600 -25.496600 -35.068600
N -25.913400 -20.335400 -33.290500
C -25.864900 -23.895800 -33.833800
C -25.770100 -24.632800 -35.154000
H -25.384100 -24.393400 -33.140400
C -25.378100 -22.463500 -33.871300
N -24.706400 -20.382600 -33.909200
H -24.543200 -18.490300 -34.525100
N -24.387700 -24.827900 -35.574600
C -24.351800 -21.652700 -34.269000
H -24.274400 -16.873900 -32.842600
H -24.008500 -23.410900 -36.974000
C -23.946800 -19.162600 -34.160700
N -23.782000 -26.705300 -34.161600
H -23.711300 -28.513900 -32.651000
C -23.648400 -24.115300 -36.486700
C -23.604200 -17.374800 -32.434500
H -23.570000 -21.913700 -34.700000
C -23.524200 -25.773500 -35.083200
C -23.284900 -18.613300 -32.925900
H -23.267000 -19.348100 -34.827100
H -23.147900 -16.019700 -31.008100
C -22.930600 -16.864200 -31.330800
N -22.829500 -28.448800 -32.986300
C -22.709200 -27.480900 -33.937900
N -22.411100 -24.490800 -36.619500
C -22.317500 -25.566500 -35.753700
C -22.296400 -19.314100 -32.297000
H -22.164900 -29.119700 -32.942600
H -22.055900 -20.153300 -32.619800
C -21.964300 -17.584600 -30.724900
C -21.646600 -18.796100 -31.187100
H -21.520400 -17.236500 -29.985600
N -21.483800 -27.389600 -34.520100
C -21.307800 -26.432500 -35.410100
H -20.985700 -19.294300 -30.762300
Cl -19.757900 -26.345900 -36.158900
Cl -29.650100 -5.079300 -26.311100
H -28.422300 -12.130900 -31.707700
C -28.100200 -4.992600 -27.060000
N -27.924200 -4.035600 -27.949900
H -27.887600 -14.188600 -32.484400
C -27.761400 -12.629100 -31.282900
C -27.443600 -13.840600 -31.745200
H -27.352000 -11.271900 -29.850300
H -27.243000 -2.305400 -29.527500
C -27.111600 -12.111100 -30.173000
C -27.090400 -5.858700 -26.716400
N -26.996900 -6.934400 -25.850500
C -26.698700 -3.944200 -28.532200
N -26.578500 -2.976400 -29.483800
C -26.477300 -14.561000 -31.139300
H -26.260000 -15.405400 -31.462000
H -26.141000 -12.077000 -27.643000
C -26.123000 -12.811900 -29.544200
C -25.883700 -5.651700 -27.386900
H -25.837900 -9.511400 -27.770000
C -25.803700 -14.050300 -30.035600
C -25.759600 -7.309800 -25.983400
H -25.696600 -2.911300 -29.819100
N -25.626000 -4.719900 -28.308500
C -25.461100 -12.262600 -28.309400
H -25.399500 -8.014200 -25.496100
H -25.133600 -14.551300 -29.627500
C -25.056100 -9.772400 -28.201100
N -25.020300 -6.597200 -26.895500
H -24.864700 -12.934800 -27.944900
N -24.701600 -11.042600 -28.560900
C -24.029800 -8.961600 -28.598800
H -24.023800 -7.031700 -29.329700
C -23.637900 -6.792400 -27.316100
C -23.543000 -7.529400 -28.636300
N -23.494600 -11.089800 -29.179600
H -23.206300 -5.928500 -27.401500
H -23.166100 -7.296300 -26.635200
C -23.109500 -9.803400 -29.196400
C -22.068200 -7.727000 -29.059000
H -22.008900 -8.997200 -30.670700
C -21.905400 -9.106400 -29.702400
H -21.812900 -7.037000 -29.689900
H -21.492000 -7.656600 -28.282300
H -20.685300 -10.642400 -27.817900
H -20.655500 -10.649300 -29.906500
C -20.628600 -9.786100 -29.465100
O -20.278500 -9.992400 -28.107400
H -19.924000 -9.267200 -29.885700
