49
Fragment
H -29.483900 -22.157900 -32.584400
O -29.129400 -21.432800 -34.362700
C -28.779300 -21.639100 -33.005000
H -28.752500 -20.775900 -32.563600
H -28.722700 -20.782700 -34.652200
H -27.915900 -23.768600 -34.187800
H -27.595000 -24.388200 -32.780100
C -27.502500 -22.318800 -32.767600
H -27.399000 -22.427900 -31.799400
C -27.339700 -23.698200 -33.411100
C -26.298500 -21.621700 -33.273600
H -26.241900 -24.128900 -35.834900
H -26.201600 -25.496600 -35.068600
N -25.913400 -20.335400 -33.290500
C -25.864900 -23.895800 -33.833800
C -25.770100 -24.632800 -35.154000
H -25.384100 -24.393400 -33.140400
C -25.378100 -22.463500 -33.871300
N -24.706400 -20.382600 -33.909200
H -24.543200 -18.490300 -34.525100
N -24.387700 -24.827900 -35.574600
C -24.351800 -21.652700 -34.269000
H -24.274400 -16.873900 -32.842600
H -24.008500 -23.410900 -36.974000
C -23.946800 -19.162600 -34.160700
N -23.782000 -26.705300 -34.161600
H -23.711300 -28.513900 -32.651000
C -23.648400 -24.115300 -36.486700
C -23.604200 -17.374800 -32.434500
H -23.570000 -21.913700 -34.700000
C -23.524200 -25.773500 -35.083200
C -23.284900 -18.613300 -32.925900
H -23.267000 -19.348100 -34.827100
H -23.147900 -16.019700 -31.008100
C -22.930600 -16.864200 -31.330800
N -22.829500 -28.448800 -32.986300
C -22.709200 -27.480900 -33.937900
N -22.411100 -24.490800 -36.619500
C -22.317500 -25.566500 -35.753700
C -22.296400 -19.314100 -32.297000
H -22.164900 -29.119700 -32.942600
H -22.055900 -20.153300 -32.619800
C -21.964300 -17.584600 -30.724900
C -21.646600 -18.796100 -31.187100
H -21.520400 -17.236500 -29.985600
N -21.483800 -27.389600 -34.520100
C -21.307800 -26.432500 -35.410100
H -20.985700 -19.294300 -30.762300
Cl -19.757900 -26.345900 -36.158900
49
Fragment
Cl -25.883000 -28.284300 -36.531000
H -24.987500 -34.889400 -42.048600
H -24.604300 -37.025000 -42.787800
C -24.390200 -28.097600 -37.321700
C -24.352600 -35.423300 -41.630100
N -24.318700 -27.112000 -38.217300
C -24.130000 -36.689900 -42.063200
H -23.780000 -34.066700 -40.257800
H -23.633300 -25.149400 -39.731000
C -23.626800 -34.933600 -40.557700
C -23.299400 -28.915800 -37.057300
C -23.206700 -37.470000 -41.430200
C -23.141800 -26.938600 -38.900100
N -23.116900 -25.949100 -39.810100
H -23.071100 -38.344300 -41.717500
N -23.049000 -29.983600 -36.200800
C -22.676800 -35.715800 -39.924600
H -22.566800 -34.996000 -38.019300
C -22.475000 -36.981300 -40.376500
H -22.416100 -25.621400 -40.355700
H -22.374700 -32.398600 -38.467000
C -22.175500 -28.638500 -37.836000
N -22.023000 -27.691900 -38.751000
C -21.930200 -35.184300 -38.727300
H -21.836600 -37.521200 -39.968400
C -21.830700 -30.315800 -36.484600
C -21.564600 -32.687800 -38.821000
H -21.397000 -31.019800 -36.057700
H -21.325600 -35.870800 -38.404500
N -21.222900 -29.561600 -37.456200
N -21.159900 -33.970200 -39.001700
H -20.687700 -29.990400 -39.995400
C -20.519700 -31.898200 -39.270800
C -20.060300 -30.472500 -39.416500
C -19.940300 -29.743500 -38.094300
N -19.920900 -34.070200 -39.546100
C -19.556200 -32.790500 -39.691400
H -19.534000 -28.876000 -38.246300
H -19.358200 -30.246900 -37.505000
H -18.772900 -30.330100 -41.082400
C -18.689400 -30.642800 -40.168300
C -18.298700 -32.144400 -40.155800
H -18.105400 -32.435600 -41.072000
H -18.003700 -30.118500 -39.728900
O -17.407400 -31.900000 -37.979700
C -17.094300 -32.480100 -39.247900
H -16.982300 -33.440700 -39.168700
H -16.722900 -31.832900 -37.532000
H -16.278400 -32.099500 -39.608100
98
Fragment
H -29.483900 -22.157900 -32.584400
O -29.129400 -21.432800 -34.362700
C -28.779300 -21.639100 -33.005000
H -28.752500 -20.775900 -32.563600
H -28.722700 -20.782700 -34.652200
H -27.915900 -23.768600 -34.187800
H -27.595000 -24.388200 -32.780100
C -27.502500 -22.318800 -32.767600
H -27.399000 -22.427900 -31.799400
C -27.339700 -23.698200 -33.411100
C -26.298500 -21.621700 -33.273600
H -26.241900 -24.128900 -35.834900
H -26.201600 -25.496600 -35.068600
N -25.913400 -20.335400 -33.290500
C -25.864900 -23.895800 -33.833800
C -25.770100 -24.632800 -35.154000
H -25.384100 -24.393400 -33.140400
C -25.378100 -22.463500 -33.871300
N -24.706400 -20.382600 -33.909200
H -24.543200 -18.490300 -34.525100
N -24.387700 -24.827900 -35.574600
C -24.351800 -21.652700 -34.269000
H -24.274400 -16.873900 -32.842600
H -24.008500 -23.410900 -36.974000
C -23.946800 -19.162600 -34.160700
N -23.782000 -26.705300 -34.161600
H -23.711300 -28.513900 -32.651000
C -23.648400 -24.115300 -36.486700
C -23.604200 -17.374800 -32.434500
H -23.570000 -21.913700 -34.700000
C -23.524200 -25.773500 -35.083200
C -23.284900 -18.613300 -32.925900
H -23.267000 -19.348100 -34.827100
H -23.147900 -16.019700 -31.008100
C -22.930600 -16.864200 -31.330800
N -22.829500 -28.448800 -32.986300
C -22.709200 -27.480900 -33.937900
N -22.411100 -24.490800 -36.619500
C -22.317500 -25.566500 -35.753700
C -22.296400 -19.314100 -32.297000
H -22.164900 -29.119700 -32.942600
H -22.055900 -20.153300 -32.619800
C -21.964300 -17.584600 -30.724900
C -21.646600 -18.796100 -31.187100
H -21.520400 -17.236500 -29.985600
N -21.483800 -27.389600 -34.520100
C -21.307800 -26.432500 -35.410100
H -20.985700 -19.294300 -30.762300
Cl -19.757900 -26.345900 -36.158900
Cl -25.883000 -28.284300 -36.531000
H -24.987500 -34.889400 -42.048600
H -24.604300 -37.025000 -42.787800
C -24.390200 -28.097600 -37.321700
C -24.352600 -35.423300 -41.630100
N -24.318700 -27.112000 -38.217300
C -24.130000 -36.689900 -42.063200
H -23.780000 -34.066700 -40.257800
H -23.633300 -25.149400 -39.731000
C -23.626800 -34.933600 -40.557700
C -23.299400 -28.915800 -37.057300
C -23.206700 -37.470000 -41.430200
C -23.141800 -26.938600 -38.900100
N -23.116900 -25.949100 -39.810100
H -23.071100 -38.344300 -41.717500
N -23.049000 -29.983600 -36.200800
C -22.676800 -35.715800 -39.924600
H -22.566800 -34.996000 -38.019300
C -22.475000 -36.981300 -40.376500
H -22.416100 -25.621400 -40.355700
H -22.374700 -32.398600 -38.467000
C -22.175500 -28.638500 -37.836000
N -22.023000 -27.691900 -38.751000
C -21.930200 -35.184300 -38.727300
H -21.836600 -37.521200 -39.968400
C -21.830700 -30.315800 -36.484600
C -21.564600 -32.687800 -38.821000
H -21.397000 -31.019800 -36.057700
H -21.325600 -35.870800 -38.404500
N -21.222900 -29.561600 -37.456200
N -21.159900 -33.970200 -39.001700
H -20.687700 -29.990400 -39.995400
C -20.519700 -31.898200 -39.270800
C -20.060300 -30.472500 -39.416500
C -19.940300 -29.743500 -38.094300
N -19.920900 -34.070200 -39.546100
C -19.556200 -32.790500 -39.691400
H -19.534000 -28.876000 -38.246300
H -19.358200 -30.246900 -37.505000
H -18.772900 -30.330100 -41.082400
C -18.689400 -30.642800 -40.168300
C -18.298700 -32.144400 -40.155800
H -18.105400 -32.435600 -41.072000
H -18.003700 -30.118500 -39.728900
O -17.407400 -31.900000 -37.979700
C -17.094300 -32.480100 -39.247900
H -16.982300 -33.440700 -39.168700
H -16.722900 -31.832900 -37.532000
H -16.278400 -32.099500 -39.608100
