49
Fragment
H -29.483900 -22.157900 -32.584400
O -29.129400 -21.432800 -34.362700
C -28.779300 -21.639100 -33.005000
H -28.752500 -20.775900 -32.563600
H -28.722700 -20.782700 -34.652200
H -27.915900 -23.768600 -34.187800
H -27.595000 -24.388200 -32.780100
C -27.502500 -22.318800 -32.767600
H -27.399000 -22.427900 -31.799400
C -27.339700 -23.698200 -33.411100
C -26.298500 -21.621700 -33.273600
H -26.241900 -24.128900 -35.834900
H -26.201600 -25.496600 -35.068600
N -25.913400 -20.335400 -33.290500
C -25.864900 -23.895800 -33.833800
C -25.770100 -24.632800 -35.154000
H -25.384100 -24.393400 -33.140400
C -25.378100 -22.463500 -33.871300
N -24.706400 -20.382600 -33.909200
H -24.543200 -18.490300 -34.525100
N -24.387700 -24.827900 -35.574600
C -24.351800 -21.652700 -34.269000
H -24.274400 -16.873900 -32.842600
H -24.008500 -23.410900 -36.974000
C -23.946800 -19.162600 -34.160700
N -23.782000 -26.705300 -34.161600
H -23.711300 -28.513900 -32.651000
C -23.648400 -24.115300 -36.486700
C -23.604200 -17.374800 -32.434500
H -23.570000 -21.913700 -34.700000
C -23.524200 -25.773500 -35.083200
C -23.284900 -18.613300 -32.925900
H -23.267000 -19.348100 -34.827100
H -23.147900 -16.019700 -31.008100
C -22.930600 -16.864200 -31.330800
N -22.829500 -28.448800 -32.986300
C -22.709200 -27.480900 -33.937900
N -22.411100 -24.490800 -36.619500
C -22.317500 -25.566500 -35.753700
C -22.296400 -19.314100 -32.297000
H -22.164900 -29.119700 -32.942600
H -22.055900 -20.153300 -32.619800
C -21.964300 -17.584600 -30.724900
C -21.646600 -18.796100 -31.187100
H -21.520400 -17.236500 -29.985600
N -21.483800 -27.389600 -34.520100
C -21.307800 -26.432500 -35.410100
H -20.985700 -19.294300 -30.762300
Cl -19.757900 -26.345900 -36.158900
49
Fragment
H -24.413000 -32.673200 -32.584400
O -24.058500 -31.948000 -34.362700
C -23.708400 -32.154300 -33.005000
H -23.681600 -31.291100 -32.563600
H -23.651800 -31.298000 -34.652200
H -22.845000 -34.283800 -34.187800
H -22.524100 -34.903400 -32.780100
C -22.431600 -32.834000 -32.767600
H -22.328100 -32.943200 -31.799400
C -22.268800 -34.213400 -33.411100
C -21.227500 -32.137000 -33.273600
H -21.171000 -34.644100 -35.834900
H -21.130700 -36.011900 -35.068600
N -20.842400 -30.850600 -33.290500
C -20.794000 -34.411000 -33.833800
C -20.699100 -35.148000 -35.154000
H -20.313200 -34.908700 -33.140400
C -20.307200 -32.978800 -33.871300
N -19.635500 -30.897800 -33.909200
H -19.472300 -29.005600 -34.525100
N -19.316700 -35.343200 -35.574600
C -19.280900 -32.168000 -34.269000
H -19.203400 -27.389100 -32.842600
H -18.937600 -33.926200 -36.974000
C -18.875900 -29.677800 -34.160700
N -18.711000 -37.220500 -34.161600
H -18.640400 -39.029100 -32.651000
C -18.577500 -34.630600 -36.486700
C -18.533300 -27.890100 -32.434500
H -18.499100 -32.429000 -34.700000
C -18.453300 -36.288700 -35.083200
C -18.214000 -29.128500 -32.925900
H -18.196100 -29.863400 -34.827100
H -18.077000 -26.534900 -31.008100
C -17.859700 -27.379400 -31.330800
N -17.758600 -38.964000 -32.986300
C -17.638300 -37.996200 -33.937900
N -17.340100 -35.006000 -36.619500
C -17.246600 -36.081700 -35.753700
C -17.225500 -29.829300 -32.297000
H -17.094000 -39.635000 -32.942600
H -16.985000 -30.668500 -32.619800
C -16.893400 -28.099800 -30.724900
C -16.575600 -29.311300 -31.187100
H -16.449400 -27.751800 -29.985600
N -16.412800 -37.904800 -34.520100
C -16.236800 -36.947800 -35.410100
H -15.914700 -29.809500 -30.762300
Cl -14.687000 -36.861100 -36.158900
98
Fragment
H -29.483900 -22.157900 -32.584400
O -29.129400 -21.432800 -34.362700
C -28.779300 -21.639100 -33.005000
H -28.752500 -20.775900 -32.563600
H -28.722700 -20.782700 -34.652200
H -27.915900 -23.768600 -34.187800
H -27.595000 -24.388200 -32.780100
C -27.502500 -22.318800 -32.767600
H -27.399000 -22.427900 -31.799400
C -27.339700 -23.698200 -33.411100
C -26.298500 -21.621700 -33.273600
H -26.241900 -24.128900 -35.834900
H -26.201600 -25.496600 -35.068600
N -25.913400 -20.335400 -33.290500
C -25.864900 -23.895800 -33.833800
C -25.770100 -24.632800 -35.154000
H -25.384100 -24.393400 -33.140400
C -25.378100 -22.463500 -33.871300
N -24.706400 -20.382600 -33.909200
H -24.543200 -18.490300 -34.525100
N -24.387700 -24.827900 -35.574600
C -24.351800 -21.652700 -34.269000
H -24.274400 -16.873900 -32.842600
H -24.008500 -23.410900 -36.974000
C -23.946800 -19.162600 -34.160700
N -23.782000 -26.705300 -34.161600
H -23.711300 -28.513900 -32.651000
C -23.648400 -24.115300 -36.486700
C -23.604200 -17.374800 -32.434500
H -23.570000 -21.913700 -34.700000
C -23.524200 -25.773500 -35.083200
C -23.284900 -18.613300 -32.925900
H -23.267000 -19.348100 -34.827100
H -23.147900 -16.019700 -31.008100
C -22.930600 -16.864200 -31.330800
N -22.829500 -28.448800 -32.986300
C -22.709200 -27.480900 -33.937900
N -22.411100 -24.490800 -36.619500
C -22.317500 -25.566500 -35.753700
C -22.296400 -19.314100 -32.297000
H -22.164900 -29.119700 -32.942600
H -22.055900 -20.153300 -32.619800
C -21.964300 -17.584600 -30.724900
C -21.646600 -18.796100 -31.187100
H -21.520400 -17.236500 -29.985600
N -21.483800 -27.389600 -34.520100
C -21.307800 -26.432500 -35.410100
H -20.985700 -19.294300 -30.762300
Cl -19.757900 -26.345900 -36.158900
H -24.413000 -32.673200 -32.584400
O -24.058500 -31.948000 -34.362700
C -23.708400 -32.154300 -33.005000
H -23.681600 -31.291100 -32.563600
H -23.651800 -31.298000 -34.652200
H -22.845000 -34.283800 -34.187800
H -22.524100 -34.903400 -32.780100
C -22.431600 -32.834000 -32.767600
H -22.328100 -32.943200 -31.799400
C -22.268800 -34.213400 -33.411100
C -21.227500 -32.137000 -33.273600
H -21.171000 -34.644100 -35.834900
H -21.130700 -36.011900 -35.068600
N -20.842400 -30.850600 -33.290500
C -20.794000 -34.411000 -33.833800
C -20.699100 -35.148000 -35.154000
H -20.313200 -34.908700 -33.140400
C -20.307200 -32.978800 -33.871300
N -19.635500 -30.897800 -33.909200
H -19.472300 -29.005600 -34.525100
N -19.316700 -35.343200 -35.574600
C -19.280900 -32.168000 -34.269000
H -19.203400 -27.389100 -32.842600
H -18.937600 -33.926200 -36.974000
C -18.875900 -29.677800 -34.160700
N -18.711000 -37.220500 -34.161600
H -18.640400 -39.029100 -32.651000
C -18.577500 -34.630600 -36.486700
C -18.533300 -27.890100 -32.434500
H -18.499100 -32.429000 -34.700000
C -18.453300 -36.288700 -35.083200
C -18.214000 -29.128500 -32.925900
H -18.196100 -29.863400 -34.827100
H -18.077000 -26.534900 -31.008100
C -17.859700 -27.379400 -31.330800
N -17.758600 -38.964000 -32.986300
C -17.638300 -37.996200 -33.937900
N -17.340100 -35.006000 -36.619500
C -17.246600 -36.081700 -35.753700
C -17.225500 -29.829300 -32.297000
H -17.094000 -39.635000 -32.942600
H -16.985000 -30.668500 -32.619800
C -16.893400 -28.099800 -30.724900
C -16.575600 -29.311300 -31.187100
H -16.449400 -27.751800 -29.985600
N -16.412800 -37.904800 -34.520100
C -16.236800 -36.947800 -35.410100
H -15.914700 -29.809500 -30.762300
Cl -14.687000 -36.861100 -36.158900
