49
Fragment
H -29.483900 -22.157900 -32.584400
O -29.129400 -21.432800 -34.362700
C -28.779300 -21.639100 -33.005000
H -28.752500 -20.775900 -32.563600
H -28.722700 -20.782700 -34.652200
H -27.915900 -23.768600 -34.187800
H -27.595000 -24.388200 -32.780100
C -27.502500 -22.318800 -32.767600
H -27.399000 -22.427900 -31.799400
C -27.339700 -23.698200 -33.411100
C -26.298500 -21.621700 -33.273600
H -26.241900 -24.128900 -35.834900
H -26.201600 -25.496600 -35.068600
N -25.913400 -20.335400 -33.290500
C -25.864900 -23.895800 -33.833800
C -25.770100 -24.632800 -35.154000
H -25.384100 -24.393400 -33.140400
C -25.378100 -22.463500 -33.871300
N -24.706400 -20.382600 -33.909200
H -24.543200 -18.490300 -34.525100
N -24.387700 -24.827900 -35.574600
C -24.351800 -21.652700 -34.269000
H -24.274400 -16.873900 -32.842600
H -24.008500 -23.410900 -36.974000
C -23.946800 -19.162600 -34.160700
N -23.782000 -26.705300 -34.161600
H -23.711300 -28.513900 -32.651000
C -23.648400 -24.115300 -36.486700
C -23.604200 -17.374800 -32.434500
H -23.570000 -21.913700 -34.700000
C -23.524200 -25.773500 -35.083200
C -23.284900 -18.613300 -32.925900
H -23.267000 -19.348100 -34.827100
H -23.147900 -16.019700 -31.008100
C -22.930600 -16.864200 -31.330800
N -22.829500 -28.448800 -32.986300
C -22.709200 -27.480900 -33.937900
N -22.411100 -24.490800 -36.619500
C -22.317500 -25.566500 -35.753700
C -22.296400 -19.314100 -32.297000
H -22.164900 -29.119700 -32.942600
H -22.055900 -20.153300 -32.619800
C -21.964300 -17.584600 -30.724900
C -21.646600 -18.796100 -31.187100
H -21.520400 -17.236500 -29.985600
N -21.483800 -27.389600 -34.520100
C -21.307800 -26.432500 -35.410100
H -20.985700 -19.294300 -30.762300
Cl -19.757900 -26.345900 -36.158900
49
Fragment
H -33.599100 -32.673200 -32.584400
O -33.244600 -31.948000 -34.362700
C -32.894500 -32.154300 -33.005000
H -32.867700 -31.291100 -32.563600
H -32.837900 -31.298000 -34.652200
H -32.031100 -34.283800 -34.187800
H -31.710200 -34.903400 -32.780100
C -31.617700 -32.834000 -32.767600
H -31.514200 -32.943200 -31.799400
C -31.454900 -34.213400 -33.411100
C -30.413600 -32.137000 -33.273600
H -30.357100 -34.644100 -35.834900
H -30.316800 -36.011900 -35.068600
N -30.028500 -30.850600 -33.290500
C -29.980100 -34.411000 -33.833800
C -29.885200 -35.148000 -35.154000
H -29.499300 -34.908700 -33.140400
C -29.493300 -32.978800 -33.871300
N -28.821600 -30.897800 -33.909200
H -28.658400 -29.005600 -34.525100
N -28.502800 -35.343200 -35.574600
C -28.467000 -32.168000 -34.269000
H -28.389500 -27.389100 -32.842600
H -28.123700 -33.926200 -36.974000
C -28.062000 -29.677800 -34.160700
N -27.897100 -37.220500 -34.161600
H -27.826500 -39.029100 -32.651000
C -27.763600 -34.630600 -36.486700
C -27.719400 -27.890100 -32.434500
H -27.685200 -32.429000 -34.700000
C -27.639400 -36.288700 -35.083200
C -27.400100 -29.128500 -32.925900
H -27.382200 -29.863400 -34.827100
H -27.263100 -26.534900 -31.008100
C -27.045800 -27.379400 -31.330800
N -26.944700 -38.964000 -32.986300
C -26.824400 -37.996200 -33.937900
N -26.526200 -35.006000 -36.619500
C -26.432700 -36.081700 -35.753700
C -26.411600 -29.829300 -32.297000
H -26.280100 -39.635000 -32.942600
H -26.171100 -30.668500 -32.619800
C -26.079500 -28.099800 -30.724900
C -25.761700 -29.311300 -31.187100
H -25.635500 -27.751800 -29.985600
N -25.598900 -37.904800 -34.520100
C -25.422900 -36.947800 -35.410100
H -25.100800 -29.809500 -30.762300
Cl -23.873100 -36.861100 -36.158900
98
Fragment
H -29.483900 -22.157900 -32.584400
O -29.129400 -21.432800 -34.362700
C -28.779300 -21.639100 -33.005000
H -28.752500 -20.775900 -32.563600
H -28.722700 -20.782700 -34.652200
H -27.915900 -23.768600 -34.187800
H -27.595000 -24.388200 -32.780100
C -27.502500 -22.318800 -32.767600
H -27.399000 -22.427900 -31.799400
C -27.339700 -23.698200 -33.411100
C -26.298500 -21.621700 -33.273600
H -26.241900 -24.128900 -35.834900
H -26.201600 -25.496600 -35.068600
N -25.913400 -20.335400 -33.290500
C -25.864900 -23.895800 -33.833800
C -25.770100 -24.632800 -35.154000
H -25.384100 -24.393400 -33.140400
C -25.378100 -22.463500 -33.871300
N -24.706400 -20.382600 -33.909200
H -24.543200 -18.490300 -34.525100
N -24.387700 -24.827900 -35.574600
C -24.351800 -21.652700 -34.269000
H -24.274400 -16.873900 -32.842600
H -24.008500 -23.410900 -36.974000
C -23.946800 -19.162600 -34.160700
N -23.782000 -26.705300 -34.161600
H -23.711300 -28.513900 -32.651000
C -23.648400 -24.115300 -36.486700
C -23.604200 -17.374800 -32.434500
H -23.570000 -21.913700 -34.700000
C -23.524200 -25.773500 -35.083200
C -23.284900 -18.613300 -32.925900
H -23.267000 -19.348100 -34.827100
H -23.147900 -16.019700 -31.008100
C -22.930600 -16.864200 -31.330800
N -22.829500 -28.448800 -32.986300
C -22.709200 -27.480900 -33.937900
N -22.411100 -24.490800 -36.619500
C -22.317500 -25.566500 -35.753700
C -22.296400 -19.314100 -32.297000
H -22.164900 -29.119700 -32.942600
H -22.055900 -20.153300 -32.619800
C -21.964300 -17.584600 -30.724900
C -21.646600 -18.796100 -31.187100
H -21.520400 -17.236500 -29.985600
N -21.483800 -27.389600 -34.520100
C -21.307800 -26.432500 -35.410100
H -20.985700 -19.294300 -30.762300
Cl -19.757900 -26.345900 -36.158900
H -33.599100 -32.673200 -32.584400
O -33.244600 -31.948000 -34.362700
C -32.894500 -32.154300 -33.005000
H -32.867700 -31.291100 -32.563600
H -32.837900 -31.298000 -34.652200
H -32.031100 -34.283800 -34.187800
H -31.710200 -34.903400 -32.780100
C -31.617700 -32.834000 -32.767600
H -31.514200 -32.943200 -31.799400
C -31.454900 -34.213400 -33.411100
C -30.413600 -32.137000 -33.273600
H -30.357100 -34.644100 -35.834900
H -30.316800 -36.011900 -35.068600
N -30.028500 -30.850600 -33.290500
C -29.980100 -34.411000 -33.833800
C -29.885200 -35.148000 -35.154000
H -29.499300 -34.908700 -33.140400
C -29.493300 -32.978800 -33.871300
N -28.821600 -30.897800 -33.909200
H -28.658400 -29.005600 -34.525100
N -28.502800 -35.343200 -35.574600
C -28.467000 -32.168000 -34.269000
H -28.389500 -27.389100 -32.842600
H -28.123700 -33.926200 -36.974000
C -28.062000 -29.677800 -34.160700
N -27.897100 -37.220500 -34.161600
H -27.826500 -39.029100 -32.651000
C -27.763600 -34.630600 -36.486700
C -27.719400 -27.890100 -32.434500
H -27.685200 -32.429000 -34.700000
C -27.639400 -36.288700 -35.083200
C -27.400100 -29.128500 -32.925900
H -27.382200 -29.863400 -34.827100
H -27.263100 -26.534900 -31.008100
C -27.045800 -27.379400 -31.330800
N -26.944700 -38.964000 -32.986300
C -26.824400 -37.996200 -33.937900
N -26.526200 -35.006000 -36.619500
C -26.432700 -36.081700 -35.753700
C -26.411600 -29.829300 -32.297000
H -26.280100 -39.635000 -32.942600
H -26.171100 -30.668500 -32.619800
C -26.079500 -28.099800 -30.724900
C -25.761700 -29.311300 -31.187100
H -25.635500 -27.751800 -29.985600
N -25.598900 -37.904800 -34.520100
C -25.422900 -36.947800 -35.410100
H -25.100800 -29.809500 -30.762300
Cl -23.873100 -36.861100 -36.158900
