40
Fragment
H -8.415400 -13.564000 -22.558600
H -7.868200 -13.091300 -23.953800
O -7.750200 -11.239700 -18.066100
C -7.595500 -13.448800 -23.093200
H -7.332400 -9.687400 -15.956300
H -7.135500 -11.604200 -22.220500
C -7.117400 -11.349200 -17.021600
H -7.107500 -14.337600 -23.279000
H -6.999700 -13.227100 -20.475700
N -6.997700 -10.478900 -16.008400
H -6.995500 -13.660300 -17.994900
C -6.661800 -12.500600 -22.368200
N -6.354900 -12.430800 -16.616800
C -6.221200 -13.049500 -21.028500
H -6.206500 -14.380600 -16.857900
C -6.203800 -13.634400 -17.418100
N -6.188800 -10.956300 -14.996000
H -5.849300 -12.340800 -22.926600
C -5.814400 -12.133200 -15.391000
H -5.746900 -13.907800 -21.154800
H -5.392200 -13.907800 -14.509800
C -5.324700 -12.133200 -20.273600
H -5.289800 -12.340800 -12.738000
N -4.950300 -10.956300 -20.668600
C -4.935300 -13.634400 -18.246400
H -4.932500 -14.380600 -18.806600
C -4.917900 -13.049500 -14.636000
N -4.784200 -12.430800 -19.047700
C -4.477300 -12.500600 -13.296300
H -4.143600 -13.660300 -17.669700
N -4.141400 -10.478900 -19.656200
H -4.139400 -13.227100 -15.188800
H -4.031600 -14.337600 -12.385600
C -4.021600 -11.349200 -18.643000
H -4.003500 -11.604200 -13.444100
H -3.806700 -9.687400 -19.708200
C -3.543600 -13.448800 -12.571300
O -3.388900 -11.239700 -17.598500
H -3.270900 -13.091300 -11.710800
H -2.723700 -13.564000 -13.106000
40
Fragment
H -5.438200 -12.223100 -29.691500
H -4.891000 -12.695800 -31.086700
O -4.773000 -14.547400 -25.199000
C -4.618300 -12.338300 -30.226200
H -4.355200 -16.099700 -23.089200
H -4.158400 -14.182900 -29.353400
C -4.140300 -14.437900 -24.154500
H -4.130300 -11.449500 -30.411900
H -4.022600 -12.560000 -27.608700
N -4.020500 -15.308200 -23.141300
H -4.018300 -12.126800 -25.127800
C -3.684600 -13.286500 -29.501200
N -3.377800 -13.356300 -23.749800
C -3.244000 -12.737600 -28.161500
H -3.229400 -11.406500 -23.990800
C -3.226600 -12.152700 -24.551100
N -3.211600 -14.830800 -22.128900
H -2.872100 -13.446300 -30.059500
C -2.837200 -13.653900 -22.523900
H -2.769700 -11.879300 -28.287700
H -2.415000 -11.879300 -21.642700
C -2.347500 -13.653900 -27.406500
H -2.312700 -13.446300 -19.870900
N -1.973100 -14.830800 -27.801500
C -1.958100 -12.152700 -25.379300
H -1.955400 -11.406500 -25.939600
C -1.940700 -12.737600 -21.768900
N -1.807000 -13.356300 -26.180600
C -1.500200 -13.286500 -20.429200
H -1.166400 -12.126800 -24.802600
N -1.164200 -15.308200 -26.789100
H -1.162200 -12.560000 -22.321700
H -1.054400 -11.449500 -19.518500
C -1.044500 -14.437900 -25.775900
H -1.026400 -14.182900 -20.577000
H -0.829500 -16.099700 -26.841200
C -0.566400 -12.338300 -19.704200
O -0.411700 -14.547400 -24.731400
H -0.293700 -12.695800 -18.843700
H 0.253500 -12.223100 -20.238900
80
Fragment
H -8.415400 -13.564000 -22.558600
H -7.868200 -13.091300 -23.953800
O -7.750200 -11.239700 -18.066100
C -7.595500 -13.448800 -23.093200
H -7.332400 -9.687400 -15.956300
H -7.135500 -11.604200 -22.220500
C -7.117400 -11.349200 -17.021600
H -7.107500 -14.337600 -23.279000
H -6.999700 -13.227100 -20.475700
N -6.997700 -10.478900 -16.008400
H -6.995500 -13.660300 -17.994900
C -6.661800 -12.500600 -22.368200
N -6.354900 -12.430800 -16.616800
C -6.221200 -13.049500 -21.028500
H -6.206500 -14.380600 -16.857900
C -6.203800 -13.634400 -17.418100
N -6.188800 -10.956300 -14.996000
H -5.849300 -12.340800 -22.926600
C -5.814400 -12.133200 -15.391000
H -5.746900 -13.907800 -21.154800
H -5.392200 -13.907800 -14.509800
C -5.324700 -12.133200 -20.273600
H -5.289800 -12.340800 -12.738000
N -4.950300 -10.956300 -20.668600
C -4.935300 -13.634400 -18.246400
H -4.932500 -14.380600 -18.806600
C -4.917900 -13.049500 -14.636000
N -4.784200 -12.430800 -19.047700
C -4.477300 -12.500600 -13.296300
H -4.143600 -13.660300 -17.669700
N -4.141400 -10.478900 -19.656200
H -4.139400 -13.227100 -15.188800
H -4.031600 -14.337600 -12.385600
C -4.021600 -11.349200 -18.643000
H -4.003500 -11.604200 -13.444100
H -3.806700 -9.687400 -19.708200
C -3.543600 -13.448800 -12.571300
O -3.388900 -11.239700 -17.598500
H -3.270900 -13.091300 -11.710800
H -2.723700 -13.564000 -13.106000
H -5.438200 -12.223100 -29.691500
H -4.891000 -12.695800 -31.086700
O -4.773000 -14.547400 -25.199000
C -4.618300 -12.338300 -30.226200
H -4.355200 -16.099700 -23.089200
H -4.158400 -14.182900 -29.353400
C -4.140300 -14.437900 -24.154500
H -4.130300 -11.449500 -30.411900
H -4.022600 -12.560000 -27.608700
N -4.020500 -15.308200 -23.141300
H -4.018300 -12.126800 -25.127800
C -3.684600 -13.286500 -29.501200
N -3.377800 -13.356300 -23.749800
C -3.244000 -12.737600 -28.161500
H -3.229400 -11.406500 -23.990800
C -3.226600 -12.152700 -24.551100
N -3.211600 -14.830800 -22.128900
H -2.872100 -13.446300 -30.059500
C -2.837200 -13.653900 -22.523900
H -2.769700 -11.879300 -28.287700
H -2.415000 -11.879300 -21.642700
C -2.347500 -13.653900 -27.406500
H -2.312700 -13.446300 -19.870900
N -1.973100 -14.830800 -27.801500
C -1.958100 -12.152700 -25.379300
H -1.955400 -11.406500 -25.939600
C -1.940700 -12.737600 -21.768900
N -1.807000 -13.356300 -26.180600
C -1.500200 -13.286500 -20.429200
H -1.166400 -12.126800 -24.802600
N -1.164200 -15.308200 -26.789100
H -1.162200 -12.560000 -22.321700
H -1.054400 -11.449500 -19.518500
C -1.044500 -14.437900 -25.775900
H -1.026400 -14.182900 -20.577000
H -0.829500 -16.099700 -26.841200
C -0.566400 -12.338300 -19.704200
O -0.411700 -14.547400 -24.731400
H -0.293700 -12.695800 -18.843700
H 0.253500 -12.223100 -20.238900
