40
Fragment
H -8.415400 -13.564000 -22.558600
H -7.868200 -13.091300 -23.953800
O -7.750200 -11.239700 -18.066100
C -7.595500 -13.448800 -23.093200
H -7.332400 -9.687400 -15.956300
H -7.135500 -11.604200 -22.220500
C -7.117400 -11.349200 -17.021600
H -7.107500 -14.337600 -23.279000
H -6.999700 -13.227100 -20.475700
N -6.997700 -10.478900 -16.008400
H -6.995500 -13.660300 -17.994900
C -6.661800 -12.500600 -22.368200
N -6.354900 -12.430800 -16.616800
C -6.221200 -13.049500 -21.028500
H -6.206500 -14.380600 -16.857900
C -6.203800 -13.634400 -17.418100
N -6.188800 -10.956300 -14.996000
H -5.849300 -12.340800 -22.926600
C -5.814400 -12.133200 -15.391000
H -5.746900 -13.907800 -21.154800
H -5.392200 -13.907800 -14.509800
C -5.324700 -12.133200 -20.273600
H -5.289800 -12.340800 -12.738000
N -4.950300 -10.956300 -20.668600
C -4.935300 -13.634400 -18.246400
H -4.932500 -14.380600 -18.806600
C -4.917900 -13.049500 -14.636000
N -4.784200 -12.430800 -19.047700
C -4.477300 -12.500600 -13.296300
H -4.143600 -13.660300 -17.669700
N -4.141400 -10.478900 -19.656200
H -4.139400 -13.227100 -15.188800
H -4.031600 -14.337600 -12.385600
C -4.021600 -11.349200 -18.643000
H -4.003500 -11.604200 -13.444100
H -3.806700 -9.687400 -19.708200
C -3.543600 -13.448800 -12.571300
O -3.388900 -11.239700 -17.598500
H -3.270900 -13.091300 -11.710800
H -2.723700 -13.564000 -13.106000
3
Fragment
H -8.528200 -7.718900 -16.511300
O -7.979500 -7.905000 -15.883400
H -7.952500 -7.400900 -15.200200
43
Fragment
H -8.415400 -13.564000 -22.558600
H -7.868200 -13.091300 -23.953800
O -7.750200 -11.239700 -18.066100
C -7.595500 -13.448800 -23.093200
H -7.332400 -9.687400 -15.956300
H -7.135500 -11.604200 -22.220500
C -7.117400 -11.349200 -17.021600
H -7.107500 -14.337600 -23.279000
H -6.999700 -13.227100 -20.475700
N -6.997700 -10.478900 -16.008400
H -6.995500 -13.660300 -17.994900
C -6.661800 -12.500600 -22.368200
N -6.354900 -12.430800 -16.616800
C -6.221200 -13.049500 -21.028500
H -6.206500 -14.380600 -16.857900
C -6.203800 -13.634400 -17.418100
N -6.188800 -10.956300 -14.996000
H -5.849300 -12.340800 -22.926600
C -5.814400 -12.133200 -15.391000
H -5.746900 -13.907800 -21.154800
H -5.392200 -13.907800 -14.509800
C -5.324700 -12.133200 -20.273600
H -5.289800 -12.340800 -12.738000
N -4.950300 -10.956300 -20.668600
C -4.935300 -13.634400 -18.246400
H -4.932500 -14.380600 -18.806600
C -4.917900 -13.049500 -14.636000
N -4.784200 -12.430800 -19.047700
C -4.477300 -12.500600 -13.296300
H -4.143600 -13.660300 -17.669700
N -4.141400 -10.478900 -19.656200
H -4.139400 -13.227100 -15.188800
H -4.031600 -14.337600 -12.385600
C -4.021600 -11.349200 -18.643000
H -4.003500 -11.604200 -13.444100
H -3.806700 -9.687400 -19.708200
C -3.543600 -13.448800 -12.571300
O -3.388900 -11.239700 -17.598500
H -3.270900 -13.091300 -11.710800
H -2.723700 -13.564000 -13.106000
H -8.528200 -7.718900 -16.511300
O -7.979500 -7.905000 -15.883400
H -7.952500 -7.400900 -15.200200
