12
Fragment
Br -8.142300 -20.070500 -21.882300
C -7.016300 -19.096200 -23.015800
N -6.643500 -19.600900 -24.092200
H -6.638100 -21.123200 -26.114300
Br -6.517600 -17.399100 -22.395700
N -6.001400 -20.688400 -26.494900
N -5.801000 -18.928000 -24.912100
H -5.507800 -18.142500 -24.719200
C -5.448800 -19.565300 -26.050600
N -5.388300 -21.029600 -27.648900
N -4.514100 -19.172000 -26.892800
N -4.511300 -20.130400 -27.881400
12
Fragment
Br -12.979100 -20.070500 -21.882300
C -11.853100 -19.096200 -23.015800
N -11.480300 -19.600900 -24.092200
H -11.474900 -21.123200 -26.114300
Br -11.354400 -17.399100 -22.395700
N -10.838200 -20.688400 -26.494900
N -10.637800 -18.928000 -24.912100
H -10.344600 -18.142500 -24.719200
C -10.285600 -19.565300 -26.050600
N -10.225100 -21.029600 -27.648900
N -9.350900 -19.172000 -26.892800
N -9.348100 -20.130400 -27.881400
24
Fragment
Br -8.142300 -20.070500 -21.882300
C -7.016300 -19.096200 -23.015800
N -6.643500 -19.600900 -24.092200
H -6.638100 -21.123200 -26.114300
Br -6.517600 -17.399100 -22.395700
N -6.001400 -20.688400 -26.494900
N -5.801000 -18.928000 -24.912100
H -5.507800 -18.142500 -24.719200
C -5.448800 -19.565300 -26.050600
N -5.388300 -21.029600 -27.648900
N -4.514100 -19.172000 -26.892800
N -4.511300 -20.130400 -27.881400
Br -12.979100 -20.070500 -21.882300
C -11.853100 -19.096200 -23.015800
N -11.480300 -19.600900 -24.092200
H -11.474900 -21.123200 -26.114300
Br -11.354400 -17.399100 -22.395700
N -10.838200 -20.688400 -26.494900
N -10.637800 -18.928000 -24.912100
H -10.344600 -18.142500 -24.719200
C -10.285600 -19.565300 -26.050600
N -10.225100 -21.029600 -27.648900
N -9.350900 -19.172000 -26.892800
N -9.348100 -20.130400 -27.881400
