12
Fragment
Br -8.142300 -20.070500 -21.882300
C -7.016300 -19.096200 -23.015800
N -6.643500 -19.600900 -24.092200
H -6.638100 -21.123200 -26.114300
Br -6.517600 -17.399100 -22.395700
N -6.001400 -20.688400 -26.494900
N -5.801000 -18.928000 -24.912100
H -5.507800 -18.142500 -24.719200
C -5.448800 -19.565300 -26.050600
N -5.388300 -21.029600 -27.648900
N -4.514100 -19.172000 -26.892800
N -4.511300 -20.130400 -27.881400
12
Fragment
Br -3.159000 -21.394000 -30.494000
C -2.033000 -22.368300 -31.627500
N -1.660100 -21.863600 -32.704000
H -1.654700 -20.341300 -34.726000
Br -1.534200 -24.065400 -31.007500
N -1.018000 -20.776100 -35.106700
N -0.817600 -22.536500 -33.523800
H -0.524400 -23.322000 -33.330900
C -0.465500 -21.899200 -34.662300
N -0.404900 -20.434900 -36.260600
N 0.469300 -22.292500 -35.504500
N 0.472100 -21.334100 -36.493200
24
Fragment
Br -8.142300 -20.070500 -21.882300
C -7.016300 -19.096200 -23.015800
N -6.643500 -19.600900 -24.092200
H -6.638100 -21.123200 -26.114300
Br -6.517600 -17.399100 -22.395700
N -6.001400 -20.688400 -26.494900
N -5.801000 -18.928000 -24.912100
H -5.507800 -18.142500 -24.719200
C -5.448800 -19.565300 -26.050600
N -5.388300 -21.029600 -27.648900
N -4.514100 -19.172000 -26.892800
N -4.511300 -20.130400 -27.881400
Br -3.159000 -21.394000 -30.494000
C -2.033000 -22.368300 -31.627500
N -1.660100 -21.863600 -32.704000
H -1.654700 -20.341300 -34.726000
Br -1.534200 -24.065400 -31.007500
N -1.018000 -20.776100 -35.106700
N -0.817600 -22.536500 -33.523800
H -0.524400 -23.322000 -33.330900
C -0.465500 -21.899200 -34.662300
N -0.404900 -20.434900 -36.260600
N 0.469300 -22.292500 -35.504500
N 0.472100 -21.334100 -36.493200
