30
Fragment
O -13.123600 -15.084000 -38.591600
O -12.849400 -14.765900 -40.742300
O -12.511400 -17.459000 -36.895700
N -12.449500 -14.914300 -39.593800
N -11.674700 -17.173300 -37.729500
O -11.618200 -17.649800 -38.854300
N -11.082500 -14.888600 -39.429900
O -11.065500 -16.556100 -33.817700
C -10.683200 -16.143100 -37.348100
N -10.589200 -17.600700 -34.257000
H -10.561700 -14.787400 -40.132300
O -10.543100 -18.677800 -33.666200
C -10.512100 -15.020300 -38.160000
N -10.084400 -17.588500 -35.517600
C -9.963000 -16.337300 -36.176100
H -9.840100 -18.334800 -35.914700
O -9.733600 -11.724500 -37.897300
C -9.688700 -14.015900 -37.646800
N -9.514600 -12.797100 -38.440000
O -9.177900 -12.944400 -39.590900
C -9.134800 -15.306100 -35.725900
C -9.012200 -14.115200 -36.433100
H -8.708600 -12.223100 -35.902500
N -8.420600 -15.467900 -34.449900
O -8.407900 -14.522600 -33.684400
N -8.284700 -12.987900 -36.002200
O -7.893300 -16.559400 -34.241100
N -6.957100 -13.037000 -35.735700
O -6.459000 -11.955600 -35.419300
O -6.375800 -14.105100 -35.839500
30
Fragment
O -17.894600 -19.685600 -41.820200
O -17.811400 -17.536000 -42.240500
N -17.313300 -18.617500 -41.924100
O -16.377100 -22.139900 -43.418700
N -15.985700 -18.568400 -41.657600
O -15.862500 -20.103000 -43.975400
N -15.849800 -21.048300 -43.209900
H -15.561800 -17.803500 -41.757200
C -15.258200 -19.695600 -41.226700
C -15.135600 -20.886500 -41.933800
O -15.092500 -18.524900 -38.068800
N -14.755800 -18.377500 -39.219700
C -14.581700 -19.596300 -40.013000
O -14.536800 -17.305000 -39.762500
H -14.430300 -23.915200 -41.745000
C -14.307400 -21.917800 -41.483600
N -14.186000 -23.168900 -42.142200
C -13.758300 -20.600800 -39.499700
O -13.727300 -24.258200 -43.993600
H -13.708700 -20.367900 -37.527400
N -13.681200 -23.181200 -43.402700
C -13.587200 -21.723600 -40.311600
O -13.204900 -22.136500 -43.842000
N -13.187900 -20.469100 -38.229900
O -12.652200 -23.230300 -38.805500
N -12.595700 -22.753700 -39.930200
N -11.820900 -20.494800 -38.065900
O -11.759000 -23.039400 -40.764000
O -11.421000 -20.346300 -36.917400
O -11.146800 -20.664400 -39.068200
60
Fragment
O -13.123600 -15.084000 -38.591600
O -12.849400 -14.765900 -40.742300
O -12.511400 -17.459000 -36.895700
N -12.449500 -14.914300 -39.593800
N -11.674700 -17.173300 -37.729500
O -11.618200 -17.649800 -38.854300
N -11.082500 -14.888600 -39.429900
O -11.065500 -16.556100 -33.817700
C -10.683200 -16.143100 -37.348100
N -10.589200 -17.600700 -34.257000
H -10.561700 -14.787400 -40.132300
O -10.543100 -18.677800 -33.666200
C -10.512100 -15.020300 -38.160000
N -10.084400 -17.588500 -35.517600
C -9.963000 -16.337300 -36.176100
H -9.840100 -18.334800 -35.914700
O -9.733600 -11.724500 -37.897300
C -9.688700 -14.015900 -37.646800
N -9.514600 -12.797100 -38.440000
O -9.177900 -12.944400 -39.590900
C -9.134800 -15.306100 -35.725900
C -9.012200 -14.115200 -36.433100
H -8.708600 -12.223100 -35.902500
N -8.420600 -15.467900 -34.449900
O -8.407900 -14.522600 -33.684400
N -8.284700 -12.987900 -36.002200
O -7.893300 -16.559400 -34.241100
N -6.957100 -13.037000 -35.735700
O -6.459000 -11.955600 -35.419300
O -6.375800 -14.105100 -35.839500
O -17.894600 -19.685600 -41.820200
O -17.811400 -17.536000 -42.240500
N -17.313300 -18.617500 -41.924100
O -16.377100 -22.139900 -43.418700
N -15.985700 -18.568400 -41.657600
O -15.862500 -20.103000 -43.975400
N -15.849800 -21.048300 -43.209900
H -15.561800 -17.803500 -41.757200
C -15.258200 -19.695600 -41.226700
C -15.135600 -20.886500 -41.933800
O -15.092500 -18.524900 -38.068800
N -14.755800 -18.377500 -39.219700
C -14.581700 -19.596300 -40.013000
O -14.536800 -17.305000 -39.762500
H -14.430300 -23.915200 -41.745000
C -14.307400 -21.917800 -41.483600
N -14.186000 -23.168900 -42.142200
C -13.758300 -20.600800 -39.499700
O -13.727300 -24.258200 -43.993600
H -13.708700 -20.367900 -37.527400
N -13.681200 -23.181200 -43.402700
C -13.587200 -21.723600 -40.311600
O -13.204900 -22.136500 -43.842000
N -13.187900 -20.469100 -38.229900
O -12.652200 -23.230300 -38.805500
N -12.595700 -22.753700 -39.930200
N -11.820900 -20.494800 -38.065900
O -11.759000 -23.039400 -40.764000
O -11.421000 -20.346300 -36.917400
O -11.146800 -20.664400 -39.068200
