30
Fragment
O -13.123600 -15.084000 -38.591600
O -12.849400 -14.765900 -40.742300
O -12.511400 -17.459000 -36.895700
N -12.449500 -14.914300 -39.593800
N -11.674700 -17.173300 -37.729500
O -11.618200 -17.649800 -38.854300
N -11.082500 -14.888600 -39.429900
O -11.065500 -16.556100 -33.817700
C -10.683200 -16.143100 -37.348100
N -10.589200 -17.600700 -34.257000
H -10.561700 -14.787400 -40.132300
O -10.543100 -18.677800 -33.666200
C -10.512100 -15.020300 -38.160000
N -10.084400 -17.588500 -35.517600
C -9.963000 -16.337300 -36.176100
H -9.840100 -18.334800 -35.914700
O -9.733600 -11.724500 -37.897300
C -9.688700 -14.015900 -37.646800
N -9.514600 -12.797100 -38.440000
O -9.177900 -12.944400 -39.590900
C -9.134800 -15.306100 -35.725900
C -9.012200 -14.115200 -36.433100
H -8.708600 -12.223100 -35.902500
N -8.420600 -15.467900 -34.449900
O -8.407900 -14.522600 -33.684400
N -8.284700 -12.987900 -36.002200
O -7.893300 -16.559400 -34.241100
N -6.957100 -13.037000 -35.735700
O -6.459000 -11.955600 -35.419300
O -6.375800 -14.105100 -35.839500
30
Fragment
O -10.089800 -23.979200 -27.973900
O -9.815600 -24.297300 -25.823200
O -9.477600 -21.604200 -29.669800
N -9.415700 -24.148800 -26.971700
N -8.640900 -21.889900 -28.836000
O -8.584400 -21.413300 -27.711200
N -8.048700 -24.174500 -27.135600
O -8.031700 -22.507100 -32.747800
C -7.649400 -22.920000 -29.217400
N -7.555400 -21.462400 -32.308500
H -7.527900 -24.275700 -26.433200
O -7.509300 -20.385400 -32.899300
C -7.478300 -24.042800 -28.405500
N -7.050600 -21.474700 -31.047900
C -6.929200 -22.725800 -30.389400
H -6.806300 -20.728400 -30.650800
O -6.699800 -27.338600 -28.668200
C -6.654900 -25.047300 -28.918700
N -6.480800 -26.266100 -28.125500
O -6.144100 -26.118700 -26.974600
C -6.101000 -23.757100 -30.839600
C -5.978400 -24.948000 -30.132400
H -5.674800 -26.840100 -30.663000
N -5.386800 -23.595300 -32.115600
O -5.374100 -24.540600 -32.881100
N -5.250900 -26.075200 -30.563300
O -4.859500 -22.503700 -32.324400
N -3.923300 -26.026100 -30.829800
O -3.425200 -27.107600 -31.146200
O -3.342000 -24.958000 -30.726000
60
Fragment
O -13.123600 -15.084000 -38.591600
O -12.849400 -14.765900 -40.742300
O -12.511400 -17.459000 -36.895700
N -12.449500 -14.914300 -39.593800
N -11.674700 -17.173300 -37.729500
O -11.618200 -17.649800 -38.854300
N -11.082500 -14.888600 -39.429900
O -11.065500 -16.556100 -33.817700
C -10.683200 -16.143100 -37.348100
N -10.589200 -17.600700 -34.257000
H -10.561700 -14.787400 -40.132300
O -10.543100 -18.677800 -33.666200
C -10.512100 -15.020300 -38.160000
N -10.084400 -17.588500 -35.517600
C -9.963000 -16.337300 -36.176100
H -9.840100 -18.334800 -35.914700
O -9.733600 -11.724500 -37.897300
C -9.688700 -14.015900 -37.646800
N -9.514600 -12.797100 -38.440000
O -9.177900 -12.944400 -39.590900
C -9.134800 -15.306100 -35.725900
C -9.012200 -14.115200 -36.433100
H -8.708600 -12.223100 -35.902500
N -8.420600 -15.467900 -34.449900
O -8.407900 -14.522600 -33.684400
N -8.284700 -12.987900 -36.002200
O -7.893300 -16.559400 -34.241100
N -6.957100 -13.037000 -35.735700
O -6.459000 -11.955600 -35.419300
O -6.375800 -14.105100 -35.839500
O -10.089800 -23.979200 -27.973900
O -9.815600 -24.297300 -25.823200
O -9.477600 -21.604200 -29.669800
N -9.415700 -24.148800 -26.971700
N -8.640900 -21.889900 -28.836000
O -8.584400 -21.413300 -27.711200
N -8.048700 -24.174500 -27.135600
O -8.031700 -22.507100 -32.747800
C -7.649400 -22.920000 -29.217400
N -7.555400 -21.462400 -32.308500
H -7.527900 -24.275700 -26.433200
O -7.509300 -20.385400 -32.899300
C -7.478300 -24.042800 -28.405500
N -7.050600 -21.474700 -31.047900
C -6.929200 -22.725800 -30.389400
H -6.806300 -20.728400 -30.650800
O -6.699800 -27.338600 -28.668200
C -6.654900 -25.047300 -28.918700
N -6.480800 -26.266100 -28.125500
O -6.144100 -26.118700 -26.974600
C -6.101000 -23.757100 -30.839600
C -5.978400 -24.948000 -30.132400
H -5.674800 -26.840100 -30.663000
N -5.386800 -23.595300 -32.115600
O -5.374100 -24.540600 -32.881100
N -5.250900 -26.075200 -30.563300
O -4.859500 -22.503700 -32.324400
N -3.923300 -26.026100 -30.829800
O -3.425200 -27.107600 -31.146200
O -3.342000 -24.958000 -30.726000
