3
Fragment
O -8.564100 -9.411000 -37.251000
H -8.177700 -9.994500 -37.027500
H -8.177700 -8.827500 -37.474500
21
Fragment
H -7.336100 -9.009500 -34.042400
H -7.336100 -6.205000 -26.249500
C -6.627000 -8.436000 -34.247100
H -6.627000 -8.187600 -35.110300
H -6.627000 -7.466100 -26.731300
O -6.627000 -7.363800 -32.061200
C -6.627000 -7.223300 -33.417900
N -6.627000 -6.757700 -29.187200
C -6.627000 -6.522500 -26.696600
C -6.627000 -6.077600 -31.621600
C -6.627000 -6.077600 -28.100900
N -6.627000 -5.992300 -33.774500
C -6.627000 -5.797800 -30.215000
N -6.627000 -5.218700 -32.589400
O -6.627000 -4.709900 -28.305800
C -6.627000 -4.559900 -29.663000
N -6.627000 -3.340900 -30.168300
H -6.627000 -3.237400 -31.040000
H -6.627000 -2.622500 -29.718800
H -5.917900 -9.009500 -34.042400
H -5.917900 -6.205000 -26.249500
24
Fragment
O -8.564100 -9.411000 -37.251000
H -8.177700 -9.994500 -37.027500
H -8.177700 -8.827500 -37.474500
H -7.336100 -9.009500 -34.042400
H -7.336100 -6.205000 -26.249500
C -6.627000 -8.436000 -34.247100
H -6.627000 -8.187600 -35.110300
H -6.627000 -7.466100 -26.731300
O -6.627000 -7.363800 -32.061200
C -6.627000 -7.223300 -33.417900
N -6.627000 -6.757700 -29.187200
C -6.627000 -6.522500 -26.696600
C -6.627000 -6.077600 -31.621600
C -6.627000 -6.077600 -28.100900
N -6.627000 -5.992300 -33.774500
C -6.627000 -5.797800 -30.215000
N -6.627000 -5.218700 -32.589400
O -6.627000 -4.709900 -28.305800
C -6.627000 -4.559900 -29.663000
N -6.627000 -3.340900 -30.168300
H -6.627000 -3.237400 -31.040000
H -6.627000 -2.622500 -29.718800
H -5.917900 -9.009500 -34.042400
H -5.917900 -6.205000 -26.249500
