3
Fragment
O -8.564100 -9.411000 -37.251000
H -8.177700 -9.994500 -37.027500
H -8.177700 -8.827500 -37.474500
3
Fragment
O -6.627000 -7.471100 -38.020600
H -6.627000 -7.215100 -38.947200
H -6.627000 -6.907700 -37.698000
6
Fragment
O -8.564100 -9.411000 -37.251000
H -8.177700 -9.994500 -37.027500
H -8.177700 -8.827500 -37.474500
O -6.627000 -7.471100 -38.020600
H -6.627000 -7.215100 -38.947200
H -6.627000 -6.907700 -37.698000
