3
Fragment
O -8.564100 -9.411000 -37.251000
H -8.177700 -9.994500 -37.027500
H -8.177700 -8.827500 -37.474500
3
Fragment
H -6.627000 -11.914300 -36.804000
H -6.627000 -11.606900 -35.554800
O -6.627000 -11.350900 -36.481400
6
Fragment
O -8.564100 -9.411000 -37.251000
H -8.177700 -9.994500 -37.027500
H -8.177700 -8.827500 -37.474500
H -6.627000 -11.914300 -36.804000
H -6.627000 -11.606900 -35.554800
O -6.627000 -11.350900 -36.481400
