3
Fragment
O -8.564100 -9.411000 -37.251000
H -8.177700 -9.994500 -37.027500
H -8.177700 -8.827500 -37.474500
21
Fragment
H -10.649600 -12.617000 -38.666500
H -10.649600 -9.812500 -46.459400
H -9.940500 -16.199500 -42.135800
H -9.940500 -15.584600 -43.457000
N -9.940500 -15.481100 -42.585300
C -9.940500 -14.262100 -42.080000
O -9.940500 -14.112100 -40.722800
N -9.940500 -13.603300 -45.006400
C -9.940500 -13.024200 -42.632000
N -9.940500 -12.829700 -46.191500
C -9.940500 -12.744400 -44.038600
C -9.940500 -12.744400 -40.517900
C -9.940500 -12.299500 -39.113600
N -9.940500 -12.064300 -41.604200
C -9.940500 -11.598700 -45.834900
O -9.940500 -11.458200 -44.478200
H -9.940500 -11.355900 -39.148300
H -9.940500 -10.634400 -47.527300
C -9.940500 -10.386000 -46.664100
H -9.231400 -12.617000 -38.666500
H -9.231400 -9.812500 -46.459400
24
Fragment
O -8.564100 -9.411000 -37.251000
H -8.177700 -9.994500 -37.027500
H -8.177700 -8.827500 -37.474500
H -10.649600 -12.617000 -38.666500
H -10.649600 -9.812500 -46.459400
H -9.940500 -16.199500 -42.135800
H -9.940500 -15.584600 -43.457000
N -9.940500 -15.481100 -42.585300
C -9.940500 -14.262100 -42.080000
O -9.940500 -14.112100 -40.722800
N -9.940500 -13.603300 -45.006400
C -9.940500 -13.024200 -42.632000
N -9.940500 -12.829700 -46.191500
C -9.940500 -12.744400 -44.038600
C -9.940500 -12.744400 -40.517900
C -9.940500 -12.299500 -39.113600
N -9.940500 -12.064300 -41.604200
C -9.940500 -11.598700 -45.834900
O -9.940500 -11.458200 -44.478200
H -9.940500 -11.355900 -39.148300
H -9.940500 -10.634400 -47.527300
C -9.940500 -10.386000 -46.664100
H -9.231400 -12.617000 -38.666500
H -9.231400 -9.812500 -46.459400
