3
Fragment
O -8.564100 -9.411000 -37.251000
H -8.177700 -9.994500 -37.027500
H -8.177700 -8.827500 -37.474500
21
Fragment
H -10.649600 -9.009500 -28.042600
H -10.649600 -6.205000 -35.835500
C -9.940500 -8.436000 -27.837900
H -9.940500 -8.187600 -26.974700
H -9.940500 -7.466100 -35.353700
O -9.940500 -7.363800 -30.023800
C -9.940500 -7.223300 -28.667100
N -9.940500 -6.757700 -32.897800
C -9.940500 -6.522500 -35.388500
C -9.940500 -6.077600 -33.984100
C -9.940500 -6.077600 -30.463400
N -9.940500 -5.992300 -28.310500
C -9.940500 -5.797800 -31.870000
N -9.940500 -5.218700 -29.495600
O -9.940500 -4.709900 -33.779200
C -9.940500 -4.559900 -32.422000
N -9.940500 -3.340900 -31.916700
H -9.940500 -3.237400 -31.045000
H -9.940500 -2.622500 -32.366200
H -9.231400 -9.009500 -28.042600
H -9.231400 -6.205000 -35.835500
24
Fragment
O -8.564100 -9.411000 -37.251000
H -8.177700 -9.994500 -37.027500
H -8.177700 -8.827500 -37.474500
H -10.649600 -9.009500 -28.042600
H -10.649600 -6.205000 -35.835500
C -9.940500 -8.436000 -27.837900
H -9.940500 -8.187600 -26.974700
H -9.940500 -7.466100 -35.353700
O -9.940500 -7.363800 -30.023800
C -9.940500 -7.223300 -28.667100
N -9.940500 -6.757700 -32.897800
C -9.940500 -6.522500 -35.388500
C -9.940500 -6.077600 -33.984100
C -9.940500 -6.077600 -30.463400
N -9.940500 -5.992300 -28.310500
C -9.940500 -5.797800 -31.870000
N -9.940500 -5.218700 -29.495600
O -9.940500 -4.709900 -33.779200
C -9.940500 -4.559900 -32.422000
N -9.940500 -3.340900 -31.916700
H -9.940500 -3.237400 -31.045000
H -9.940500 -2.622500 -32.366200
H -9.231400 -9.009500 -28.042600
H -9.231400 -6.205000 -35.835500
