3
Fragment
O -8.564100 -9.411000 -37.251000
H -8.177700 -9.994500 -37.027500
H -8.177700 -8.827500 -37.474500
3
Fragment
H -11.703300 -9.994500 -37.027500
H -11.703300 -8.827500 -37.474500
O -11.316900 -9.411000 -37.251000
6
Fragment
O -8.564100 -9.411000 -37.251000
H -8.177700 -9.994500 -37.027500
H -8.177700 -8.827500 -37.474500
H -11.703300 -9.994500 -37.027500
H -11.703300 -8.827500 -37.474500
O -11.316900 -9.411000 -37.251000
