35
Fragment
H -14.109200 -25.113200 -24.873700
O -13.573700 -24.517400 -21.690300
H -13.469900 -24.516500 -23.668600
N -13.401000 -24.906700 -24.431600
N -12.774400 -25.830000 -20.045000
C -12.586900 -25.096800 -21.212500
H -12.260000 -19.129200 -22.811500
N -12.209900 -25.792500 -26.182600
C -12.202200 -25.189900 -24.927200
H -12.104500 -20.231000 -24.818100
C -12.054200 -20.035600 -22.835600
O -12.033400 -27.219700 -18.390800
C -11.961700 -20.695600 -24.025800
H -11.903600 -20.294300 -20.858600
C -11.839700 -20.730800 -21.676800
C -11.814400 -26.571300 -19.427800
C -11.659000 -22.050800 -24.072100
H -11.610500 -22.482000 -24.894000
C -11.529200 -22.073700 -21.716400
C -11.429400 -22.766000 -22.914400
H -11.383100 -22.527700 -20.917800
C -11.267600 -25.063200 -21.753800
O -11.109000 -26.629000 -27.981000
C -11.073600 -26.127100 -26.854900
C -11.005100 -24.901400 -24.300400
C -10.894900 -24.196000 -22.950700
N -10.599600 -26.586300 -20.016800
C -10.302000 -25.838800 -21.142100
H -9.928500 -24.074800 -22.843000
N -9.903100 -25.881700 -26.205200
C -9.806400 -25.279300 -24.935500
N -9.029400 -25.979100 -21.549400
H -8.754400 -25.563700 -22.250600
O -8.660300 -25.141700 -24.471000
H -8.490700 -26.484200 -21.108500
35
Fragment
H -14.316700 -17.684300 -25.169800
O -14.147100 -16.341800 -21.807300
H -14.053000 -16.763800 -24.027700
N -13.777900 -17.179200 -24.728900
C -13.001000 -16.479400 -21.342800
N -12.904300 -17.081800 -20.073100
H -12.878900 -15.274900 -23.435300
C -12.505400 -17.038900 -25.136100
N -12.207800 -17.786400 -26.261400
C -11.912500 -15.396100 -23.327600
C -11.802200 -16.101500 -21.977900
C -11.733700 -17.327200 -19.423400
O -11.698300 -17.829100 -18.297300
C -11.539800 -16.263300 -24.524500
H -11.424200 -13.727800 -25.360500
C -11.377900 -13.966100 -23.363900
C -11.278200 -13.273800 -24.561900
H -11.196800 -13.682100 -21.384300
C -11.148400 -13.250900 -22.206200
C -10.993000 -17.771400 -26.850500
C -10.967700 -11.930900 -24.601500
H -10.903700 -11.494400 -25.419700
C -10.845600 -11.895700 -22.252500
O -10.773900 -18.419800 -27.887500
C -10.753200 -11.235700 -23.442700
H -10.702800 -11.431100 -21.460200
C -10.605200 -16.390000 -21.351100
N -10.597500 -16.992600 -20.095700
H -10.547400 -10.329300 -23.466800
C -10.220500 -16.296900 -25.065800
N -10.033000 -17.030100 -26.233300
N -9.406300 -16.106800 -21.846700
H -9.337500 -15.716600 -22.609700
O -9.233600 -15.717500 -24.588000
H -8.698100 -16.313300 -21.404600
70
Fragment
H -14.109200 -25.113200 -24.873700
O -13.573700 -24.517400 -21.690300
H -13.469900 -24.516500 -23.668600
N -13.401000 -24.906700 -24.431600
N -12.774400 -25.830000 -20.045000
C -12.586900 -25.096800 -21.212500
H -12.260000 -19.129200 -22.811500
N -12.209900 -25.792500 -26.182600
C -12.202200 -25.189900 -24.927200
H -12.104500 -20.231000 -24.818100
C -12.054200 -20.035600 -22.835600
O -12.033400 -27.219700 -18.390800
C -11.961700 -20.695600 -24.025800
H -11.903600 -20.294300 -20.858600
C -11.839700 -20.730800 -21.676800
C -11.814400 -26.571300 -19.427800
C -11.659000 -22.050800 -24.072100
H -11.610500 -22.482000 -24.894000
C -11.529200 -22.073700 -21.716400
C -11.429400 -22.766000 -22.914400
H -11.383100 -22.527700 -20.917800
C -11.267600 -25.063200 -21.753800
O -11.109000 -26.629000 -27.981000
C -11.073600 -26.127100 -26.854900
C -11.005100 -24.901400 -24.300400
C -10.894900 -24.196000 -22.950700
N -10.599600 -26.586300 -20.016800
C -10.302000 -25.838800 -21.142100
H -9.928500 -24.074800 -22.843000
N -9.903100 -25.881700 -26.205200
C -9.806400 -25.279300 -24.935500
N -9.029400 -25.979100 -21.549400
H -8.754400 -25.563700 -22.250600
O -8.660300 -25.141700 -24.471000
H -8.490700 -26.484200 -21.108500
H -14.316700 -17.684300 -25.169800
O -14.147100 -16.341800 -21.807300
H -14.053000 -16.763800 -24.027700
N -13.777900 -17.179200 -24.728900
C -13.001000 -16.479400 -21.342800
N -12.904300 -17.081800 -20.073100
H -12.878900 -15.274900 -23.435300
C -12.505400 -17.038900 -25.136100
N -12.207800 -17.786400 -26.261400
C -11.912500 -15.396100 -23.327600
C -11.802200 -16.101500 -21.977900
C -11.733700 -17.327200 -19.423400
O -11.698300 -17.829100 -18.297300
C -11.539800 -16.263300 -24.524500
H -11.424200 -13.727800 -25.360500
C -11.377900 -13.966100 -23.363900
C -11.278200 -13.273800 -24.561900
H -11.196800 -13.682100 -21.384300
C -11.148400 -13.250900 -22.206200
C -10.993000 -17.771400 -26.850500
C -10.967700 -11.930900 -24.601500
H -10.903700 -11.494400 -25.419700
C -10.845600 -11.895700 -22.252500
O -10.773900 -18.419800 -27.887500
C -10.753200 -11.235700 -23.442700
H -10.702800 -11.431100 -21.460200
C -10.605200 -16.390000 -21.351100
N -10.597500 -16.992600 -20.095700
H -10.547400 -10.329300 -23.466800
C -10.220500 -16.296900 -25.065800
N -10.033000 -17.030100 -26.233300
N -9.406300 -16.106800 -21.846700
H -9.337500 -15.716600 -22.609700
O -9.233600 -15.717500 -24.588000
H -8.698100 -16.313300 -21.404600
