35
Fragment
H -14.109200 -25.113200 -24.873700
O -13.573700 -24.517400 -21.690300
H -13.469900 -24.516500 -23.668600
N -13.401000 -24.906700 -24.431600
N -12.774400 -25.830000 -20.045000
C -12.586900 -25.096800 -21.212500
H -12.260000 -19.129200 -22.811500
N -12.209900 -25.792500 -26.182600
C -12.202200 -25.189900 -24.927200
H -12.104500 -20.231000 -24.818100
C -12.054200 -20.035600 -22.835600
O -12.033400 -27.219700 -18.390800
C -11.961700 -20.695600 -24.025800
H -11.903600 -20.294300 -20.858600
C -11.839700 -20.730800 -21.676800
C -11.814400 -26.571300 -19.427800
C -11.659000 -22.050800 -24.072100
H -11.610500 -22.482000 -24.894000
C -11.529200 -22.073700 -21.716400
C -11.429400 -22.766000 -22.914400
H -11.383100 -22.527700 -20.917800
C -11.267600 -25.063200 -21.753800
O -11.109000 -26.629000 -27.981000
C -11.073600 -26.127100 -26.854900
C -11.005100 -24.901400 -24.300400
C -10.894900 -24.196000 -22.950700
N -10.599600 -26.586300 -20.016800
C -10.302000 -25.838800 -21.142100
H -9.928500 -24.074800 -22.843000
N -9.903100 -25.881700 -26.205200
C -9.806400 -25.279300 -24.935500
N -9.029400 -25.979100 -21.549400
H -8.754400 -25.563700 -22.250600
O -8.660300 -25.141700 -24.471000
H -8.490700 -26.484200 -21.108500
12
Fragment
H -16.471900 -19.310500 -20.878900
H -16.205600 -22.351700 -19.720100
H -16.172200 -21.823800 -22.968800
H -16.000200 -19.440700 -22.367200
C -15.852900 -21.510500 -19.903400
C -15.763800 -19.609700 -21.452800
O -15.620800 -20.741400 -19.092600
N -15.553700 -21.045800 -21.262100
C -15.350100 -21.786800 -22.474600
H -15.065200 -22.679100 -22.261700
H -14.956100 -19.138000 -21.238000
H -14.676700 -21.353800 -23.005900
47
Fragment
H -14.109200 -25.113200 -24.873700
O -13.573700 -24.517400 -21.690300
H -13.469900 -24.516500 -23.668600
N -13.401000 -24.906700 -24.431600
N -12.774400 -25.830000 -20.045000
C -12.586900 -25.096800 -21.212500
H -12.260000 -19.129200 -22.811500
N -12.209900 -25.792500 -26.182600
C -12.202200 -25.189900 -24.927200
H -12.104500 -20.231000 -24.818100
C -12.054200 -20.035600 -22.835600
O -12.033400 -27.219700 -18.390800
C -11.961700 -20.695600 -24.025800
H -11.903600 -20.294300 -20.858600
C -11.839700 -20.730800 -21.676800
C -11.814400 -26.571300 -19.427800
C -11.659000 -22.050800 -24.072100
H -11.610500 -22.482000 -24.894000
C -11.529200 -22.073700 -21.716400
C -11.429400 -22.766000 -22.914400
H -11.383100 -22.527700 -20.917800
C -11.267600 -25.063200 -21.753800
O -11.109000 -26.629000 -27.981000
C -11.073600 -26.127100 -26.854900
C -11.005100 -24.901400 -24.300400
C -10.894900 -24.196000 -22.950700
N -10.599600 -26.586300 -20.016800
C -10.302000 -25.838800 -21.142100
H -9.928500 -24.074800 -22.843000
N -9.903100 -25.881700 -26.205200
C -9.806400 -25.279300 -24.935500
N -9.029400 -25.979100 -21.549400
H -8.754400 -25.563700 -22.250600
O -8.660300 -25.141700 -24.471000
H -8.490700 -26.484200 -21.108500
H -16.471900 -19.310500 -20.878900
H -16.205600 -22.351700 -19.720100
H -16.172200 -21.823800 -22.968800
H -16.000200 -19.440700 -22.367200
C -15.852900 -21.510500 -19.903400
C -15.763800 -19.609700 -21.452800
O -15.620800 -20.741400 -19.092600
N -15.553700 -21.045800 -21.262100
C -15.350100 -21.786800 -22.474600
H -15.065200 -22.679100 -22.261700
H -14.956100 -19.138000 -21.238000
H -14.676700 -21.353800 -23.005900
