35
Fragment
H -14.109200 -25.113200 -24.873700
O -13.573700 -24.517400 -21.690300
H -13.469900 -24.516500 -23.668600
N -13.401000 -24.906700 -24.431600
N -12.774400 -25.830000 -20.045000
C -12.586900 -25.096800 -21.212500
H -12.260000 -19.129200 -22.811500
N -12.209900 -25.792500 -26.182600
C -12.202200 -25.189900 -24.927200
H -12.104500 -20.231000 -24.818100
C -12.054200 -20.035600 -22.835600
O -12.033400 -27.219700 -18.390800
C -11.961700 -20.695600 -24.025800
H -11.903600 -20.294300 -20.858600
C -11.839700 -20.730800 -21.676800
C -11.814400 -26.571300 -19.427800
C -11.659000 -22.050800 -24.072100
H -11.610500 -22.482000 -24.894000
C -11.529200 -22.073700 -21.716400
C -11.429400 -22.766000 -22.914400
H -11.383100 -22.527700 -20.917800
C -11.267600 -25.063200 -21.753800
O -11.109000 -26.629000 -27.981000
C -11.073600 -26.127100 -26.854900
C -11.005100 -24.901400 -24.300400
C -10.894900 -24.196000 -22.950700
N -10.599600 -26.586300 -20.016800
C -10.302000 -25.838800 -21.142100
H -9.928500 -24.074800 -22.843000
N -9.903100 -25.881700 -26.205200
C -9.806400 -25.279300 -24.935500
N -9.029400 -25.979100 -21.549400
H -8.754400 -25.563700 -22.250600
O -8.660300 -25.141700 -24.471000
H -8.490700 -26.484200 -21.108500
12
Fragment
H -14.040700 -22.746000 -17.978200
H -13.706800 -22.482000 -16.469500
C -13.417600 -22.925500 -17.271100
H -13.374400 -23.872400 -17.115600
H -12.780600 -20.787100 -18.470600
H -12.260300 -20.588200 -17.006300
N -12.129100 -22.445000 -17.639400
C -12.100600 -21.035300 -17.841200
H -11.240300 -20.778300 -18.181800
C -11.183400 -23.282800 -17.757900
O -11.141900 -24.414400 -17.580200
H -10.378600 -22.911400 -18.039300
47
Fragment
H -14.109200 -25.113200 -24.873700
O -13.573700 -24.517400 -21.690300
H -13.469900 -24.516500 -23.668600
N -13.401000 -24.906700 -24.431600
N -12.774400 -25.830000 -20.045000
C -12.586900 -25.096800 -21.212500
H -12.260000 -19.129200 -22.811500
N -12.209900 -25.792500 -26.182600
C -12.202200 -25.189900 -24.927200
H -12.104500 -20.231000 -24.818100
C -12.054200 -20.035600 -22.835600
O -12.033400 -27.219700 -18.390800
C -11.961700 -20.695600 -24.025800
H -11.903600 -20.294300 -20.858600
C -11.839700 -20.730800 -21.676800
C -11.814400 -26.571300 -19.427800
C -11.659000 -22.050800 -24.072100
H -11.610500 -22.482000 -24.894000
C -11.529200 -22.073700 -21.716400
C -11.429400 -22.766000 -22.914400
H -11.383100 -22.527700 -20.917800
C -11.267600 -25.063200 -21.753800
O -11.109000 -26.629000 -27.981000
C -11.073600 -26.127100 -26.854900
C -11.005100 -24.901400 -24.300400
C -10.894900 -24.196000 -22.950700
N -10.599600 -26.586300 -20.016800
C -10.302000 -25.838800 -21.142100
H -9.928500 -24.074800 -22.843000
N -9.903100 -25.881700 -26.205200
C -9.806400 -25.279300 -24.935500
N -9.029400 -25.979100 -21.549400
H -8.754400 -25.563700 -22.250600
O -8.660300 -25.141700 -24.471000
H -8.490700 -26.484200 -21.108500
H -14.040700 -22.746000 -17.978200
H -13.706800 -22.482000 -16.469500
C -13.417600 -22.925500 -17.271100
H -13.374400 -23.872400 -17.115600
H -12.780600 -20.787100 -18.470600
H -12.260300 -20.588200 -17.006300
N -12.129100 -22.445000 -17.639400
C -12.100600 -21.035300 -17.841200
H -11.240300 -20.778300 -18.181800
C -11.183400 -23.282800 -17.757900
O -11.141900 -24.414400 -17.580200
H -10.378600 -22.911400 -18.039300
