43
Fragment
O -29.438800 -25.350100 -21.441600
O -28.847300 -27.397700 -21.736500
N -28.630600 -26.256900 -21.346700
H -27.642700 -24.000300 -20.511600
C -27.326500 -25.969100 -20.745900
C -27.022500 -24.681500 -20.382400
H -26.653500 -27.851800 -20.801400
C -26.431300 -26.981700 -20.560100
C -25.797000 -24.403100 -19.826000
H -25.588800 -23.532200 -19.575500
C -25.193900 -26.708100 -20.011800
C -24.871000 -25.417900 -19.637200
H -24.577200 -27.393300 -19.894600
H -24.499100 -18.049200 -17.542900
O -24.479700 -15.799000 -16.533100
H -23.780300 -20.201400 -17.878100
C -23.670800 -18.322400 -17.221800
N -23.628300 -25.076800 -19.074000
H -23.552800 -24.270900 -18.784900
N -23.326200 -16.079700 -16.267500
C -23.239700 -19.599500 -17.418700
C -22.860400 -17.439100 -16.539100
O -22.548500 -15.271100 -15.787900
C -22.536800 -25.865700 -18.933300
O -22.464500 -27.008300 -19.338200
H -22.248700 -21.857500 -17.462100
C -21.998800 -20.013800 -16.939000
N -21.628700 -21.344100 -17.158500
C -21.624200 -17.818800 -16.079700
N -21.440100 -23.936800 -17.922400
C -21.366100 -25.229000 -18.246700
C -21.188000 -19.103300 -16.272600
H -21.083300 -17.205200 -15.637400
C -20.430100 -21.932600 -16.959200
C -20.360400 -23.379400 -17.343900
H -20.353100 -19.364700 -15.958500
C -20.247200 -26.009100 -17.989200
H -20.242000 -26.912900 -18.204300
O -19.444600 -21.371200 -16.504900
C -19.204500 -24.098100 -17.094500
C -19.152200 -25.424300 -17.413600
H -18.467100 -23.680000 -16.710800
H -18.385400 -25.921900 -17.241900
43
Fragment
O -30.608400 -36.220400 -21.441600
O -30.016900 -38.268000 -21.736500
N -29.800200 -37.127100 -21.346700
H -28.812200 -34.870600 -20.511600
C -28.496100 -36.839400 -20.745900
C -28.192100 -35.551800 -20.382400
H -27.823100 -38.722000 -20.801400
C -27.600900 -37.852000 -20.560100
C -26.966600 -35.273300 -19.826000
H -26.758400 -34.402500 -19.575500
C -26.363500 -37.578400 -20.011800
C -26.040500 -36.288200 -19.637200
H -25.746700 -38.263600 -19.894600
H -25.668700 -28.919400 -17.542900
O -25.649300 -26.669200 -16.533100
H -24.949800 -31.071700 -17.878100
C -24.840300 -29.192700 -17.221800
N -24.797900 -35.947100 -19.074000
H -24.722300 -35.141200 -18.784900
N -24.495700 -26.950000 -16.267500
C -24.409300 -30.469800 -17.418700
C -24.030000 -28.309400 -16.539100
O -23.718000 -26.141400 -15.787900
C -23.706400 -36.736000 -18.933300
O -23.634000 -37.878600 -19.338200
H -23.418200 -32.727700 -17.462100
C -23.168400 -30.884100 -16.939000
N -22.798300 -32.214400 -17.158500
C -22.793800 -28.689100 -16.079700
N -22.609600 -34.807100 -17.922400
C -22.535700 -36.099200 -18.246700
C -22.357500 -29.973600 -16.272600
H -22.252900 -28.075500 -15.637400
C -21.599700 -32.802900 -16.959200
C -21.529900 -34.249700 -17.343900
H -21.522600 -30.235000 -15.958500
C -21.416800 -36.879400 -17.989200
H -21.411600 -37.783200 -18.204300
O -20.614200 -32.241500 -16.504900
C -20.374100 -34.968400 -17.094500
C -20.321800 -36.294600 -17.413600
H -19.636600 -34.550200 -16.710800
H -19.554900 -36.792200 -17.241900
86
Fragment
O -29.438800 -25.350100 -21.441600
O -28.847300 -27.397700 -21.736500
N -28.630600 -26.256900 -21.346700
H -27.642700 -24.000300 -20.511600
C -27.326500 -25.969100 -20.745900
C -27.022500 -24.681500 -20.382400
H -26.653500 -27.851800 -20.801400
C -26.431300 -26.981700 -20.560100
C -25.797000 -24.403100 -19.826000
H -25.588800 -23.532200 -19.575500
C -25.193900 -26.708100 -20.011800
C -24.871000 -25.417900 -19.637200
H -24.577200 -27.393300 -19.894600
H -24.499100 -18.049200 -17.542900
O -24.479700 -15.799000 -16.533100
H -23.780300 -20.201400 -17.878100
C -23.670800 -18.322400 -17.221800
N -23.628300 -25.076800 -19.074000
H -23.552800 -24.270900 -18.784900
N -23.326200 -16.079700 -16.267500
C -23.239700 -19.599500 -17.418700
C -22.860400 -17.439100 -16.539100
O -22.548500 -15.271100 -15.787900
C -22.536800 -25.865700 -18.933300
O -22.464500 -27.008300 -19.338200
H -22.248700 -21.857500 -17.462100
C -21.998800 -20.013800 -16.939000
N -21.628700 -21.344100 -17.158500
C -21.624200 -17.818800 -16.079700
N -21.440100 -23.936800 -17.922400
C -21.366100 -25.229000 -18.246700
C -21.188000 -19.103300 -16.272600
H -21.083300 -17.205200 -15.637400
C -20.430100 -21.932600 -16.959200
C -20.360400 -23.379400 -17.343900
H -20.353100 -19.364700 -15.958500
C -20.247200 -26.009100 -17.989200
H -20.242000 -26.912900 -18.204300
O -19.444600 -21.371200 -16.504900
C -19.204500 -24.098100 -17.094500
C -19.152200 -25.424300 -17.413600
H -18.467100 -23.680000 -16.710800
H -18.385400 -25.921900 -17.241900
O -30.608400 -36.220400 -21.441600
O -30.016900 -38.268000 -21.736500
N -29.800200 -37.127100 -21.346700
H -28.812200 -34.870600 -20.511600
C -28.496100 -36.839400 -20.745900
C -28.192100 -35.551800 -20.382400
H -27.823100 -38.722000 -20.801400
C -27.600900 -37.852000 -20.560100
C -26.966600 -35.273300 -19.826000
H -26.758400 -34.402500 -19.575500
C -26.363500 -37.578400 -20.011800
C -26.040500 -36.288200 -19.637200
H -25.746700 -38.263600 -19.894600
H -25.668700 -28.919400 -17.542900
O -25.649300 -26.669200 -16.533100
H -24.949800 -31.071700 -17.878100
C -24.840300 -29.192700 -17.221800
N -24.797900 -35.947100 -19.074000
H -24.722300 -35.141200 -18.784900
N -24.495700 -26.950000 -16.267500
C -24.409300 -30.469800 -17.418700
C -24.030000 -28.309400 -16.539100
O -23.718000 -26.141400 -15.787900
C -23.706400 -36.736000 -18.933300
O -23.634000 -37.878600 -19.338200
H -23.418200 -32.727700 -17.462100
C -23.168400 -30.884100 -16.939000
N -22.798300 -32.214400 -17.158500
C -22.793800 -28.689100 -16.079700
N -22.609600 -34.807100 -17.922400
C -22.535700 -36.099200 -18.246700
C -22.357500 -29.973600 -16.272600
H -22.252900 -28.075500 -15.637400
C -21.599700 -32.802900 -16.959200
C -21.529900 -34.249700 -17.343900
H -21.522600 -30.235000 -15.958500
C -21.416800 -36.879400 -17.989200
H -21.411600 -37.783200 -18.204300
O -20.614200 -32.241500 -16.504900
C -20.374100 -34.968400 -17.094500
C -20.321800 -36.294600 -17.413600
H -19.636600 -34.550200 -16.710800
H -19.554900 -36.792200 -17.241900
