43
Fragment
O -29.438800 -25.350100 -21.441600
O -28.847300 -27.397700 -21.736500
N -28.630600 -26.256900 -21.346700
H -27.642700 -24.000300 -20.511600
C -27.326500 -25.969100 -20.745900
C -27.022500 -24.681500 -20.382400
H -26.653500 -27.851800 -20.801400
C -26.431300 -26.981700 -20.560100
C -25.797000 -24.403100 -19.826000
H -25.588800 -23.532200 -19.575500
C -25.193900 -26.708100 -20.011800
C -24.871000 -25.417900 -19.637200
H -24.577200 -27.393300 -19.894600
H -24.499100 -18.049200 -17.542900
O -24.479700 -15.799000 -16.533100
H -23.780300 -20.201400 -17.878100
C -23.670800 -18.322400 -17.221800
N -23.628300 -25.076800 -19.074000
H -23.552800 -24.270900 -18.784900
N -23.326200 -16.079700 -16.267500
C -23.239700 -19.599500 -17.418700
C -22.860400 -17.439100 -16.539100
O -22.548500 -15.271100 -15.787900
C -22.536800 -25.865700 -18.933300
O -22.464500 -27.008300 -19.338200
H -22.248700 -21.857500 -17.462100
C -21.998800 -20.013800 -16.939000
N -21.628700 -21.344100 -17.158500
C -21.624200 -17.818800 -16.079700
N -21.440100 -23.936800 -17.922400
C -21.366100 -25.229000 -18.246700
C -21.188000 -19.103300 -16.272600
H -21.083300 -17.205200 -15.637400
C -20.430100 -21.932600 -16.959200
C -20.360400 -23.379400 -17.343900
H -20.353100 -19.364700 -15.958500
C -20.247200 -26.009100 -17.989200
H -20.242000 -26.912900 -18.204300
O -19.444600 -21.371200 -16.504900
C -19.204500 -24.098100 -17.094500
C -19.152200 -25.424300 -17.413600
H -18.467100 -23.680000 -16.710800
H -18.385400 -25.921900 -17.241900
43
Fragment
H -23.175800 -5.831300 -13.051400
H -23.094100 -8.073300 -13.582500
C -22.408900 -6.329000 -12.879700
C -22.356600 -7.655100 -13.198800
O -22.116500 -10.382000 -13.788400
H -21.319100 -4.840400 -12.089100
C -21.313900 -5.744100 -12.304100
H -21.208100 -12.388500 -14.334800
C -21.200800 -8.373800 -12.949400
C -21.131000 -9.820700 -13.334100
H -20.477800 -14.548000 -14.655900
C -20.373200 -12.650000 -14.020800
C -20.195000 -6.524300 -12.046600
N -20.121100 -7.816400 -12.370900
C -19.936900 -13.934400 -14.213600
N -19.932400 -10.409200 -13.134800
C -19.562300 -11.739400 -13.354300
H -19.312400 -9.895800 -12.831200
O -19.096700 -4.744900 -10.955100
C -19.024300 -5.887500 -11.360000
O -19.012700 -16.482100 -14.505500
C -18.700700 -14.314100 -13.754200
C -18.321400 -12.153700 -12.874700
N -18.235000 -15.673600 -14.025800
H -18.008400 -7.482300 -11.508400
N -17.932800 -6.676400 -11.219300
C -17.890400 -13.430900 -13.071600
H -17.780900 -11.551900 -12.415200
O -17.081400 -15.954300 -13.760200
H -17.062000 -13.704100 -12.750500
H -16.984000 -4.359900 -10.398700
C -16.690200 -6.335300 -10.656100
C -16.367200 -5.045200 -10.281600
H -15.972300 -8.221100 -10.717800
C -15.764100 -7.350200 -10.467400
C -15.129800 -4.771500 -9.733200
H -14.907600 -3.901500 -9.491900
C -14.538600 -7.071700 -9.911000
C -14.234600 -5.784100 -9.547400
H -13.918400 -7.753000 -9.781700
N -12.930500 -5.496400 -8.946600
O -12.713800 -4.355500 -8.556900
O -12.122300 -6.403100 -8.851700
86
Fragment
O -29.438800 -25.350100 -21.441600
O -28.847300 -27.397700 -21.736500
N -28.630600 -26.256900 -21.346700
H -27.642700 -24.000300 -20.511600
C -27.326500 -25.969100 -20.745900
C -27.022500 -24.681500 -20.382400
H -26.653500 -27.851800 -20.801400
C -26.431300 -26.981700 -20.560100
C -25.797000 -24.403100 -19.826000
H -25.588800 -23.532200 -19.575500
C -25.193900 -26.708100 -20.011800
C -24.871000 -25.417900 -19.637200
H -24.577200 -27.393300 -19.894600
H -24.499100 -18.049200 -17.542900
O -24.479700 -15.799000 -16.533100
H -23.780300 -20.201400 -17.878100
C -23.670800 -18.322400 -17.221800
N -23.628300 -25.076800 -19.074000
H -23.552800 -24.270900 -18.784900
N -23.326200 -16.079700 -16.267500
C -23.239700 -19.599500 -17.418700
C -22.860400 -17.439100 -16.539100
O -22.548500 -15.271100 -15.787900
C -22.536800 -25.865700 -18.933300
O -22.464500 -27.008300 -19.338200
H -22.248700 -21.857500 -17.462100
C -21.998800 -20.013800 -16.939000
N -21.628700 -21.344100 -17.158500
C -21.624200 -17.818800 -16.079700
N -21.440100 -23.936800 -17.922400
C -21.366100 -25.229000 -18.246700
C -21.188000 -19.103300 -16.272600
H -21.083300 -17.205200 -15.637400
C -20.430100 -21.932600 -16.959200
C -20.360400 -23.379400 -17.343900
H -20.353100 -19.364700 -15.958500
C -20.247200 -26.009100 -17.989200
H -20.242000 -26.912900 -18.204300
O -19.444600 -21.371200 -16.504900
C -19.204500 -24.098100 -17.094500
C -19.152200 -25.424300 -17.413600
H -18.467100 -23.680000 -16.710800
H -18.385400 -25.921900 -17.241900
H -23.175800 -5.831300 -13.051400
H -23.094100 -8.073300 -13.582500
C -22.408900 -6.329000 -12.879700
C -22.356600 -7.655100 -13.198800
O -22.116500 -10.382000 -13.788400
H -21.319100 -4.840400 -12.089100
C -21.313900 -5.744100 -12.304100
H -21.208100 -12.388500 -14.334800
C -21.200800 -8.373800 -12.949400
C -21.131000 -9.820700 -13.334100
H -20.477800 -14.548000 -14.655900
C -20.373200 -12.650000 -14.020800
C -20.195000 -6.524300 -12.046600
N -20.121100 -7.816400 -12.370900
C -19.936900 -13.934400 -14.213600
N -19.932400 -10.409200 -13.134800
C -19.562300 -11.739400 -13.354300
H -19.312400 -9.895800 -12.831200
O -19.096700 -4.744900 -10.955100
C -19.024300 -5.887500 -11.360000
O -19.012700 -16.482100 -14.505500
C -18.700700 -14.314100 -13.754200
C -18.321400 -12.153700 -12.874700
N -18.235000 -15.673600 -14.025800
H -18.008400 -7.482300 -11.508400
N -17.932800 -6.676400 -11.219300
C -17.890400 -13.430900 -13.071600
H -17.780900 -11.551900 -12.415200
O -17.081400 -15.954300 -13.760200
H -17.062000 -13.704100 -12.750500
H -16.984000 -4.359900 -10.398700
C -16.690200 -6.335300 -10.656100
C -16.367200 -5.045200 -10.281600
H -15.972300 -8.221100 -10.717800
C -15.764100 -7.350200 -10.467400
C -15.129800 -4.771500 -9.733200
H -14.907600 -3.901500 -9.491900
C -14.538600 -7.071700 -9.911000
C -14.234600 -5.784100 -9.547400
H -13.918400 -7.753000 -9.781700
N -12.930500 -5.496400 -8.946600
O -12.713800 -4.355500 -8.556900
O -12.122300 -6.403100 -8.851700
