43
Fragment
O -29.438800 -25.350100 -21.441600
O -28.847300 -27.397700 -21.736500
N -28.630600 -26.256900 -21.346700
H -27.642700 -24.000300 -20.511600
C -27.326500 -25.969100 -20.745900
C -27.022500 -24.681500 -20.382400
H -26.653500 -27.851800 -20.801400
C -26.431300 -26.981700 -20.560100
C -25.797000 -24.403100 -19.826000
H -25.588800 -23.532200 -19.575500
C -25.193900 -26.708100 -20.011800
C -24.871000 -25.417900 -19.637200
H -24.577200 -27.393300 -19.894600
H -24.499100 -18.049200 -17.542900
O -24.479700 -15.799000 -16.533100
H -23.780300 -20.201400 -17.878100
C -23.670800 -18.322400 -17.221800
N -23.628300 -25.076800 -19.074000
H -23.552800 -24.270900 -18.784900
N -23.326200 -16.079700 -16.267500
C -23.239700 -19.599500 -17.418700
C -22.860400 -17.439100 -16.539100
O -22.548500 -15.271100 -15.787900
C -22.536800 -25.865700 -18.933300
O -22.464500 -27.008300 -19.338200
H -22.248700 -21.857500 -17.462100
C -21.998800 -20.013800 -16.939000
N -21.628700 -21.344100 -17.158500
C -21.624200 -17.818800 -16.079700
N -21.440100 -23.936800 -17.922400
C -21.366100 -25.229000 -18.246700
C -21.188000 -19.103300 -16.272600
H -21.083300 -17.205200 -15.637400
C -20.430100 -21.932600 -16.959200
C -20.360400 -23.379400 -17.343900
H -20.353100 -19.364700 -15.958500
C -20.247200 -26.009100 -17.989200
H -20.242000 -26.912900 -18.204300
O -19.444600 -21.371200 -16.504900
C -19.204500 -24.098100 -17.094500
C -19.152200 -25.424300 -17.413600
H -18.467100 -23.680000 -16.710800
H -18.385400 -25.921900 -17.241900
43
Fragment
O -28.269200 -14.479900 -21.441600
O -27.677700 -16.527500 -21.736500
N -27.461100 -15.386600 -21.346700
H -26.473100 -13.130000 -20.511600
C -26.157000 -15.098900 -20.745900
C -25.852900 -13.811300 -20.382400
H -25.483900 -16.981500 -20.801400
C -25.261800 -16.111500 -20.560100
C -24.627500 -13.532800 -19.826000
H -24.419200 -12.661900 -19.575500
C -24.024400 -15.837800 -20.011800
C -23.701400 -14.547700 -19.637200
H -23.407600 -16.523100 -19.894600
H -23.329600 -7.178900 -17.542900
O -23.310200 -4.928700 -16.533100
H -22.610700 -9.331100 -17.878100
C -22.501200 -7.452100 -17.221800
N -22.458700 -14.206600 -19.074000
H -22.383200 -13.400700 -18.784900
N -22.156600 -5.209400 -16.267500
C -22.070200 -8.729200 -17.418700
C -21.690900 -6.568900 -16.539100
O -21.378900 -4.400900 -15.787900
C -21.367200 -14.995500 -18.933300
O -21.294900 -16.138100 -19.338200
H -21.079100 -10.987200 -17.462100
C -20.829200 -9.143600 -16.939000
N -20.459200 -10.473800 -17.158500
C -20.454700 -6.948600 -16.079700
N -20.270500 -13.066600 -17.922400
C -20.196600 -14.358700 -18.246700
C -20.018400 -8.233000 -16.272600
H -19.913700 -6.335000 -15.637400
C -19.260500 -11.062300 -16.959200
C -19.190800 -12.509100 -17.343900
H -19.183500 -8.494500 -15.958500
C -19.077700 -15.138900 -17.989200
H -19.072400 -16.042600 -18.204300
O -18.275100 -10.501000 -16.504900
C -18.034900 -13.227800 -17.094500
C -17.982700 -14.554000 -17.413600
H -17.297500 -12.809700 -16.710800
H -17.215800 -15.051700 -17.241900
86
Fragment
O -29.438800 -25.350100 -21.441600
O -28.847300 -27.397700 -21.736500
N -28.630600 -26.256900 -21.346700
H -27.642700 -24.000300 -20.511600
C -27.326500 -25.969100 -20.745900
C -27.022500 -24.681500 -20.382400
H -26.653500 -27.851800 -20.801400
C -26.431300 -26.981700 -20.560100
C -25.797000 -24.403100 -19.826000
H -25.588800 -23.532200 -19.575500
C -25.193900 -26.708100 -20.011800
C -24.871000 -25.417900 -19.637200
H -24.577200 -27.393300 -19.894600
H -24.499100 -18.049200 -17.542900
O -24.479700 -15.799000 -16.533100
H -23.780300 -20.201400 -17.878100
C -23.670800 -18.322400 -17.221800
N -23.628300 -25.076800 -19.074000
H -23.552800 -24.270900 -18.784900
N -23.326200 -16.079700 -16.267500
C -23.239700 -19.599500 -17.418700
C -22.860400 -17.439100 -16.539100
O -22.548500 -15.271100 -15.787900
C -22.536800 -25.865700 -18.933300
O -22.464500 -27.008300 -19.338200
H -22.248700 -21.857500 -17.462100
C -21.998800 -20.013800 -16.939000
N -21.628700 -21.344100 -17.158500
C -21.624200 -17.818800 -16.079700
N -21.440100 -23.936800 -17.922400
C -21.366100 -25.229000 -18.246700
C -21.188000 -19.103300 -16.272600
H -21.083300 -17.205200 -15.637400
C -20.430100 -21.932600 -16.959200
C -20.360400 -23.379400 -17.343900
H -20.353100 -19.364700 -15.958500
C -20.247200 -26.009100 -17.989200
H -20.242000 -26.912900 -18.204300
O -19.444600 -21.371200 -16.504900
C -19.204500 -24.098100 -17.094500
C -19.152200 -25.424300 -17.413600
H -18.467100 -23.680000 -16.710800
H -18.385400 -25.921900 -17.241900
O -28.269200 -14.479900 -21.441600
O -27.677700 -16.527500 -21.736500
N -27.461100 -15.386600 -21.346700
H -26.473100 -13.130000 -20.511600
C -26.157000 -15.098900 -20.745900
C -25.852900 -13.811300 -20.382400
H -25.483900 -16.981500 -20.801400
C -25.261800 -16.111500 -20.560100
C -24.627500 -13.532800 -19.826000
H -24.419200 -12.661900 -19.575500
C -24.024400 -15.837800 -20.011800
C -23.701400 -14.547700 -19.637200
H -23.407600 -16.523100 -19.894600
H -23.329600 -7.178900 -17.542900
O -23.310200 -4.928700 -16.533100
H -22.610700 -9.331100 -17.878100
C -22.501200 -7.452100 -17.221800
N -22.458700 -14.206600 -19.074000
H -22.383200 -13.400700 -18.784900
N -22.156600 -5.209400 -16.267500
C -22.070200 -8.729200 -17.418700
C -21.690900 -6.568900 -16.539100
O -21.378900 -4.400900 -15.787900
C -21.367200 -14.995500 -18.933300
O -21.294900 -16.138100 -19.338200
H -21.079100 -10.987200 -17.462100
C -20.829200 -9.143600 -16.939000
N -20.459200 -10.473800 -17.158500
C -20.454700 -6.948600 -16.079700
N -20.270500 -13.066600 -17.922400
C -20.196600 -14.358700 -18.246700
C -20.018400 -8.233000 -16.272600
H -19.913700 -6.335000 -15.637400
C -19.260500 -11.062300 -16.959200
C -19.190800 -12.509100 -17.343900
H -19.183500 -8.494500 -15.958500
C -19.077700 -15.138900 -17.989200
H -19.072400 -16.042600 -18.204300
O -18.275100 -10.501000 -16.504900
C -18.034900 -13.227800 -17.094500
C -17.982700 -14.554000 -17.413600
H -17.297500 -12.809700 -16.710800
H -17.215800 -15.051700 -17.241900
