43
Fragment
O -29.438800 -25.350100 -21.441600
O -28.847300 -27.397700 -21.736500
N -28.630600 -26.256900 -21.346700
H -27.642700 -24.000300 -20.511600
C -27.326500 -25.969100 -20.745900
C -27.022500 -24.681500 -20.382400
H -26.653500 -27.851800 -20.801400
C -26.431300 -26.981700 -20.560100
C -25.797000 -24.403100 -19.826000
H -25.588800 -23.532200 -19.575500
C -25.193900 -26.708100 -20.011800
C -24.871000 -25.417900 -19.637200
H -24.577200 -27.393300 -19.894600
H -24.499100 -18.049200 -17.542900
O -24.479700 -15.799000 -16.533100
H -23.780300 -20.201400 -17.878100
C -23.670800 -18.322400 -17.221800
N -23.628300 -25.076800 -19.074000
H -23.552800 -24.270900 -18.784900
N -23.326200 -16.079700 -16.267500
C -23.239700 -19.599500 -17.418700
C -22.860400 -17.439100 -16.539100
O -22.548500 -15.271100 -15.787900
C -22.536800 -25.865700 -18.933300
O -22.464500 -27.008300 -19.338200
H -22.248700 -21.857500 -17.462100
C -21.998800 -20.013800 -16.939000
N -21.628700 -21.344100 -17.158500
C -21.624200 -17.818800 -16.079700
N -21.440100 -23.936800 -17.922400
C -21.366100 -25.229000 -18.246700
C -21.188000 -19.103300 -16.272600
H -21.083300 -17.205200 -15.637400
C -20.430100 -21.932600 -16.959200
C -20.360400 -23.379400 -17.343900
H -20.353100 -19.364700 -15.958500
C -20.247200 -26.009100 -17.989200
H -20.242000 -26.912900 -18.204300
O -19.444600 -21.371200 -16.504900
C -19.204500 -24.098100 -17.094500
C -19.152200 -25.424300 -17.413600
H -18.467100 -23.680000 -16.710800
H -18.385400 -25.921900 -17.241900
43
Fragment
O -37.696200 -14.479900 -21.441600
O -37.104700 -16.527500 -21.736500
N -36.888100 -15.386600 -21.346700
H -35.900100 -13.130000 -20.511600
C -35.584000 -15.098900 -20.745900
C -35.279900 -13.811300 -20.382400
H -34.910900 -16.981500 -20.801400
C -34.688800 -16.111500 -20.560100
C -34.054500 -13.532800 -19.826000
H -33.846200 -12.661900 -19.575500
C -33.451400 -15.837800 -20.011800
C -33.128400 -14.547700 -19.637200
H -32.834600 -16.523100 -19.894600
H -32.756600 -7.178900 -17.542900
O -32.737200 -4.928700 -16.533100
H -32.037700 -9.331100 -17.878100
C -31.928200 -7.452100 -17.221800
N -31.885700 -14.206600 -19.074000
H -31.810200 -13.400700 -18.784900
N -31.583600 -5.209400 -16.267500
C -31.497200 -8.729200 -17.418700
C -31.117900 -6.568900 -16.539100
O -30.805900 -4.400900 -15.787900
C -30.794200 -14.995500 -18.933300
O -30.721900 -16.138100 -19.338200
H -30.506100 -10.987200 -17.462100
C -30.256200 -9.143600 -16.939000
N -29.886200 -10.473800 -17.158500
C -29.881700 -6.948600 -16.079700
N -29.697500 -13.066600 -17.922400
C -29.623600 -14.358700 -18.246700
C -29.445400 -8.233000 -16.272600
H -29.340700 -6.335000 -15.637400
C -28.687500 -11.062300 -16.959200
C -28.617800 -12.509100 -17.343900
H -28.610500 -8.494500 -15.958500
C -28.504700 -15.138900 -17.989200
H -28.499400 -16.042600 -18.204300
O -27.702100 -10.501000 -16.504900
C -27.461900 -13.227800 -17.094500
C -27.409700 -14.554000 -17.413600
H -26.724500 -12.809700 -16.710800
H -26.642800 -15.051700 -17.241900
86
Fragment
O -29.438800 -25.350100 -21.441600
O -28.847300 -27.397700 -21.736500
N -28.630600 -26.256900 -21.346700
H -27.642700 -24.000300 -20.511600
C -27.326500 -25.969100 -20.745900
C -27.022500 -24.681500 -20.382400
H -26.653500 -27.851800 -20.801400
C -26.431300 -26.981700 -20.560100
C -25.797000 -24.403100 -19.826000
H -25.588800 -23.532200 -19.575500
C -25.193900 -26.708100 -20.011800
C -24.871000 -25.417900 -19.637200
H -24.577200 -27.393300 -19.894600
H -24.499100 -18.049200 -17.542900
O -24.479700 -15.799000 -16.533100
H -23.780300 -20.201400 -17.878100
C -23.670800 -18.322400 -17.221800
N -23.628300 -25.076800 -19.074000
H -23.552800 -24.270900 -18.784900
N -23.326200 -16.079700 -16.267500
C -23.239700 -19.599500 -17.418700
C -22.860400 -17.439100 -16.539100
O -22.548500 -15.271100 -15.787900
C -22.536800 -25.865700 -18.933300
O -22.464500 -27.008300 -19.338200
H -22.248700 -21.857500 -17.462100
C -21.998800 -20.013800 -16.939000
N -21.628700 -21.344100 -17.158500
C -21.624200 -17.818800 -16.079700
N -21.440100 -23.936800 -17.922400
C -21.366100 -25.229000 -18.246700
C -21.188000 -19.103300 -16.272600
H -21.083300 -17.205200 -15.637400
C -20.430100 -21.932600 -16.959200
C -20.360400 -23.379400 -17.343900
H -20.353100 -19.364700 -15.958500
C -20.247200 -26.009100 -17.989200
H -20.242000 -26.912900 -18.204300
O -19.444600 -21.371200 -16.504900
C -19.204500 -24.098100 -17.094500
C -19.152200 -25.424300 -17.413600
H -18.467100 -23.680000 -16.710800
H -18.385400 -25.921900 -17.241900
O -37.696200 -14.479900 -21.441600
O -37.104700 -16.527500 -21.736500
N -36.888100 -15.386600 -21.346700
H -35.900100 -13.130000 -20.511600
C -35.584000 -15.098900 -20.745900
C -35.279900 -13.811300 -20.382400
H -34.910900 -16.981500 -20.801400
C -34.688800 -16.111500 -20.560100
C -34.054500 -13.532800 -19.826000
H -33.846200 -12.661900 -19.575500
C -33.451400 -15.837800 -20.011800
C -33.128400 -14.547700 -19.637200
H -32.834600 -16.523100 -19.894600
H -32.756600 -7.178900 -17.542900
O -32.737200 -4.928700 -16.533100
H -32.037700 -9.331100 -17.878100
C -31.928200 -7.452100 -17.221800
N -31.885700 -14.206600 -19.074000
H -31.810200 -13.400700 -18.784900
N -31.583600 -5.209400 -16.267500
C -31.497200 -8.729200 -17.418700
C -31.117900 -6.568900 -16.539100
O -30.805900 -4.400900 -15.787900
C -30.794200 -14.995500 -18.933300
O -30.721900 -16.138100 -19.338200
H -30.506100 -10.987200 -17.462100
C -30.256200 -9.143600 -16.939000
N -29.886200 -10.473800 -17.158500
C -29.881700 -6.948600 -16.079700
N -29.697500 -13.066600 -17.922400
C -29.623600 -14.358700 -18.246700
C -29.445400 -8.233000 -16.272600
H -29.340700 -6.335000 -15.637400
C -28.687500 -11.062300 -16.959200
C -28.617800 -12.509100 -17.343900
H -28.610500 -8.494500 -15.958500
C -28.504700 -15.138900 -17.989200
H -28.499400 -16.042600 -18.204300
O -27.702100 -10.501000 -16.504900
C -27.461900 -13.227800 -17.094500
C -27.409700 -14.554000 -17.413600
H -26.724500 -12.809700 -16.710800
H -26.642800 -15.051700 -17.241900
