3
Fragment
H -19.173100 -11.603400 -15.714200
O -19.127200 -12.318500 -15.716600
H -18.503000 -12.508900 -15.259400
32
Fragment
H -25.102000 -14.282600 -17.704100
O -24.964500 -14.213900 -15.172000
H -24.677900 -10.147100 -14.099600
H -24.662800 -12.070200 -18.461400
C -24.495500 -13.440500 -16.005300
N -24.492000 -13.597400 -17.335800
H -23.934400 -12.378200 -13.790300
C -23.896100 -12.488400 -18.031600
N -23.875900 -10.454300 -14.162700
N -23.845700 -12.278300 -15.705900
H -23.651700 -10.707200 -16.874000
C -23.543300 -11.854500 -14.369100
H -23.383700 -12.630300 -18.636500
C -23.329400 -11.618300 -16.900200
H -23.236200 -11.706100 -11.523000
C -22.778800 -9.671100 -14.213300
O -22.778800 -8.423000 -14.213300
H -22.321400 -11.706100 -16.903600
C -22.228300 -11.618300 -11.526400
H -22.174000 -12.630300 -9.790100
C -22.014400 -11.854500 -14.057500
H -21.905900 -10.707200 -11.552600
N -21.712000 -12.278300 -12.720700
N -21.681800 -10.454300 -14.263900
C -21.661600 -12.488400 -10.395000
H -21.623300 -12.378200 -14.636300
N -21.065700 -13.597400 -11.090800
C -21.062200 -13.440500 -12.421300
H -20.894900 -12.070200 -9.965200
H -20.879700 -10.147100 -14.327000
O -20.593200 -14.213900 -13.254600
H -20.455700 -14.282600 -10.722500
35
Fragment
H -19.173100 -11.603400 -15.714200
O -19.127200 -12.318500 -15.716600
H -18.503000 -12.508900 -15.259400
H -25.102000 -14.282600 -17.704100
O -24.964500 -14.213900 -15.172000
H -24.677900 -10.147100 -14.099600
H -24.662800 -12.070200 -18.461400
C -24.495500 -13.440500 -16.005300
N -24.492000 -13.597400 -17.335800
H -23.934400 -12.378200 -13.790300
C -23.896100 -12.488400 -18.031600
N -23.875900 -10.454300 -14.162700
N -23.845700 -12.278300 -15.705900
H -23.651700 -10.707200 -16.874000
C -23.543300 -11.854500 -14.369100
H -23.383700 -12.630300 -18.636500
C -23.329400 -11.618300 -16.900200
H -23.236200 -11.706100 -11.523000
C -22.778800 -9.671100 -14.213300
O -22.778800 -8.423000 -14.213300
H -22.321400 -11.706100 -16.903600
C -22.228300 -11.618300 -11.526400
H -22.174000 -12.630300 -9.790100
C -22.014400 -11.854500 -14.057500
H -21.905900 -10.707200 -11.552600
N -21.712000 -12.278300 -12.720700
N -21.681800 -10.454300 -14.263900
C -21.661600 -12.488400 -10.395000
H -21.623300 -12.378200 -14.636300
N -21.065700 -13.597400 -11.090800
C -21.062200 -13.440500 -12.421300
H -20.894900 -12.070200 -9.965200
H -20.879700 -10.147100 -14.327000
O -20.593200 -14.213900 -13.254600
H -20.455700 -14.282600 -10.722500
