3
Fragment
H -19.173100 -11.603400 -15.714200
O -19.127200 -12.318500 -15.716600
H -18.503000 -12.508900 -15.259400
32
Fragment
H -19.222500 -18.950100 -17.704100
O -19.085000 -18.881400 -15.172000
H -18.798400 -14.814600 -14.099600
H -18.783300 -16.737700 -18.461400
C -18.616000 -18.108000 -16.005300
N -18.612500 -18.264900 -17.335800
H -18.054900 -17.045700 -13.790300
C -18.016600 -17.155900 -18.031600
N -17.996400 -15.121800 -14.162700
N -17.966200 -16.945800 -15.705900
H -17.772200 -15.374700 -16.874000
C -17.663800 -16.522000 -14.369100
H -17.504200 -17.297800 -18.636500
C -17.449900 -16.285800 -16.900200
H -17.356700 -16.373600 -11.523000
C -16.899300 -14.338600 -14.213300
O -16.899300 -13.090500 -14.213300
H -16.441900 -16.373600 -16.903600
C -16.348800 -16.285800 -11.526400
H -16.294500 -17.297800 -9.790100
C -16.134900 -16.522000 -14.057500
H -16.026400 -15.374700 -11.552600
N -15.832500 -16.945800 -12.720700
N -15.802300 -15.121800 -14.263900
C -15.782100 -17.155900 -10.395000
H -15.743800 -17.045700 -14.636300
N -15.186200 -18.264900 -11.090800
C -15.182700 -18.108000 -12.421300
H -15.015400 -16.737700 -9.965200
H -15.000200 -14.814600 -14.327000
O -14.713700 -18.881400 -13.254600
H -14.576200 -18.950100 -10.722500
35
Fragment
H -19.173100 -11.603400 -15.714200
O -19.127200 -12.318500 -15.716600
H -18.503000 -12.508900 -15.259400
H -19.222500 -18.950100 -17.704100
O -19.085000 -18.881400 -15.172000
H -18.798400 -14.814600 -14.099600
H -18.783300 -16.737700 -18.461400
C -18.616000 -18.108000 -16.005300
N -18.612500 -18.264900 -17.335800
H -18.054900 -17.045700 -13.790300
C -18.016600 -17.155900 -18.031600
N -17.996400 -15.121800 -14.162700
N -17.966200 -16.945800 -15.705900
H -17.772200 -15.374700 -16.874000
C -17.663800 -16.522000 -14.369100
H -17.504200 -17.297800 -18.636500
C -17.449900 -16.285800 -16.900200
H -17.356700 -16.373600 -11.523000
C -16.899300 -14.338600 -14.213300
O -16.899300 -13.090500 -14.213300
H -16.441900 -16.373600 -16.903600
C -16.348800 -16.285800 -11.526400
H -16.294500 -17.297800 -9.790100
C -16.134900 -16.522000 -14.057500
H -16.026400 -15.374700 -11.552600
N -15.832500 -16.945800 -12.720700
N -15.802300 -15.121800 -14.263900
C -15.782100 -17.155900 -10.395000
H -15.743800 -17.045700 -14.636300
N -15.186200 -18.264900 -11.090800
C -15.182700 -18.108000 -12.421300
H -15.015400 -16.737700 -9.965200
H -15.000200 -14.814600 -14.327000
O -14.713700 -18.881400 -13.254600
H -14.576200 -18.950100 -10.722500
