24
Fragment
H -9.454300 -11.954400 -17.524100
H -9.160000 -10.887600 -18.680100
C -8.777200 -11.360700 -17.911700
O -8.473100 -12.049500 -15.335900
N -8.345400 -10.386000 -16.902800
H -8.331200 -10.198000 -12.721700
C -8.210200 -10.881700 -15.601900
O -8.122300 -8.770400 -18.531100
H -8.061600 -6.000400 -17.822500
C -8.015500 -9.085300 -17.356200
H -8.007300 -11.891000 -18.204800
N -7.759900 -9.996100 -14.640600
C -7.593400 -8.250500 -16.277400
C -7.552500 -10.441500 -13.263900
C -7.486900 -8.697500 -14.988000
H -7.434900 -11.413900 -13.249900
N -7.225200 -6.914500 -16.221800
C -7.201700 -5.969800 -17.353600
N -7.091200 -7.719500 -14.130100
H -7.043900 -5.062500 -17.019000
C -6.952800 -6.653200 -14.933800
H -6.751900 -10.010100 -12.898600
H -6.687000 -5.797200 -14.620400
H -6.483100 -6.218700 -17.972300
24
Fragment
H -10.543800 -17.470600 -7.861100
H -10.339900 -17.892000 -11.213000
H -10.274900 -13.679200 -12.934800
C -10.074100 -17.036100 -10.899600
H -9.983000 -18.626800 -8.814400
N -9.935700 -15.969800 -11.703300
C -9.825200 -17.719400 -8.479800
N -9.801700 -16.774700 -9.611600
H -9.592000 -12.275400 -12.583400
C -9.540000 -14.991800 -10.845400
C -9.474400 -13.247700 -12.569500
C -9.433500 -15.438700 -9.556000
N -9.267000 -13.693200 -11.192800
H -9.019500 -11.798200 -7.628600
C -9.011400 -14.604000 -8.477200
H -8.965200 -17.688800 -8.010900
O -8.904600 -14.918900 -7.302300
C -8.816700 -12.807600 -10.231400
H -8.695600 -13.491300 -13.111700
N -8.681500 -13.303200 -8.930600
O -8.553800 -11.639800 -10.497500
C -8.249600 -12.328500 -7.921700
H -7.866800 -12.801600 -7.153300
H -7.572500 -11.734900 -8.309300
48
Fragment
H -9.454300 -11.954400 -17.524100
H -9.160000 -10.887600 -18.680100
C -8.777200 -11.360700 -17.911700
O -8.473100 -12.049500 -15.335900
N -8.345400 -10.386000 -16.902800
H -8.331200 -10.198000 -12.721700
C -8.210200 -10.881700 -15.601900
O -8.122300 -8.770400 -18.531100
H -8.061600 -6.000400 -17.822500
C -8.015500 -9.085300 -17.356200
H -8.007300 -11.891000 -18.204800
N -7.759900 -9.996100 -14.640600
C -7.593400 -8.250500 -16.277400
C -7.552500 -10.441500 -13.263900
C -7.486900 -8.697500 -14.988000
H -7.434900 -11.413900 -13.249900
N -7.225200 -6.914500 -16.221800
C -7.201700 -5.969800 -17.353600
N -7.091200 -7.719500 -14.130100
H -7.043900 -5.062500 -17.019000
C -6.952800 -6.653200 -14.933800
H -6.751900 -10.010100 -12.898600
H -6.687000 -5.797200 -14.620400
H -6.483100 -6.218700 -17.972300
H -10.543800 -17.470600 -7.861100
H -10.339900 -17.892000 -11.213000
H -10.274900 -13.679200 -12.934800
C -10.074100 -17.036100 -10.899600
H -9.983000 -18.626800 -8.814400
N -9.935700 -15.969800 -11.703300
C -9.825200 -17.719400 -8.479800
N -9.801700 -16.774700 -9.611600
H -9.592000 -12.275400 -12.583400
C -9.540000 -14.991800 -10.845400
C -9.474400 -13.247700 -12.569500
C -9.433500 -15.438700 -9.556000
N -9.267000 -13.693200 -11.192800
H -9.019500 -11.798200 -7.628600
C -9.011400 -14.604000 -8.477200
H -8.965200 -17.688800 -8.010900
O -8.904600 -14.918900 -7.302300
C -8.816700 -12.807600 -10.231400
H -8.695600 -13.491300 -13.111700
N -8.681500 -13.303200 -8.930600
O -8.553800 -11.639800 -10.497500
C -8.249600 -12.328500 -7.921700
H -7.866800 -12.801600 -7.153300
H -7.572500 -11.734900 -8.309300
