24
Fragment
H -9.454300 -11.954400 -17.524100
H -9.160000 -10.887600 -18.680100
C -8.777200 -11.360700 -17.911700
O -8.473100 -12.049500 -15.335900
N -8.345400 -10.386000 -16.902800
H -8.331200 -10.198000 -12.721700
C -8.210200 -10.881700 -15.601900
O -8.122300 -8.770400 -18.531100
H -8.061600 -6.000400 -17.822500
C -8.015500 -9.085300 -17.356200
H -8.007300 -11.891000 -18.204800
N -7.759900 -9.996100 -14.640600
C -7.593400 -8.250500 -16.277400
C -7.552500 -10.441500 -13.263900
C -7.486900 -8.697500 -14.988000
H -7.434900 -11.413900 -13.249900
N -7.225200 -6.914500 -16.221800
C -7.201700 -5.969800 -17.353600
N -7.091200 -7.719500 -14.130100
H -7.043900 -5.062500 -17.019000
C -6.952800 -6.653200 -14.933800
H -6.751900 -10.010100 -12.898600
H -6.687000 -5.797200 -14.620400
H -6.483100 -6.218700 -17.972300
21
Fragment
H -7.242300 -9.396900 -10.423800
H -6.958000 -7.680600 -12.185600
C -6.940900 -8.508100 -10.275900
N -6.817700 -7.601100 -11.263600
N -6.601700 -8.048200 -9.072000
C -6.356200 -6.449400 -10.658100
C -6.232900 -6.760900 -9.327700
O -6.199800 -4.812800 -12.371900
H -6.173500 -6.989300 -6.795500
C -6.077900 -5.161700 -11.197400
H -6.057100 -5.432600 -6.444100
H -5.852000 -2.279200 -10.020800
N -5.804500 -5.830600 -8.407900
C -5.683200 -6.161700 -6.981200
N -5.634600 -4.278400 -10.197000
H -5.583900 -2.759100 -11.524300
C -5.447200 -4.570300 -8.835700
C -5.337900 -2.893900 -10.585200
O -5.001200 -3.723900 -8.072800
H -4.737500 -6.282700 -6.754100
H -4.380700 -2.720400 -10.470300
45
Fragment
H -9.454300 -11.954400 -17.524100
H -9.160000 -10.887600 -18.680100
C -8.777200 -11.360700 -17.911700
O -8.473100 -12.049500 -15.335900
N -8.345400 -10.386000 -16.902800
H -8.331200 -10.198000 -12.721700
C -8.210200 -10.881700 -15.601900
O -8.122300 -8.770400 -18.531100
H -8.061600 -6.000400 -17.822500
C -8.015500 -9.085300 -17.356200
H -8.007300 -11.891000 -18.204800
N -7.759900 -9.996100 -14.640600
C -7.593400 -8.250500 -16.277400
C -7.552500 -10.441500 -13.263900
C -7.486900 -8.697500 -14.988000
H -7.434900 -11.413900 -13.249900
N -7.225200 -6.914500 -16.221800
C -7.201700 -5.969800 -17.353600
N -7.091200 -7.719500 -14.130100
H -7.043900 -5.062500 -17.019000
C -6.952800 -6.653200 -14.933800
H -6.751900 -10.010100 -12.898600
H -6.687000 -5.797200 -14.620400
H -6.483100 -6.218700 -17.972300
H -7.242300 -9.396900 -10.423800
H -6.958000 -7.680600 -12.185600
C -6.940900 -8.508100 -10.275900
N -6.817700 -7.601100 -11.263600
N -6.601700 -8.048200 -9.072000
C -6.356200 -6.449400 -10.658100
C -6.232900 -6.760900 -9.327700
O -6.199800 -4.812800 -12.371900
H -6.173500 -6.989300 -6.795500
C -6.077900 -5.161700 -11.197400
H -6.057100 -5.432600 -6.444100
H -5.852000 -2.279200 -10.020800
N -5.804500 -5.830600 -8.407900
C -5.683200 -6.161700 -6.981200
N -5.634600 -4.278400 -10.197000
H -5.583900 -2.759100 -11.524300
C -5.447200 -4.570300 -8.835700
C -5.337900 -2.893900 -10.585200
O -5.001200 -3.723900 -8.072800
H -4.737500 -6.282700 -6.754100
H -4.380700 -2.720400 -10.470300
