24
Fragment
H -9.454300 -11.954400 -17.524100
H -9.160000 -10.887600 -18.680100
C -8.777200 -11.360700 -17.911700
O -8.473100 -12.049500 -15.335900
N -8.345400 -10.386000 -16.902800
H -8.331200 -10.198000 -12.721700
C -8.210200 -10.881700 -15.601900
O -8.122300 -8.770400 -18.531100
H -8.061600 -6.000400 -17.822500
C -8.015500 -9.085300 -17.356200
H -8.007300 -11.891000 -18.204800
N -7.759900 -9.996100 -14.640600
C -7.593400 -8.250500 -16.277400
C -7.552500 -10.441500 -13.263900
C -7.486900 -8.697500 -14.988000
H -7.434900 -11.413900 -13.249900
N -7.225200 -6.914500 -16.221800
C -7.201700 -5.969800 -17.353600
N -7.091200 -7.719500 -14.130100
H -7.043900 -5.062500 -17.019000
C -6.952800 -6.653200 -14.933800
H -6.751900 -10.010100 -12.898600
H -6.687000 -5.797200 -14.620400
H -6.483100 -6.218700 -17.972300
21
Fragment
H -12.379500 -16.848200 -23.340500
H -12.095200 -15.131900 -25.102300
C -12.078100 -15.959400 -23.192600
N -11.954900 -15.052400 -24.180300
N -11.739000 -15.499500 -21.988700
C -11.493400 -13.900700 -23.574800
C -11.370200 -14.212200 -22.244400
O -11.337000 -12.264100 -25.288600
H -11.310700 -14.440600 -19.712200
C -11.215200 -12.613000 -24.114000
H -11.194300 -12.883900 -19.360800
H -10.989300 -9.730500 -22.937500
N -10.941800 -13.281900 -21.324600
C -10.820500 -13.613000 -19.897900
N -10.771900 -11.729700 -23.113700
H -10.721100 -10.210300 -24.441000
C -10.584500 -12.021600 -21.752400
C -10.475100 -10.345200 -23.501900
O -10.138400 -11.175200 -20.989500
H -9.874700 -13.734000 -19.670800
H -9.518000 -10.171700 -23.387000
45
Fragment
H -9.454300 -11.954400 -17.524100
H -9.160000 -10.887600 -18.680100
C -8.777200 -11.360700 -17.911700
O -8.473100 -12.049500 -15.335900
N -8.345400 -10.386000 -16.902800
H -8.331200 -10.198000 -12.721700
C -8.210200 -10.881700 -15.601900
O -8.122300 -8.770400 -18.531100
H -8.061600 -6.000400 -17.822500
C -8.015500 -9.085300 -17.356200
H -8.007300 -11.891000 -18.204800
N -7.759900 -9.996100 -14.640600
C -7.593400 -8.250500 -16.277400
C -7.552500 -10.441500 -13.263900
C -7.486900 -8.697500 -14.988000
H -7.434900 -11.413900 -13.249900
N -7.225200 -6.914500 -16.221800
C -7.201700 -5.969800 -17.353600
N -7.091200 -7.719500 -14.130100
H -7.043900 -5.062500 -17.019000
C -6.952800 -6.653200 -14.933800
H -6.751900 -10.010100 -12.898600
H -6.687000 -5.797200 -14.620400
H -6.483100 -6.218700 -17.972300
H -12.379500 -16.848200 -23.340500
H -12.095200 -15.131900 -25.102300
C -12.078100 -15.959400 -23.192600
N -11.954900 -15.052400 -24.180300
N -11.739000 -15.499500 -21.988700
C -11.493400 -13.900700 -23.574800
C -11.370200 -14.212200 -22.244400
O -11.337000 -12.264100 -25.288600
H -11.310700 -14.440600 -19.712200
C -11.215200 -12.613000 -24.114000
H -11.194300 -12.883900 -19.360800
H -10.989300 -9.730500 -22.937500
N -10.941800 -13.281900 -21.324600
C -10.820500 -13.613000 -19.897900
N -10.771900 -11.729700 -23.113700
H -10.721100 -10.210300 -24.441000
C -10.584500 -12.021600 -21.752400
C -10.475100 -10.345200 -23.501900
O -10.138400 -11.175200 -20.989500
H -9.874700 -13.734000 -19.670800
H -9.518000 -10.171700 -23.387000
