24
Fragment
H -9.454300 -11.954400 -17.524100
H -9.160000 -10.887600 -18.680100
C -8.777200 -11.360700 -17.911700
O -8.473100 -12.049500 -15.335900
N -8.345400 -10.386000 -16.902800
H -8.331200 -10.198000 -12.721700
C -8.210200 -10.881700 -15.601900
O -8.122300 -8.770400 -18.531100
H -8.061600 -6.000400 -17.822500
C -8.015500 -9.085300 -17.356200
H -8.007300 -11.891000 -18.204800
N -7.759900 -9.996100 -14.640600
C -7.593400 -8.250500 -16.277400
C -7.552500 -10.441500 -13.263900
C -7.486900 -8.697500 -14.988000
H -7.434900 -11.413900 -13.249900
N -7.225200 -6.914500 -16.221800
C -7.201700 -5.969800 -17.353600
N -7.091200 -7.719500 -14.130100
H -7.043900 -5.062500 -17.019000
C -6.952800 -6.653200 -14.933800
H -6.751900 -10.010100 -12.898600
H -6.687000 -5.797200 -14.620400
H -6.483100 -6.218700 -17.972300
21
Fragment
H -5.893800 -12.182200 -15.363100
H -5.537000 -8.619800 -19.079200
O -5.273300 -11.178700 -17.760600
C -4.936600 -12.008700 -15.248200
C -4.827300 -10.332300 -16.997700
H -4.690600 -12.143500 -14.309100
N -4.639900 -10.624200 -15.636400
C -4.591300 -8.740800 -18.852200
N -4.470000 -9.072000 -17.425500
H -4.422500 -12.623400 -15.812600
H -4.217400 -9.470000 -19.389300
C -4.196600 -9.740800 -14.636000
H -4.101000 -7.913300 -19.037900
O -4.074700 -10.089700 -13.461500
C -4.041600 -8.141700 -16.505700
C -3.918300 -8.453200 -15.175300
N -3.672800 -6.854400 -16.761300
N -3.456800 -7.301500 -14.569800
C -3.333600 -6.394500 -15.557500
H -3.316500 -7.221900 -13.647800
H -3.032200 -5.505600 -15.409600
45
Fragment
H -9.454300 -11.954400 -17.524100
H -9.160000 -10.887600 -18.680100
C -8.777200 -11.360700 -17.911700
O -8.473100 -12.049500 -15.335900
N -8.345400 -10.386000 -16.902800
H -8.331200 -10.198000 -12.721700
C -8.210200 -10.881700 -15.601900
O -8.122300 -8.770400 -18.531100
H -8.061600 -6.000400 -17.822500
C -8.015500 -9.085300 -17.356200
H -8.007300 -11.891000 -18.204800
N -7.759900 -9.996100 -14.640600
C -7.593400 -8.250500 -16.277400
C -7.552500 -10.441500 -13.263900
C -7.486900 -8.697500 -14.988000
H -7.434900 -11.413900 -13.249900
N -7.225200 -6.914500 -16.221800
C -7.201700 -5.969800 -17.353600
N -7.091200 -7.719500 -14.130100
H -7.043900 -5.062500 -17.019000
C -6.952800 -6.653200 -14.933800
H -6.751900 -10.010100 -12.898600
H -6.687000 -5.797200 -14.620400
H -6.483100 -6.218700 -17.972300
H -5.893800 -12.182200 -15.363100
H -5.537000 -8.619800 -19.079200
O -5.273300 -11.178700 -17.760600
C -4.936600 -12.008700 -15.248200
C -4.827300 -10.332300 -16.997700
H -4.690600 -12.143500 -14.309100
N -4.639900 -10.624200 -15.636400
C -4.591300 -8.740800 -18.852200
N -4.470000 -9.072000 -17.425500
H -4.422500 -12.623400 -15.812600
H -4.217400 -9.470000 -19.389300
C -4.196600 -9.740800 -14.636000
H -4.101000 -7.913300 -19.037900
O -4.074700 -10.089700 -13.461500
C -4.041600 -8.141700 -16.505700
C -3.918300 -8.453200 -15.175300
N -3.672800 -6.854400 -16.761300
N -3.456800 -7.301500 -14.569800
C -3.333600 -6.394500 -15.557500
H -3.316500 -7.221900 -13.647800
H -3.032200 -5.505600 -15.409600
