24
Fragment
H -9.454300 -11.954400 -17.524100
H -9.160000 -10.887600 -18.680100
C -8.777200 -11.360700 -17.911700
O -8.473100 -12.049500 -15.335900
N -8.345400 -10.386000 -16.902800
H -8.331200 -10.198000 -12.721700
C -8.210200 -10.881700 -15.601900
O -8.122300 -8.770400 -18.531100
H -8.061600 -6.000400 -17.822500
C -8.015500 -9.085300 -17.356200
H -8.007300 -11.891000 -18.204800
N -7.759900 -9.996100 -14.640600
C -7.593400 -8.250500 -16.277400
C -7.552500 -10.441500 -13.263900
C -7.486900 -8.697500 -14.988000
H -7.434900 -11.413900 -13.249900
N -7.225200 -6.914500 -16.221800
C -7.201700 -5.969800 -17.353600
N -7.091200 -7.719500 -14.130100
H -7.043900 -5.062500 -17.019000
C -6.952800 -6.653200 -14.933800
H -6.751900 -10.010100 -12.898600
H -6.687000 -5.797200 -14.620400
H -6.483100 -6.218700 -17.972300
24
Fragment
H -9.184400 -7.348500 -20.777800
H -8.980500 -7.770000 -24.129700
H -8.915500 -3.557100 -25.851500
C -8.714700 -6.914000 -23.816300
H -8.623600 -8.504700 -21.731000
N -8.576300 -5.847700 -24.620000
C -8.465800 -7.597400 -21.396500
N -8.442200 -6.652700 -22.528300
H -8.232600 -2.153300 -25.500100
C -8.180600 -4.869700 -23.762100
C -8.115000 -3.125700 -25.486200
C -8.074000 -5.316700 -22.472700
N -7.907500 -3.571100 -24.109500
H -7.660100 -1.676200 -20.545300
C -7.652000 -4.481900 -21.393900
H -7.605800 -7.566800 -20.927600
O -7.545200 -4.796800 -20.219000
C -7.457200 -2.685500 -23.148100
H -7.336200 -3.369200 -26.028400
N -7.322100 -3.181200 -21.847300
O -7.194300 -1.517700 -23.414200
C -6.890200 -2.206500 -20.838400
H -6.507400 -2.679500 -20.070000
H -6.213100 -1.612800 -21.226000
48
Fragment
H -9.454300 -11.954400 -17.524100
H -9.160000 -10.887600 -18.680100
C -8.777200 -11.360700 -17.911700
O -8.473100 -12.049500 -15.335900
N -8.345400 -10.386000 -16.902800
H -8.331200 -10.198000 -12.721700
C -8.210200 -10.881700 -15.601900
O -8.122300 -8.770400 -18.531100
H -8.061600 -6.000400 -17.822500
C -8.015500 -9.085300 -17.356200
H -8.007300 -11.891000 -18.204800
N -7.759900 -9.996100 -14.640600
C -7.593400 -8.250500 -16.277400
C -7.552500 -10.441500 -13.263900
C -7.486900 -8.697500 -14.988000
H -7.434900 -11.413900 -13.249900
N -7.225200 -6.914500 -16.221800
C -7.201700 -5.969800 -17.353600
N -7.091200 -7.719500 -14.130100
H -7.043900 -5.062500 -17.019000
C -6.952800 -6.653200 -14.933800
H -6.751900 -10.010100 -12.898600
H -6.687000 -5.797200 -14.620400
H -6.483100 -6.218700 -17.972300
H -9.184400 -7.348500 -20.777800
H -8.980500 -7.770000 -24.129700
H -8.915500 -3.557100 -25.851500
C -8.714700 -6.914000 -23.816300
H -8.623600 -8.504700 -21.731000
N -8.576300 -5.847700 -24.620000
C -8.465800 -7.597400 -21.396500
N -8.442200 -6.652700 -22.528300
H -8.232600 -2.153300 -25.500100
C -8.180600 -4.869700 -23.762100
C -8.115000 -3.125700 -25.486200
C -8.074000 -5.316700 -22.472700
N -7.907500 -3.571100 -24.109500
H -7.660100 -1.676200 -20.545300
C -7.652000 -4.481900 -21.393900
H -7.605800 -7.566800 -20.927600
O -7.545200 -4.796800 -20.219000
C -7.457200 -2.685500 -23.148100
H -7.336200 -3.369200 -26.028400
N -7.322100 -3.181200 -21.847300
O -7.194300 -1.517700 -23.414200
C -6.890200 -2.206500 -20.838400
H -6.507400 -2.679500 -20.070000
H -6.213100 -1.612800 -21.226000
