24
Fragment
H -9.454300 -11.954400 -17.524100
H -9.160000 -10.887600 -18.680100
C -8.777200 -11.360700 -17.911700
O -8.473100 -12.049500 -15.335900
N -8.345400 -10.386000 -16.902800
H -8.331200 -10.198000 -12.721700
C -8.210200 -10.881700 -15.601900
O -8.122300 -8.770400 -18.531100
H -8.061600 -6.000400 -17.822500
C -8.015500 -9.085300 -17.356200
H -8.007300 -11.891000 -18.204800
N -7.759900 -9.996100 -14.640600
C -7.593400 -8.250500 -16.277400
C -7.552500 -10.441500 -13.263900
C -7.486900 -8.697500 -14.988000
H -7.434900 -11.413900 -13.249900
N -7.225200 -6.914500 -16.221800
C -7.201700 -5.969800 -17.353600
N -7.091200 -7.719500 -14.130100
H -7.043900 -5.062500 -17.019000
C -6.952800 -6.653200 -14.933800
H -6.751900 -10.010100 -12.898600
H -6.687000 -5.797200 -14.620400
H -6.483100 -6.218700 -17.972300
21
Fragment
H -5.627100 -8.061500 -23.340500
H -5.342900 -6.345200 -25.102300
C -5.325700 -7.172700 -23.192600
N -5.202500 -6.265700 -24.180300
N -4.986600 -6.712800 -21.988700
C -4.741000 -5.114000 -23.574800
C -4.617800 -5.425500 -22.244400
O -4.584600 -3.477400 -25.288600
H -4.558400 -5.653900 -19.712200
C -4.462800 -3.826400 -24.114000
H -4.441900 -4.097200 -19.360800
H -4.236900 -0.943800 -22.937500
N -4.189400 -4.495200 -21.324600
C -4.068100 -4.826300 -19.897900
N -4.019500 -2.943000 -23.113700
H -3.968700 -1.423700 -24.441000
C -3.832100 -3.234900 -21.752400
C -3.722700 -1.558500 -23.501900
O -3.386100 -2.388500 -20.989500
H -3.122300 -4.947400 -19.670800
H -2.765600 -1.385000 -23.387000
45
Fragment
H -9.454300 -11.954400 -17.524100
H -9.160000 -10.887600 -18.680100
C -8.777200 -11.360700 -17.911700
O -8.473100 -12.049500 -15.335900
N -8.345400 -10.386000 -16.902800
H -8.331200 -10.198000 -12.721700
C -8.210200 -10.881700 -15.601900
O -8.122300 -8.770400 -18.531100
H -8.061600 -6.000400 -17.822500
C -8.015500 -9.085300 -17.356200
H -8.007300 -11.891000 -18.204800
N -7.759900 -9.996100 -14.640600
C -7.593400 -8.250500 -16.277400
C -7.552500 -10.441500 -13.263900
C -7.486900 -8.697500 -14.988000
H -7.434900 -11.413900 -13.249900
N -7.225200 -6.914500 -16.221800
C -7.201700 -5.969800 -17.353600
N -7.091200 -7.719500 -14.130100
H -7.043900 -5.062500 -17.019000
C -6.952800 -6.653200 -14.933800
H -6.751900 -10.010100 -12.898600
H -6.687000 -5.797200 -14.620400
H -6.483100 -6.218700 -17.972300
H -5.627100 -8.061500 -23.340500
H -5.342900 -6.345200 -25.102300
C -5.325700 -7.172700 -23.192600
N -5.202500 -6.265700 -24.180300
N -4.986600 -6.712800 -21.988700
C -4.741000 -5.114000 -23.574800
C -4.617800 -5.425500 -22.244400
O -4.584600 -3.477400 -25.288600
H -4.558400 -5.653900 -19.712200
C -4.462800 -3.826400 -24.114000
H -4.441900 -4.097200 -19.360800
H -4.236900 -0.943800 -22.937500
N -4.189400 -4.495200 -21.324600
C -4.068100 -4.826300 -19.897900
N -4.019500 -2.943000 -23.113700
H -3.968700 -1.423700 -24.441000
C -3.832100 -3.234900 -21.752400
C -3.722700 -1.558500 -23.501900
O -3.386100 -2.388500 -20.989500
H -3.122300 -4.947400 -19.670800
H -2.765600 -1.385000 -23.387000
