24
Fragment
H -9.454300 -11.954400 -17.524100
H -9.160000 -10.887600 -18.680100
C -8.777200 -11.360700 -17.911700
O -8.473100 -12.049500 -15.335900
N -8.345400 -10.386000 -16.902800
H -8.331200 -10.198000 -12.721700
C -8.210200 -10.881700 -15.601900
O -8.122300 -8.770400 -18.531100
H -8.061600 -6.000400 -17.822500
C -8.015500 -9.085300 -17.356200
H -8.007300 -11.891000 -18.204800
N -7.759900 -9.996100 -14.640600
C -7.593400 -8.250500 -16.277400
C -7.552500 -10.441500 -13.263900
C -7.486900 -8.697500 -14.988000
H -7.434900 -11.413900 -13.249900
N -7.225200 -6.914500 -16.221800
C -7.201700 -5.969800 -17.353600
N -7.091200 -7.719500 -14.130100
H -7.043900 -5.062500 -17.019000
C -6.952800 -6.653200 -14.933800
H -6.751900 -10.010100 -12.898600
H -6.687000 -5.797200 -14.620400
H -6.483100 -6.218700 -17.972300
24
Fragment
H -9.198600 -20.741000 -17.524100
H -8.904300 -19.674300 -18.680100
C -8.521500 -20.147400 -17.911700
O -8.217400 -20.836200 -15.335900
N -8.089700 -19.172700 -16.902800
H -8.075500 -18.984600 -12.721700
C -7.954500 -19.668300 -15.601900
O -7.866500 -17.557000 -18.531100
H -7.805900 -14.787100 -17.822500
C -7.759700 -17.872000 -17.356200
H -7.751600 -20.677700 -18.204800
N -7.504200 -18.782700 -14.640600
C -7.337700 -17.037200 -16.277400
C -7.296800 -19.228200 -13.263900
C -7.231200 -17.484200 -14.988000
H -7.179200 -20.200600 -13.249900
N -6.969500 -15.701200 -16.221800
C -6.946000 -14.756500 -17.353600
N -6.835500 -16.506200 -14.130100
H -6.788200 -13.849100 -17.019000
C -6.697000 -15.439800 -14.933800
H -6.496200 -18.796800 -12.898600
H -6.431300 -14.583900 -14.620400
H -6.227400 -15.005300 -17.972300
48
Fragment
H -9.454300 -11.954400 -17.524100
H -9.160000 -10.887600 -18.680100
C -8.777200 -11.360700 -17.911700
O -8.473100 -12.049500 -15.335900
N -8.345400 -10.386000 -16.902800
H -8.331200 -10.198000 -12.721700
C -8.210200 -10.881700 -15.601900
O -8.122300 -8.770400 -18.531100
H -8.061600 -6.000400 -17.822500
C -8.015500 -9.085300 -17.356200
H -8.007300 -11.891000 -18.204800
N -7.759900 -9.996100 -14.640600
C -7.593400 -8.250500 -16.277400
C -7.552500 -10.441500 -13.263900
C -7.486900 -8.697500 -14.988000
H -7.434900 -11.413900 -13.249900
N -7.225200 -6.914500 -16.221800
C -7.201700 -5.969800 -17.353600
N -7.091200 -7.719500 -14.130100
H -7.043900 -5.062500 -17.019000
C -6.952800 -6.653200 -14.933800
H -6.751900 -10.010100 -12.898600
H -6.687000 -5.797200 -14.620400
H -6.483100 -6.218700 -17.972300
H -9.198600 -20.741000 -17.524100
H -8.904300 -19.674300 -18.680100
C -8.521500 -20.147400 -17.911700
O -8.217400 -20.836200 -15.335900
N -8.089700 -19.172700 -16.902800
H -8.075500 -18.984600 -12.721700
C -7.954500 -19.668300 -15.601900
O -7.866500 -17.557000 -18.531100
H -7.805900 -14.787100 -17.822500
C -7.759700 -17.872000 -17.356200
H -7.751600 -20.677700 -18.204800
N -7.504200 -18.782700 -14.640600
C -7.337700 -17.037200 -16.277400
C -7.296800 -19.228200 -13.263900
C -7.231200 -17.484200 -14.988000
H -7.179200 -20.200600 -13.249900
N -6.969500 -15.701200 -16.221800
C -6.946000 -14.756500 -17.353600
N -6.835500 -16.506200 -14.130100
H -6.788200 -13.849100 -17.019000
C -6.697000 -15.439800 -14.933800
H -6.496200 -18.796800 -12.898600
H -6.431300 -14.583900 -14.620400
H -6.227400 -15.005300 -17.972300
