18
Fragment
H -22.462400 -15.299100 -12.012700
H -22.441600 -13.042700 -11.429700
C -21.653500 -14.799600 -12.048500
C -21.636500 -13.467200 -11.699200
H -20.484800 -16.314000 -12.691300
C -20.481100 -15.396400 -12.445200
H -20.472700 -11.823900 -11.493600
C -20.468000 -12.742900 -11.734900
C -19.295800 -14.690200 -12.484400
C -19.270100 -13.350900 -12.131000
H -18.496200 -15.124000 -12.756600
H -18.227900 -11.812800 -11.832600
N -18.115700 -12.552100 -12.084900
C -16.866300 -12.814200 -12.566900
O -16.628500 -13.875800 -13.189100
H -16.035000 -11.154300 -12.107600
N -15.934500 -11.915400 -12.307000
H -15.156300 -11.772700 -12.588900
19
Fragment
H -26.088800 -14.634300 -14.129000
O -25.445800 -14.583500 -14.412200
C -24.441800 -13.768000 -14.408100
O -24.440800 -12.660200 -13.937100
H -24.055400 -16.192900 -15.365800
C -23.254200 -15.588900 -15.675900
O -23.215100 -17.996500 -16.919000
C -23.214900 -14.323900 -15.099100
N -22.164200 -17.383600 -16.925900
C -22.089800 -16.052700 -16.276200
C -22.051100 -13.567400 -15.124500
H -22.030100 -12.697500 -14.742900
O -21.134100 -17.782700 -17.470400
C -20.929400 -14.097400 -15.721300
C -20.912400 -15.351600 -16.293300
H -20.124900 -15.710800 -16.685900
O -19.754800 -12.136100 -15.375500
N -19.692900 -13.307600 -15.700700
O -18.653800 -13.872400 -16.032100
37
Fragment
H -22.462400 -15.299100 -12.012700
H -22.441600 -13.042700 -11.429700
C -21.653500 -14.799600 -12.048500
C -21.636500 -13.467200 -11.699200
H -20.484800 -16.314000 -12.691300
C -20.481100 -15.396400 -12.445200
H -20.472700 -11.823900 -11.493600
C -20.468000 -12.742900 -11.734900
C -19.295800 -14.690200 -12.484400
C -19.270100 -13.350900 -12.131000
H -18.496200 -15.124000 -12.756600
H -18.227900 -11.812800 -11.832600
N -18.115700 -12.552100 -12.084900
C -16.866300 -12.814200 -12.566900
O -16.628500 -13.875800 -13.189100
H -16.035000 -11.154300 -12.107600
N -15.934500 -11.915400 -12.307000
H -15.156300 -11.772700 -12.588900
H -26.088800 -14.634300 -14.129000
O -25.445800 -14.583500 -14.412200
C -24.441800 -13.768000 -14.408100
O -24.440800 -12.660200 -13.937100
H -24.055400 -16.192900 -15.365800
C -23.254200 -15.588900 -15.675900
O -23.215100 -17.996500 -16.919000
C -23.214900 -14.323900 -15.099100
N -22.164200 -17.383600 -16.925900
C -22.089800 -16.052700 -16.276200
C -22.051100 -13.567400 -15.124500
H -22.030100 -12.697500 -14.742900
O -21.134100 -17.782700 -17.470400
C -20.929400 -14.097400 -15.721300
C -20.912400 -15.351600 -16.293300
H -20.124900 -15.710800 -16.685900
O -19.754800 -12.136100 -15.375500
N -19.692900 -13.307600 -15.700700
O -18.653800 -13.872400 -16.032100
