18
Fragment
H -22.462400 -15.299100 -12.012700
H -22.441600 -13.042700 -11.429700
C -21.653500 -14.799600 -12.048500
C -21.636500 -13.467200 -11.699200
H -20.484800 -16.314000 -12.691300
C -20.481100 -15.396400 -12.445200
H -20.472700 -11.823900 -11.493600
C -20.468000 -12.742900 -11.734900
C -19.295800 -14.690200 -12.484400
C -19.270100 -13.350900 -12.131000
H -18.496200 -15.124000 -12.756600
H -18.227900 -11.812800 -11.832600
N -18.115700 -12.552100 -12.084900
C -16.866300 -12.814200 -12.566900
O -16.628500 -13.875800 -13.189100
H -16.035000 -11.154300 -12.107600
N -15.934500 -11.915400 -12.307000
H -15.156300 -11.772700 -12.588900
19
Fragment
O -18.982700 -18.596700 -11.469600
N -17.943500 -19.161500 -11.801000
O -17.881700 -20.333000 -12.126200
H -17.511600 -16.758300 -10.815700
C -16.724100 -17.117400 -11.208300
C -16.707000 -18.371700 -11.780300
O -16.502400 -14.686300 -10.031200
H -15.606300 -19.771500 -12.758700
C -15.585400 -18.901700 -12.377100
C -15.546600 -16.416400 -11.225500
N -15.472300 -15.085400 -10.575800
C -14.421600 -18.145100 -12.402500
O -14.421300 -14.472500 -10.582600
C -14.382300 -16.880200 -11.825700
H -13.581000 -16.276100 -12.135800
O -13.195700 -19.808900 -13.564500
C -13.194700 -18.701100 -13.093500
O -12.190600 -17.885600 -13.089400
H -11.547600 -17.834700 -13.372700
37
Fragment
H -22.462400 -15.299100 -12.012700
H -22.441600 -13.042700 -11.429700
C -21.653500 -14.799600 -12.048500
C -21.636500 -13.467200 -11.699200
H -20.484800 -16.314000 -12.691300
C -20.481100 -15.396400 -12.445200
H -20.472700 -11.823900 -11.493600
C -20.468000 -12.742900 -11.734900
C -19.295800 -14.690200 -12.484400
C -19.270100 -13.350900 -12.131000
H -18.496200 -15.124000 -12.756600
H -18.227900 -11.812800 -11.832600
N -18.115700 -12.552100 -12.084900
C -16.866300 -12.814200 -12.566900
O -16.628500 -13.875800 -13.189100
H -16.035000 -11.154300 -12.107600
N -15.934500 -11.915400 -12.307000
H -15.156300 -11.772700 -12.588900
O -18.982700 -18.596700 -11.469600
N -17.943500 -19.161500 -11.801000
O -17.881700 -20.333000 -12.126200
H -17.511600 -16.758300 -10.815700
C -16.724100 -17.117400 -11.208300
C -16.707000 -18.371700 -11.780300
O -16.502400 -14.686300 -10.031200
H -15.606300 -19.771500 -12.758700
C -15.585400 -18.901700 -12.377100
C -15.546600 -16.416400 -11.225500
N -15.472300 -15.085400 -10.575800
C -14.421600 -18.145100 -12.402500
O -14.421300 -14.472500 -10.582600
C -14.382300 -16.880200 -11.825700
H -13.581000 -16.276100 -12.135800
O -13.195700 -19.808900 -13.564500
C -13.194700 -18.701100 -13.093500
O -12.190600 -17.885600 -13.089400
H -11.547600 -17.834700 -13.372700
