18
Fragment
H -22.462400 -15.299100 -12.012700
H -22.441600 -13.042700 -11.429700
C -21.653500 -14.799600 -12.048500
C -21.636500 -13.467200 -11.699200
H -20.484800 -16.314000 -12.691300
C -20.481100 -15.396400 -12.445200
H -20.472700 -11.823900 -11.493600
C -20.468000 -12.742900 -11.734900
C -19.295800 -14.690200 -12.484400
C -19.270100 -13.350900 -12.131000
H -18.496200 -15.124000 -12.756600
H -18.227900 -11.812800 -11.832600
N -18.115700 -12.552100 -12.084900
C -16.866300 -12.814200 -12.566900
O -16.628500 -13.875800 -13.189100
H -16.035000 -11.154300 -12.107600
N -15.934500 -11.915400 -12.307000
H -15.156300 -11.772700 -12.588900
19
Fragment
O -14.469600 -8.564000 -11.469600
N -13.430500 -9.128800 -11.801000
O -13.368600 -10.300300 -12.126200
H -12.998500 -6.725600 -10.815700
C -12.211000 -7.084800 -11.208300
C -12.194000 -8.339000 -11.780300
O -11.989300 -4.653700 -10.031200
H -11.093300 -9.738900 -12.758700
C -11.072300 -8.869000 -12.377100
C -11.033600 -6.383700 -11.225500
N -10.959200 -5.052800 -10.575800
C -9.908500 -8.112500 -12.402500
O -9.908200 -4.439900 -10.582600
C -9.869200 -6.847500 -11.825700
H -9.068000 -6.243500 -12.135800
O -8.682600 -9.776200 -13.564500
C -8.681600 -8.668400 -13.093500
O -7.677600 -7.852900 -13.089400
H -7.034500 -7.802100 -13.372700
37
Fragment
H -22.462400 -15.299100 -12.012700
H -22.441600 -13.042700 -11.429700
C -21.653500 -14.799600 -12.048500
C -21.636500 -13.467200 -11.699200
H -20.484800 -16.314000 -12.691300
C -20.481100 -15.396400 -12.445200
H -20.472700 -11.823900 -11.493600
C -20.468000 -12.742900 -11.734900
C -19.295800 -14.690200 -12.484400
C -19.270100 -13.350900 -12.131000
H -18.496200 -15.124000 -12.756600
H -18.227900 -11.812800 -11.832600
N -18.115700 -12.552100 -12.084900
C -16.866300 -12.814200 -12.566900
O -16.628500 -13.875800 -13.189100
H -16.035000 -11.154300 -12.107600
N -15.934500 -11.915400 -12.307000
H -15.156300 -11.772700 -12.588900
O -14.469600 -8.564000 -11.469600
N -13.430500 -9.128800 -11.801000
O -13.368600 -10.300300 -12.126200
H -12.998500 -6.725600 -10.815700
C -12.211000 -7.084800 -11.208300
C -12.194000 -8.339000 -11.780300
O -11.989300 -4.653700 -10.031200
H -11.093300 -9.738900 -12.758700
C -11.072300 -8.869000 -12.377100
C -11.033600 -6.383700 -11.225500
N -10.959200 -5.052800 -10.575800
C -9.908500 -8.112500 -12.402500
O -9.908200 -4.439900 -10.582600
C -9.869200 -6.847500 -11.825700
H -9.068000 -6.243500 -12.135800
O -8.682600 -9.776200 -13.564500
C -8.681600 -8.668400 -13.093500
O -7.677600 -7.852900 -13.089400
H -7.034500 -7.802100 -13.372700
