21
Fragment
O -9.363900 -24.630000 -13.771700
O -9.021500 -21.037700 -10.661800
H -8.925400 -22.949000 -12.032900
N -8.270200 -25.059100 -13.448300
C -7.993900 -23.120400 -11.965600
N -7.817400 -21.173700 -10.510400
O -7.812900 -26.143600 -13.784700
C -7.422500 -24.186800 -12.606400
C -7.170600 -22.302800 -11.219300
O -7.134900 -20.431800 -9.836000
C -6.090800 -24.482800 -12.506200
C -5.796800 -22.508000 -11.110700
H -5.722100 -25.249400 -12.931400
C -5.304400 -23.627900 -11.765200
C -4.885300 -21.554700 -10.301700
O -4.609000 -21.766400 -9.156200
O -4.515400 -20.539400 -11.047200
H -3.941500 -20.040500 -10.454600
N -3.852900 -23.955500 -11.694100
O -3.512100 -25.063800 -12.058100
O -3.097000 -23.088700 -11.289600
18
Fragment
H -7.526500 -16.488400 -8.660700
H -7.497600 -14.495000 -7.472400
C -6.712800 -16.185200 -8.276800
C -6.705300 -15.007200 -7.569500
H -5.599300 -17.758700 -8.932900
C -5.570300 -16.945100 -8.444300
C -5.519300 -14.581000 -7.005900
H -5.499700 -13.769000 -6.510400
C -4.381400 -16.506500 -7.889900
C -4.361400 -15.320600 -7.155800
O -3.552900 -18.526800 -9.794700
H -3.552400 -15.020800 -6.758200
N -3.153800 -17.204800 -7.993900
C -2.802500 -18.169600 -8.887800
H -2.601900 -16.985700 -7.440300
N -1.559600 -18.646400 -8.719600
H -1.354700 -19.277800 -9.176100
H -1.125600 -18.466100 -7.975500
39
Fragment
O -9.363900 -24.630000 -13.771700
O -9.021500 -21.037700 -10.661800
H -8.925400 -22.949000 -12.032900
N -8.270200 -25.059100 -13.448300
C -7.993900 -23.120400 -11.965600
N -7.817400 -21.173700 -10.510400
O -7.812900 -26.143600 -13.784700
C -7.422500 -24.186800 -12.606400
C -7.170600 -22.302800 -11.219300
O -7.134900 -20.431800 -9.836000
C -6.090800 -24.482800 -12.506200
C -5.796800 -22.508000 -11.110700
H -5.722100 -25.249400 -12.931400
C -5.304400 -23.627900 -11.765200
C -4.885300 -21.554700 -10.301700
O -4.609000 -21.766400 -9.156200
O -4.515400 -20.539400 -11.047200
H -3.941500 -20.040500 -10.454600
N -3.852900 -23.955500 -11.694100
O -3.512100 -25.063800 -12.058100
O -3.097000 -23.088700 -11.289600
H -7.526500 -16.488400 -8.660700
H -7.497600 -14.495000 -7.472400
C -6.712800 -16.185200 -8.276800
C -6.705300 -15.007200 -7.569500
H -5.599300 -17.758700 -8.932900
C -5.570300 -16.945100 -8.444300
C -5.519300 -14.581000 -7.005900
H -5.499700 -13.769000 -6.510400
C -4.381400 -16.506500 -7.889900
C -4.361400 -15.320600 -7.155800
O -3.552900 -18.526800 -9.794700
H -3.552400 -15.020800 -6.758200
N -3.153800 -17.204800 -7.993900
C -2.802500 -18.169600 -8.887800
H -2.601900 -16.985700 -7.440300
N -1.559600 -18.646400 -8.719600
H -1.354700 -19.277800 -9.176100
H -1.125600 -18.466100 -7.975500
