18
Fragment
H -24.085200 -18.856300 -5.822000
H -23.252800 -17.179500 -4.450200
C -23.196000 -18.545700 -5.934300
H -22.762500 -19.771200 -7.487500
C -22.698500 -17.566100 -5.117800
C -22.414500 -19.098000 -6.914300
H -21.407800 -15.931200 -3.613600
C -21.394900 -17.107500 -5.285300
C -21.124300 -18.658600 -7.079200
N -20.944600 -16.121700 -4.383200
C -20.602800 -17.681400 -6.262200
H -20.572000 -19.057400 -7.746300
H -19.979700 -14.676900 -2.773300
C -19.918400 -15.233000 -4.551800
H -19.701500 -17.392500 -6.376600
N -19.666900 -14.459000 -3.503800
O -19.276300 -15.165100 -5.616300
H -19.020000 -14.003800 -3.556900
18
Fragment
O -22.349500 -9.441200 -3.112000
H -22.031000 -10.809600 -5.115200
N -21.145200 -9.190900 -3.252700
C -21.080800 -10.742200 -5.148200
H -20.823500 -12.033900 -6.683900
O -20.555900 -8.413800 -2.517100
C -20.407500 -9.907000 -4.278600
C -20.370700 -11.451000 -6.082800
C -19.037300 -9.741000 -4.354400
C -18.981900 -11.301800 -6.175600
H -18.596000 -9.150800 -3.754300
O -18.350600 -12.016600 -7.118400
C -18.315500 -10.437700 -5.297200
H -17.557400 -11.709600 -7.201400
C -16.842200 -10.283700 -5.410100
O -16.316900 -9.502700 -4.502300
O -16.199300 -10.861100 -6.276600
H -15.469800 -9.428500 -4.752800
36
Fragment
H -24.085200 -18.856300 -5.822000
H -23.252800 -17.179500 -4.450200
C -23.196000 -18.545700 -5.934300
H -22.762500 -19.771200 -7.487500
C -22.698500 -17.566100 -5.117800
C -22.414500 -19.098000 -6.914300
H -21.407800 -15.931200 -3.613600
C -21.394900 -17.107500 -5.285300
C -21.124300 -18.658600 -7.079200
N -20.944600 -16.121700 -4.383200
C -20.602800 -17.681400 -6.262200
H -20.572000 -19.057400 -7.746300
H -19.979700 -14.676900 -2.773300
C -19.918400 -15.233000 -4.551800
H -19.701500 -17.392500 -6.376600
N -19.666900 -14.459000 -3.503800
O -19.276300 -15.165100 -5.616300
H -19.020000 -14.003800 -3.556900
O -22.349500 -9.441200 -3.112000
H -22.031000 -10.809600 -5.115200
N -21.145200 -9.190900 -3.252700
C -21.080800 -10.742200 -5.148200
H -20.823500 -12.033900 -6.683900
O -20.555900 -8.413800 -2.517100
C -20.407500 -9.907000 -4.278600
C -20.370700 -11.451000 -6.082800
C -19.037300 -9.741000 -4.354400
C -18.981900 -11.301800 -6.175600
H -18.596000 -9.150800 -3.754300
O -18.350600 -12.016600 -7.118400
C -18.315500 -10.437700 -5.297200
H -17.557400 -11.709600 -7.201400
C -16.842200 -10.283700 -5.410100
O -16.316900 -9.502700 -4.502300
O -16.199300 -10.861100 -6.276600
H -15.469800 -9.428500 -4.752800
