18
Fragment
H -24.085200 -18.856300 -5.822000
H -23.252800 -17.179500 -4.450200
C -23.196000 -18.545700 -5.934300
H -22.762500 -19.771200 -7.487500
C -22.698500 -17.566100 -5.117800
C -22.414500 -19.098000 -6.914300
H -21.407800 -15.931200 -3.613600
C -21.394900 -17.107500 -5.285300
C -21.124300 -18.658600 -7.079200
N -20.944600 -16.121700 -4.383200
C -20.602800 -17.681400 -6.262200
H -20.572000 -19.057400 -7.746300
H -19.979700 -14.676900 -2.773300
C -19.918400 -15.233000 -4.551800
H -19.701500 -17.392500 -6.376600
N -19.666900 -14.459000 -3.503800
O -19.276300 -15.165100 -5.616300
H -19.020000 -14.003800 -3.556900
18
Fragment
O -22.672000 -9.431900 2.042900
H -22.353500 -10.800300 0.039700
N -21.467700 -9.181600 1.902200
C -21.403300 -10.732900 0.006700
H -21.146000 -12.024600 -1.528900
O -20.878400 -8.404500 2.637800
C -20.730000 -9.897700 0.876300
C -20.693200 -11.441700 -0.927900
C -19.359800 -9.731600 0.800600
C -19.304500 -11.292500 -1.020700
H -18.918500 -9.141500 1.400600
O -18.673100 -12.007300 -1.963500
C -18.638000 -10.428400 -0.142300
H -17.879900 -11.700300 -2.046500
C -17.164800 -10.274400 -0.255200
O -16.639500 -9.493400 0.652600
O -16.521800 -10.851800 -1.121700
H -15.792300 -9.419200 0.402100
36
Fragment
H -24.085200 -18.856300 -5.822000
H -23.252800 -17.179500 -4.450200
C -23.196000 -18.545700 -5.934300
H -22.762500 -19.771200 -7.487500
C -22.698500 -17.566100 -5.117800
C -22.414500 -19.098000 -6.914300
H -21.407800 -15.931200 -3.613600
C -21.394900 -17.107500 -5.285300
C -21.124300 -18.658600 -7.079200
N -20.944600 -16.121700 -4.383200
C -20.602800 -17.681400 -6.262200
H -20.572000 -19.057400 -7.746300
H -19.979700 -14.676900 -2.773300
C -19.918400 -15.233000 -4.551800
H -19.701500 -17.392500 -6.376600
N -19.666900 -14.459000 -3.503800
O -19.276300 -15.165100 -5.616300
H -19.020000 -14.003800 -3.556900
O -22.672000 -9.431900 2.042900
H -22.353500 -10.800300 0.039700
N -21.467700 -9.181600 1.902200
C -21.403300 -10.732900 0.006700
H -21.146000 -12.024600 -1.528900
O -20.878400 -8.404500 2.637800
C -20.730000 -9.897700 0.876300
C -20.693200 -11.441700 -0.927900
C -19.359800 -9.731600 0.800600
C -19.304500 -11.292500 -1.020700
H -18.918500 -9.141500 1.400600
O -18.673100 -12.007300 -1.963500
C -18.638000 -10.428400 -0.142300
H -17.879900 -11.700300 -2.046500
C -17.164800 -10.274400 -0.255200
O -16.639500 -9.493400 0.652600
O -16.521800 -10.851800 -1.121700
H -15.792300 -9.419200 0.402100
