18
Fragment
H -24.085200 -18.856300 -5.822000
H -23.252800 -17.179500 -4.450200
C -23.196000 -18.545700 -5.934300
H -22.762500 -19.771200 -7.487500
C -22.698500 -17.566100 -5.117800
C -22.414500 -19.098000 -6.914300
H -21.407800 -15.931200 -3.613600
C -21.394900 -17.107500 -5.285300
C -21.124300 -18.658600 -7.079200
N -20.944600 -16.121700 -4.383200
C -20.602800 -17.681400 -6.262200
H -20.572000 -19.057400 -7.746300
H -19.979700 -14.676900 -2.773300
C -19.918400 -15.233000 -4.551800
H -19.701500 -17.392500 -6.376600
N -19.666900 -14.459000 -3.503800
O -19.276300 -15.165100 -5.616300
H -19.020000 -14.003800 -3.556900
18
Fragment
H -19.208100 -22.161900 -11.907800
O -18.951800 -21.000500 -9.848500
N -18.561200 -21.706600 -11.960900
H -18.526500 -18.773100 -9.088100
C -18.309600 -20.932600 -10.912900
H -18.248400 -21.488700 -12.691400
H -17.656000 -17.108300 -7.718500
C -17.625300 -18.484200 -9.202500
N -17.283400 -20.043900 -11.081500
C -17.103800 -17.507000 -8.385500
C -16.833200 -19.058100 -10.179400
H -16.820300 -20.234400 -11.851100
C -15.813600 -17.067600 -8.550500
C -15.529500 -18.599500 -10.346900
H -15.465500 -16.394400 -7.977200
C -15.032100 -17.619900 -9.530400
H -14.975200 -18.986200 -11.014500
H -14.142900 -17.309300 -9.642800
36
Fragment
H -24.085200 -18.856300 -5.822000
H -23.252800 -17.179500 -4.450200
C -23.196000 -18.545700 -5.934300
H -22.762500 -19.771200 -7.487500
C -22.698500 -17.566100 -5.117800
C -22.414500 -19.098000 -6.914300
H -21.407800 -15.931200 -3.613600
C -21.394900 -17.107500 -5.285300
C -21.124300 -18.658600 -7.079200
N -20.944600 -16.121700 -4.383200
C -20.602800 -17.681400 -6.262200
H -20.572000 -19.057400 -7.746300
H -19.979700 -14.676900 -2.773300
C -19.918400 -15.233000 -4.551800
H -19.701500 -17.392500 -6.376600
N -19.666900 -14.459000 -3.503800
O -19.276300 -15.165100 -5.616300
H -19.020000 -14.003800 -3.556900
H -19.208100 -22.161900 -11.907800
O -18.951800 -21.000500 -9.848500
N -18.561200 -21.706600 -11.960900
H -18.526500 -18.773100 -9.088100
C -18.309600 -20.932600 -10.912900
H -18.248400 -21.488700 -12.691400
H -17.656000 -17.108300 -7.718500
C -17.625300 -18.484200 -9.202500
N -17.283400 -20.043900 -11.081500
C -17.103800 -17.507000 -8.385500
C -16.833200 -19.058100 -10.179400
H -16.820300 -20.234400 -11.851100
C -15.813600 -17.067600 -8.550500
C -15.529500 -18.599500 -10.346900
H -15.465500 -16.394400 -7.977200
C -15.032100 -17.619900 -9.530400
H -14.975200 -18.986200 -11.014500
H -14.142900 -17.309300 -9.642800
