21
Fragment
O -9.363900 -24.630000 -13.771700
O -9.021500 -21.037700 -10.661800
H -8.925400 -22.949000 -12.032900
N -8.270200 -25.059100 -13.448300
C -7.993900 -23.120400 -11.965600
N -7.817400 -21.173700 -10.510400
O -7.812900 -26.143600 -13.784700
C -7.422500 -24.186800 -12.606400
C -7.170600 -22.302800 -11.219300
O -7.134900 -20.431800 -9.836000
C -6.090800 -24.482800 -12.506200
C -5.796800 -22.508000 -11.110700
H -5.722100 -25.249400 -12.931400
C -5.304400 -23.627900 -11.765200
C -4.885300 -21.554700 -10.301700
O -4.609000 -21.766400 -9.156200
O -4.515400 -20.539400 -11.047200
H -3.941500 -20.040500 -10.454600
N -3.852900 -23.955500 -11.694100
O -3.512100 -25.063800 -12.058100
O -3.097000 -23.088700 -11.289600
18
Fragment
H -13.865000 -29.324000 -16.307400
H -13.836100 -27.330700 -15.119100
C -13.051200 -29.020900 -15.923500
C -13.043700 -27.842900 -15.216200
H -11.937800 -30.594300 -16.579600
C -11.908700 -29.780800 -16.091000
C -11.857700 -27.416600 -14.652700
H -11.838100 -26.604700 -14.157100
C -10.719900 -29.342100 -15.536600
C -10.699800 -28.156200 -14.802500
O -9.891300 -31.362500 -17.441400
H -9.890800 -27.856400 -14.404900
N -9.492200 -30.040400 -15.640600
C -9.140900 -31.005300 -16.534500
H -8.940400 -29.821300 -15.087000
N -7.898100 -31.482000 -16.366300
H -7.693100 -32.113400 -16.822800
H -7.464100 -31.301700 -15.622300
39
Fragment
O -9.363900 -24.630000 -13.771700
O -9.021500 -21.037700 -10.661800
H -8.925400 -22.949000 -12.032900
N -8.270200 -25.059100 -13.448300
C -7.993900 -23.120400 -11.965600
N -7.817400 -21.173700 -10.510400
O -7.812900 -26.143600 -13.784700
C -7.422500 -24.186800 -12.606400
C -7.170600 -22.302800 -11.219300
O -7.134900 -20.431800 -9.836000
C -6.090800 -24.482800 -12.506200
C -5.796800 -22.508000 -11.110700
H -5.722100 -25.249400 -12.931400
C -5.304400 -23.627900 -11.765200
C -4.885300 -21.554700 -10.301700
O -4.609000 -21.766400 -9.156200
O -4.515400 -20.539400 -11.047200
H -3.941500 -20.040500 -10.454600
N -3.852900 -23.955500 -11.694100
O -3.512100 -25.063800 -12.058100
O -3.097000 -23.088700 -11.289600
H -13.865000 -29.324000 -16.307400
H -13.836100 -27.330700 -15.119100
C -13.051200 -29.020900 -15.923500
C -13.043700 -27.842900 -15.216200
H -11.937800 -30.594300 -16.579600
C -11.908700 -29.780800 -16.091000
C -11.857700 -27.416600 -14.652700
H -11.838100 -26.604700 -14.157100
C -10.719900 -29.342100 -15.536600
C -10.699800 -28.156200 -14.802500
O -9.891300 -31.362500 -17.441400
H -9.890800 -27.856400 -14.404900
N -9.492200 -30.040400 -15.640600
C -9.140900 -31.005300 -16.534500
H -8.940400 -29.821300 -15.087000
N -7.898100 -31.482000 -16.366300
H -7.693100 -32.113400 -16.822800
H -7.464100 -31.301700 -15.622300
