21
Fragment
O -9.363900 -24.630000 -13.771700
O -9.021500 -21.037700 -10.661800
H -8.925400 -22.949000 -12.032900
N -8.270200 -25.059100 -13.448300
C -7.993900 -23.120400 -11.965600
N -7.817400 -21.173700 -10.510400
O -7.812900 -26.143600 -13.784700
C -7.422500 -24.186800 -12.606400
C -7.170600 -22.302800 -11.219300
O -7.134900 -20.431800 -9.836000
C -6.090800 -24.482800 -12.506200
C -5.796800 -22.508000 -11.110700
H -5.722100 -25.249400 -12.931400
C -5.304400 -23.627900 -11.765200
C -4.885300 -21.554700 -10.301700
O -4.609000 -21.766400 -9.156200
O -4.515400 -20.539400 -11.047200
H -3.941500 -20.040500 -10.454600
N -3.852900 -23.955500 -11.694100
O -3.512100 -25.063800 -12.058100
O -3.097000 -23.088700 -11.289600
21
Fragment
O -1.129900 -24.630000 -13.771700
O -0.787500 -21.037700 -10.661800
H -0.691400 -22.949000 -12.032900
N -0.036200 -25.059100 -13.448300
C 0.240100 -23.120400 -11.965600
N 0.416600 -21.173700 -10.510400
O 0.421100 -26.143600 -13.784700
C 0.811500 -24.186800 -12.606400
C 1.063400 -22.302800 -11.219300
O 1.099100 -20.431800 -9.836000
C 2.143200 -24.482800 -12.506200
C 2.437200 -22.508000 -11.110700
H 2.511900 -25.249400 -12.931400
C 2.929600 -23.627900 -11.765200
C 3.348700 -21.554700 -10.301700
O 3.625000 -21.766400 -9.156200
O 3.718600 -20.539400 -11.047200
H 4.292500 -20.040500 -10.454600
N 4.381100 -23.955500 -11.694100
O 4.721900 -25.063800 -12.058100
O 5.137000 -23.088700 -11.289600
42
Fragment
O -9.363900 -24.630000 -13.771700
O -9.021500 -21.037700 -10.661800
H -8.925400 -22.949000 -12.032900
N -8.270200 -25.059100 -13.448300
C -7.993900 -23.120400 -11.965600
N -7.817400 -21.173700 -10.510400
O -7.812900 -26.143600 -13.784700
C -7.422500 -24.186800 -12.606400
C -7.170600 -22.302800 -11.219300
O -7.134900 -20.431800 -9.836000
C -6.090800 -24.482800 -12.506200
C -5.796800 -22.508000 -11.110700
H -5.722100 -25.249400 -12.931400
C -5.304400 -23.627900 -11.765200
C -4.885300 -21.554700 -10.301700
O -4.609000 -21.766400 -9.156200
O -4.515400 -20.539400 -11.047200
H -3.941500 -20.040500 -10.454600
N -3.852900 -23.955500 -11.694100
O -3.512100 -25.063800 -12.058100
O -3.097000 -23.088700 -11.289600
O -1.129900 -24.630000 -13.771700
O -0.787500 -21.037700 -10.661800
H -0.691400 -22.949000 -12.032900
N -0.036200 -25.059100 -13.448300
C 0.240100 -23.120400 -11.965600
N 0.416600 -21.173700 -10.510400
O 0.421100 -26.143600 -13.784700
C 0.811500 -24.186800 -12.606400
C 1.063400 -22.302800 -11.219300
O 1.099100 -20.431800 -9.836000
C 2.143200 -24.482800 -12.506200
C 2.437200 -22.508000 -11.110700
H 2.511900 -25.249400 -12.931400
C 2.929600 -23.627900 -11.765200
C 3.348700 -21.554700 -10.301700
O 3.625000 -21.766400 -9.156200
O 3.718600 -20.539400 -11.047200
H 4.292500 -20.040500 -10.454600
N 4.381100 -23.955500 -11.694100
O 4.721900 -25.063800 -12.058100
O 5.137000 -23.088700 -11.289600
