18
Fragment
H -24.085200 -18.856300 -5.822000
H -23.252800 -17.179500 -4.450200
C -23.196000 -18.545700 -5.934300
H -22.762500 -19.771200 -7.487500
C -22.698500 -17.566100 -5.117800
C -22.414500 -19.098000 -6.914300
H -21.407800 -15.931200 -3.613600
C -21.394900 -17.107500 -5.285300
C -21.124300 -18.658600 -7.079200
N -20.944600 -16.121700 -4.383200
C -20.602800 -17.681400 -6.262200
H -20.572000 -19.057400 -7.746300
H -19.979700 -14.676900 -2.773300
C -19.918400 -15.233000 -4.551800
H -19.701500 -17.392500 -6.376600
N -19.666900 -14.459000 -3.503800
O -19.276300 -15.165100 -5.616300
H -19.020000 -14.003800 -3.556900
18
Fragment
H -17.634200 -14.681900 -5.557000
O -16.904800 -13.249300 -4.033200
O -16.787100 -14.607700 -5.807500
C -16.261800 -13.826700 -4.899700
H -15.546600 -12.400800 -3.108400
C -14.788500 -13.672700 -5.012600
O -14.753400 -12.093800 -3.191400
H -14.508000 -14.959600 -6.555500
C -14.122100 -12.808600 -4.134200
C -14.066700 -14.369500 -5.955500
C -12.733400 -12.659400 -4.227000
C -12.696600 -14.203400 -6.031200
O -12.548100 -15.696600 -7.792700
H -12.280500 -12.076500 -3.626000
C -12.023200 -13.368200 -5.161600
N -11.958800 -14.919500 -7.057100
H -11.073000 -13.300800 -5.194600
O -10.754500 -14.669200 -7.197800
36
Fragment
H -24.085200 -18.856300 -5.822000
H -23.252800 -17.179500 -4.450200
C -23.196000 -18.545700 -5.934300
H -22.762500 -19.771200 -7.487500
C -22.698500 -17.566100 -5.117800
C -22.414500 -19.098000 -6.914300
H -21.407800 -15.931200 -3.613600
C -21.394900 -17.107500 -5.285300
C -21.124300 -18.658600 -7.079200
N -20.944600 -16.121700 -4.383200
C -20.602800 -17.681400 -6.262200
H -20.572000 -19.057400 -7.746300
H -19.979700 -14.676900 -2.773300
C -19.918400 -15.233000 -4.551800
H -19.701500 -17.392500 -6.376600
N -19.666900 -14.459000 -3.503800
O -19.276300 -15.165100 -5.616300
H -19.020000 -14.003800 -3.556900
H -17.634200 -14.681900 -5.557000
O -16.904800 -13.249300 -4.033200
O -16.787100 -14.607700 -5.807500
C -16.261800 -13.826700 -4.899700
H -15.546600 -12.400800 -3.108400
C -14.788500 -13.672700 -5.012600
O -14.753400 -12.093800 -3.191400
H -14.508000 -14.959600 -6.555500
C -14.122100 -12.808600 -4.134200
C -14.066700 -14.369500 -5.955500
C -12.733400 -12.659400 -4.227000
C -12.696600 -14.203400 -6.031200
O -12.548100 -15.696600 -7.792700
H -12.280500 -12.076500 -3.626000
C -12.023200 -13.368200 -5.161600
N -11.958800 -14.919500 -7.057100
H -11.073000 -13.300800 -5.194600
O -10.754500 -14.669200 -7.197800
