12
Fragment
H -3.297900 -7.412300 -13.602700
H -3.258500 -6.018600 -11.833800
N -2.890100 -7.688700 -12.888200
C -2.832400 -6.867800 -11.805700
O -2.451100 -9.636000 -13.981800
C -2.320000 -8.930500 -12.938500
C -2.167500 -7.254700 -10.682300
H -2.125100 -6.688800 -9.920400
C -1.603100 -9.335700 -11.771100
C -1.543300 -8.518700 -10.682800
H -1.165700 -10.179500 -11.753400
H -1.071700 -8.805900 -9.909600
12
Fragment
H -2.198300 -2.093100 -10.375700
H -2.156000 -0.657800 -8.579700
C -1.759500 -2.356300 -9.574900
C -1.735700 -1.506800 -8.511600
H -1.152100 -4.212700 -10.247400
C -1.141000 -3.622200 -9.503400
C -1.085200 -1.878200 -7.290800
O -1.023500 -1.155200 -6.260700
C -0.530100 -3.973900 -8.345000
N -0.504600 -3.117000 -7.287000
H -0.116100 -4.825700 -8.270800
H -0.110000 -3.381600 -6.532600
24
Fragment
H -3.297900 -7.412300 -13.602700
H -3.258500 -6.018600 -11.833800
N -2.890100 -7.688700 -12.888200
C -2.832400 -6.867800 -11.805700
O -2.451100 -9.636000 -13.981800
C -2.320000 -8.930500 -12.938500
C -2.167500 -7.254700 -10.682300
H -2.125100 -6.688800 -9.920400
C -1.603100 -9.335700 -11.771100
C -1.543300 -8.518700 -10.682800
H -1.165700 -10.179500 -11.753400
H -1.071700 -8.805900 -9.909600
H -2.198300 -2.093100 -10.375700
H -2.156000 -0.657800 -8.579700
C -1.759500 -2.356300 -9.574900
C -1.735700 -1.506800 -8.511600
H -1.152100 -4.212700 -10.247400
C -1.141000 -3.622200 -9.503400
C -1.085200 -1.878200 -7.290800
O -1.023500 -1.155200 -6.260700
C -0.530100 -3.973900 -8.345000
N -0.504600 -3.117000 -7.287000
H -0.116100 -4.825700 -8.270800
H -0.110000 -3.381600 -6.532600
