32
Fragment
H -41.569900 -8.770100 -17.898100
C -40.829600 -8.905500 -18.511100
N -40.645500 -9.957900 -19.276900
H -40.559500 -6.501500 -17.550400
N -39.837200 -8.004800 -18.676500
C -39.698000 -6.731400 -17.980300
H -39.489500 -6.022900 -18.639600
C -39.481400 -9.718600 -19.976200
H -39.156600 -10.355400 -20.645100
C -38.969500 -8.517800 -19.611600
H -38.963600 -8.641200 -16.248900
C -38.613300 -6.761900 -16.928300
C -38.435800 -7.863900 -16.109000
H -38.182900 -8.014500 -19.865800
H -37.916700 -4.882600 -17.281900
C -37.818100 -5.642900 -16.720800
C -37.496300 -7.849500 -15.084900
H -37.397700 -8.609800 -14.523800
H -37.131600 -5.477900 -11.939900
C -36.878600 -5.628500 -15.696700
C -36.701200 -6.730500 -14.877400
H -36.350900 -4.851200 -15.556800
C -36.345000 -4.974600 -12.194100
H -36.157800 -3.137000 -11.160600
C -35.833000 -3.773800 -11.829500
H -35.824900 -7.469500 -13.166100
C -35.616500 -6.761000 -13.825400
N -35.477300 -5.487600 -13.129200
H -34.755000 -6.990900 -14.255300
N -34.669000 -3.534500 -12.528800
C -34.484800 -4.586900 -13.294600
H -33.744500 -4.722300 -13.907600
32
Fragment
H -43.164000 -4.722300 -12.597200
C -42.423700 -4.586900 -13.210200
N -42.239600 -3.534500 -13.976000
H -42.153600 -6.990900 -12.249400
N -41.431300 -5.487600 -13.375600
C -41.292100 -6.761000 -12.679300
H -41.083600 -7.469500 -13.338700
C -41.075500 -3.773800 -14.675300
H -40.750700 -3.137000 -15.344100
C -40.563600 -4.974600 -14.310700
H -40.557700 -4.851200 -10.947900
C -40.207400 -6.730500 -11.627300
C -40.029900 -5.628500 -10.808000
H -39.777000 -5.477900 -14.564900
H -39.510800 -8.609800 -11.981000
C -39.412200 -7.849500 -11.419800
C -39.090400 -5.642900 -9.784000
H -38.991800 -4.882600 -9.222800
H -38.725700 -8.014500 -6.638900
C -38.472700 -7.863900 -10.395800
C -38.295300 -6.761900 -9.576500
H -37.945000 -8.641200 -10.255900
C -37.939100 -8.517800 -6.893100
H -37.751900 -10.355400 -5.859700
C -37.427100 -9.718600 -6.528500
H -37.419000 -6.022900 -7.865100
C -37.210600 -6.731400 -8.524500
N -37.071400 -8.004800 -7.828200
H -36.349100 -6.501500 -8.954400
N -36.263100 -9.957900 -7.227800
C -36.078900 -8.905500 -7.993600
H -35.338600 -8.770100 -8.606600
64
Fragment
H -41.569900 -8.770100 -17.898100
C -40.829600 -8.905500 -18.511100
N -40.645500 -9.957900 -19.276900
H -40.559500 -6.501500 -17.550400
N -39.837200 -8.004800 -18.676500
C -39.698000 -6.731400 -17.980300
H -39.489500 -6.022900 -18.639600
C -39.481400 -9.718600 -19.976200
H -39.156600 -10.355400 -20.645100
C -38.969500 -8.517800 -19.611600
H -38.963600 -8.641200 -16.248900
C -38.613300 -6.761900 -16.928300
C -38.435800 -7.863900 -16.109000
H -38.182900 -8.014500 -19.865800
H -37.916700 -4.882600 -17.281900
C -37.818100 -5.642900 -16.720800
C -37.496300 -7.849500 -15.084900
H -37.397700 -8.609800 -14.523800
H -37.131600 -5.477900 -11.939900
C -36.878600 -5.628500 -15.696700
C -36.701200 -6.730500 -14.877400
H -36.350900 -4.851200 -15.556800
C -36.345000 -4.974600 -12.194100
H -36.157800 -3.137000 -11.160600
C -35.833000 -3.773800 -11.829500
H -35.824900 -7.469500 -13.166100
C -35.616500 -6.761000 -13.825400
N -35.477300 -5.487600 -13.129200
H -34.755000 -6.990900 -14.255300
N -34.669000 -3.534500 -12.528800
C -34.484800 -4.586900 -13.294600
H -33.744500 -4.722300 -13.907600
H -43.164000 -4.722300 -12.597200
C -42.423700 -4.586900 -13.210200
N -42.239600 -3.534500 -13.976000
H -42.153600 -6.990900 -12.249400
N -41.431300 -5.487600 -13.375600
C -41.292100 -6.761000 -12.679300
H -41.083600 -7.469500 -13.338700
C -41.075500 -3.773800 -14.675300
H -40.750700 -3.137000 -15.344100
C -40.563600 -4.974600 -14.310700
H -40.557700 -4.851200 -10.947900
C -40.207400 -6.730500 -11.627300
C -40.029900 -5.628500 -10.808000
H -39.777000 -5.477900 -14.564900
H -39.510800 -8.609800 -11.981000
C -39.412200 -7.849500 -11.419800
C -39.090400 -5.642900 -9.784000
H -38.991800 -4.882600 -9.222800
H -38.725700 -8.014500 -6.638900
C -38.472700 -7.863900 -10.395800
C -38.295300 -6.761900 -9.576500
H -37.945000 -8.641200 -10.255900
C -37.939100 -8.517800 -6.893100
H -37.751900 -10.355400 -5.859700
C -37.427100 -9.718600 -6.528500
H -37.419000 -6.022900 -7.865100
C -37.210600 -6.731400 -8.524500
N -37.071400 -8.004800 -7.828200
H -36.349100 -6.501500 -8.954400
N -36.263100 -9.957900 -7.227800
C -36.078900 -8.905500 -7.993600
H -35.338600 -8.770100 -8.606600
