12
Fragment
H -3.297900 -7.412300 -13.602700
H -3.258500 -6.018600 -11.833800
N -2.890100 -7.688700 -12.888200
C -2.832400 -6.867800 -11.805700
O -2.451100 -9.636000 -13.981800
C -2.320000 -8.930500 -12.938500
C -2.167500 -7.254700 -10.682300
H -2.125100 -6.688800 -9.920400
C -1.603100 -9.335700 -11.771100
C -1.543300 -8.518700 -10.682800
H -1.165700 -10.179500 -11.753400
H -1.071700 -8.805900 -9.909600
22
Fragment
N -7.105800 -3.271100 -16.048600
N -6.520200 -4.423700 -16.065900
N -6.354400 -2.344200 -15.393300
N -5.342200 -4.274100 -15.403000
C -5.266000 -2.994200 -15.005900
H -4.789100 -4.964100 -15.306600
H -4.409100 -1.483100 -14.138500
N -4.268300 -2.367900 -14.308000
C -3.090800 -2.945100 -13.917100
N -2.859800 -4.223800 -14.254900
N -2.259400 -2.152800 -13.221900
N -1.709700 -4.754500 -13.880600
N -1.109200 -2.683400 -12.847600
C -0.878200 -3.962100 -13.185400
N 0.299300 -4.539400 -12.794400
H 0.440100 -5.424100 -12.964000
H 0.820100 -1.943200 -11.795900
C 1.296900 -3.913000 -12.096600
N 1.373200 -2.633100 -11.699500
N 2.385400 -4.563000 -11.709200
N 2.551200 -2.483600 -11.036600
N 3.136800 -3.636200 -11.053800
34
Fragment
H -3.297900 -7.412300 -13.602700
H -3.258500 -6.018600 -11.833800
N -2.890100 -7.688700 -12.888200
C -2.832400 -6.867800 -11.805700
O -2.451100 -9.636000 -13.981800
C -2.320000 -8.930500 -12.938500
C -2.167500 -7.254700 -10.682300
H -2.125100 -6.688800 -9.920400
C -1.603100 -9.335700 -11.771100
C -1.543300 -8.518700 -10.682800
H -1.165700 -10.179500 -11.753400
H -1.071700 -8.805900 -9.909600
N -7.105800 -3.271100 -16.048600
N -6.520200 -4.423700 -16.065900
N -6.354400 -2.344200 -15.393300
N -5.342200 -4.274100 -15.403000
C -5.266000 -2.994200 -15.005900
H -4.789100 -4.964100 -15.306600
H -4.409100 -1.483100 -14.138500
N -4.268300 -2.367900 -14.308000
C -3.090800 -2.945100 -13.917100
N -2.859800 -4.223800 -14.254900
N -2.259400 -2.152800 -13.221900
N -1.709700 -4.754500 -13.880600
N -1.109200 -2.683400 -12.847600
C -0.878200 -3.962100 -13.185400
N 0.299300 -4.539400 -12.794400
H 0.440100 -5.424100 -12.964000
H 0.820100 -1.943200 -11.795900
C 1.296900 -3.913000 -12.096600
N 1.373200 -2.633100 -11.699500
N 2.385400 -4.563000 -11.709200
N 2.551200 -2.483600 -11.036600
N 3.136800 -3.636200 -11.053800
