12
Fragment
H -3.297900 -7.412300 -13.602700
H -3.258500 -6.018600 -11.833800
N -2.890100 -7.688700 -12.888200
C -2.832400 -6.867800 -11.805700
O -2.451100 -9.636000 -13.981800
C -2.320000 -8.930500 -12.938500
C -2.167500 -7.254700 -10.682300
H -2.125100 -6.688800 -9.920400
C -1.603100 -9.335700 -11.771100
C -1.543300 -8.518700 -10.682800
H -1.165700 -10.179500 -11.753400
H -1.071700 -8.805900 -9.909600
12
Fragment
H -0.648500 -8.039700 -17.192900
H -0.554500 -6.666100 -15.349000
C -0.176900 -8.326900 -16.419700
C -0.117100 -7.509900 -15.331400
H 0.404900 -10.156800 -17.182100
C 0.447300 -9.590900 -16.420200
C 0.599800 -7.915100 -14.163900
O 0.730900 -7.209600 -13.120700
C 1.112200 -9.977800 -15.296700
N 1.169900 -9.156900 -14.214300
H 1.538300 -10.827000 -15.268600
H 1.577700 -9.433300 -13.499700
24
Fragment
H -3.297900 -7.412300 -13.602700
H -3.258500 -6.018600 -11.833800
N -2.890100 -7.688700 -12.888200
C -2.832400 -6.867800 -11.805700
O -2.451100 -9.636000 -13.981800
C -2.320000 -8.930500 -12.938500
C -2.167500 -7.254700 -10.682300
H -2.125100 -6.688800 -9.920400
C -1.603100 -9.335700 -11.771100
C -1.543300 -8.518700 -10.682800
H -1.165700 -10.179500 -11.753400
H -1.071700 -8.805900 -9.909600
H -0.648500 -8.039700 -17.192900
H -0.554500 -6.666100 -15.349000
C -0.176900 -8.326900 -16.419700
C -0.117100 -7.509900 -15.331400
H 0.404900 -10.156800 -17.182100
C 0.447300 -9.590900 -16.420200
C 0.599800 -7.915100 -14.163900
O 0.730900 -7.209600 -13.120700
C 1.112200 -9.977800 -15.296700
N 1.169900 -9.156900 -14.214300
H 1.538300 -10.827000 -15.268600
H 1.577700 -9.433300 -13.499700
