12
Fragment
H -3.297900 -7.412300 -13.602700
H -3.258500 -6.018600 -11.833800
N -2.890100 -7.688700 -12.888200
C -2.832400 -6.867800 -11.805700
O -2.451100 -9.636000 -13.981800
C -2.320000 -8.930500 -12.938500
C -2.167500 -7.254700 -10.682300
H -2.125100 -6.688800 -9.920400
C -1.603100 -9.335700 -11.771100
C -1.543300 -8.518700 -10.682800
H -1.165700 -10.179500 -11.753400
H -1.071700 -8.805900 -9.909600
12
Fragment
H 0.050500 -12.031400 -10.375700
H 0.092800 -10.596100 -8.579700
C 0.489400 -12.294600 -9.574900
C 0.513100 -11.445100 -8.511600
H 1.096700 -14.151000 -10.247400
C 1.107800 -13.560600 -9.503400
C 1.163600 -11.816500 -7.290800
O 1.225300 -11.093600 -6.260700
C 1.718700 -13.912200 -8.345000
N 1.744200 -13.055300 -7.287000
H 2.132700 -14.764000 -8.270800
H 2.138800 -13.319900 -6.532600
24
Fragment
H -3.297900 -7.412300 -13.602700
H -3.258500 -6.018600 -11.833800
N -2.890100 -7.688700 -12.888200
C -2.832400 -6.867800 -11.805700
O -2.451100 -9.636000 -13.981800
C -2.320000 -8.930500 -12.938500
C -2.167500 -7.254700 -10.682300
H -2.125100 -6.688800 -9.920400
C -1.603100 -9.335700 -11.771100
C -1.543300 -8.518700 -10.682800
H -1.165700 -10.179500 -11.753400
H -1.071700 -8.805900 -9.909600
H 0.050500 -12.031400 -10.375700
H 0.092800 -10.596100 -8.579700
C 0.489400 -12.294600 -9.574900
C 0.513100 -11.445100 -8.511600
H 1.096700 -14.151000 -10.247400
C 1.107800 -13.560600 -9.503400
C 1.163600 -11.816500 -7.290800
O 1.225300 -11.093600 -6.260700
C 1.718700 -13.912200 -8.345000
N 1.744200 -13.055300 -7.287000
H 2.132700 -14.764000 -8.270800
H 2.138800 -13.319900 -6.532600
