22
Fragment
N -32.098500 -10.301000 -14.681800
N -31.813400 -11.109900 -15.744500
N -31.014500 -9.894000 -14.119400
C -30.491900 -11.179700 -15.794100
H -30.375800 -12.413800 -17.280400
N -29.974700 -10.435600 -14.811500
N -29.840500 -11.914100 -16.741200
H -29.090300 -10.294200 -14.501500
C -28.481200 -12.022500 -16.895700
N -28.084200 -12.881100 -17.853200
N -27.681400 -11.245400 -16.149100
N -26.781100 -13.040200 -18.004600
N -26.378000 -11.406600 -16.302300
C -25.984100 -12.330700 -17.198500
H -25.361500 -14.450200 -19.283500
N -24.628900 -12.504600 -17.298500
N -24.487900 -14.156600 -19.081300
H -24.110300 -12.028100 -16.785500
C -23.973500 -13.285700 -18.201600
N -23.447000 -14.709200 -19.768400
N -22.650300 -13.286300 -18.318600
N -22.366600 -14.183300 -19.300000
12
Fragment
H -25.923600 -12.075000 -22.680100
H -25.238500 -12.921400 -21.507800
H -25.208900 -13.467300 -23.012400
C -25.174900 -12.664200 -22.451600
H -24.463600 -11.006300 -24.352100
N -23.922000 -11.966600 -22.679900
C -23.672300 -11.484000 -24.024900
H -23.482200 -12.243200 -24.614200
H -23.308600 -12.010500 -20.812700
C -23.059900 -11.738400 -21.688900
H -22.903900 -10.876500 -24.016300
O -21.963200 -11.198700 -21.833000
34
Fragment
N -32.098500 -10.301000 -14.681800
N -31.813400 -11.109900 -15.744500
N -31.014500 -9.894000 -14.119400
C -30.491900 -11.179700 -15.794100
H -30.375800 -12.413800 -17.280400
N -29.974700 -10.435600 -14.811500
N -29.840500 -11.914100 -16.741200
H -29.090300 -10.294200 -14.501500
C -28.481200 -12.022500 -16.895700
N -28.084200 -12.881100 -17.853200
N -27.681400 -11.245400 -16.149100
N -26.781100 -13.040200 -18.004600
N -26.378000 -11.406600 -16.302300
C -25.984100 -12.330700 -17.198500
H -25.361500 -14.450200 -19.283500
N -24.628900 -12.504600 -17.298500
N -24.487900 -14.156600 -19.081300
H -24.110300 -12.028100 -16.785500
C -23.973500 -13.285700 -18.201600
N -23.447000 -14.709200 -19.768400
N -22.650300 -13.286300 -18.318600
N -22.366600 -14.183300 -19.300000
H -25.923600 -12.075000 -22.680100
H -25.238500 -12.921400 -21.507800
H -25.208900 -13.467300 -23.012400
C -25.174900 -12.664200 -22.451600
H -24.463600 -11.006300 -24.352100
N -23.922000 -11.966600 -22.679900
C -23.672300 -11.484000 -24.024900
H -23.482200 -12.243200 -24.614200
H -23.308600 -12.010500 -20.812700
C -23.059900 -11.738400 -21.688900
H -22.903900 -10.876500 -24.016300
O -21.963200 -11.198700 -21.833000
