32
Fragment
H -41.569900 -8.770100 -17.898100
C -40.829600 -8.905500 -18.511100
N -40.645500 -9.957900 -19.276900
H -40.559500 -6.501500 -17.550400
N -39.837200 -8.004800 -18.676500
C -39.698000 -6.731400 -17.980300
H -39.489500 -6.022900 -18.639600
C -39.481400 -9.718600 -19.976200
H -39.156600 -10.355400 -20.645100
C -38.969500 -8.517800 -19.611600
H -38.963600 -8.641200 -16.248900
C -38.613300 -6.761900 -16.928300
C -38.435800 -7.863900 -16.109000
H -38.182900 -8.014500 -19.865800
H -37.916700 -4.882600 -17.281900
C -37.818100 -5.642900 -16.720800
C -37.496300 -7.849500 -15.084900
H -37.397700 -8.609800 -14.523800
H -37.131600 -5.477900 -11.939900
C -36.878600 -5.628500 -15.696700
C -36.701200 -6.730500 -14.877400
H -36.350900 -4.851200 -15.556800
C -36.345000 -4.974600 -12.194100
H -36.157800 -3.137000 -11.160600
C -35.833000 -3.773800 -11.829500
H -35.824900 -7.469500 -13.166100
C -35.616500 -6.761000 -13.825400
N -35.477300 -5.487600 -13.129200
H -34.755000 -6.990900 -14.255300
N -34.669000 -3.534500 -12.528800
C -34.484800 -4.586900 -13.294600
H -33.744500 -4.722300 -13.907600
32
Fragment
H -39.975800 2.023900 -23.199100
C -39.235500 2.159300 -23.812100
N -39.051400 3.211700 -24.577900
H -38.965400 -0.244700 -22.851300
N -38.243100 1.258600 -23.977500
C -38.103900 -0.014800 -23.281200
H -37.895400 -0.723300 -23.940600
C -37.887300 2.972400 -25.277200
H -37.562500 3.609200 -25.946000
C -37.375400 1.771600 -24.912600
H -37.369500 1.895000 -21.549800
C -37.019200 0.015700 -22.229200
C -36.841700 1.117700 -21.409900
H -36.588800 1.268300 -25.166800
H -36.322600 -1.863600 -22.582900
C -36.224000 -1.103300 -22.021700
C -35.902200 1.103300 -20.385900
H -35.803600 1.863600 -19.824700
H -35.537500 -1.268300 -17.240800
C -35.284500 -1.117700 -20.997700
C -35.107100 -0.015700 -20.178400
H -34.756800 -1.895000 -20.857800
C -34.750900 -1.771600 -17.495000
H -34.563700 -3.609200 -16.461600
C -34.238900 -2.972400 -17.130400
H -34.230800 0.723300 -18.467000
C -34.022400 0.014800 -19.126400
N -33.883200 -1.258600 -18.430100
H -33.160900 0.244700 -19.556300
N -33.074900 -3.211700 -17.829700
C -32.890700 -2.159300 -18.595500
H -32.150400 -2.023900 -19.208500
64
Fragment
H -41.569900 -8.770100 -17.898100
C -40.829600 -8.905500 -18.511100
N -40.645500 -9.957900 -19.276900
H -40.559500 -6.501500 -17.550400
N -39.837200 -8.004800 -18.676500
C -39.698000 -6.731400 -17.980300
H -39.489500 -6.022900 -18.639600
C -39.481400 -9.718600 -19.976200
H -39.156600 -10.355400 -20.645100
C -38.969500 -8.517800 -19.611600
H -38.963600 -8.641200 -16.248900
C -38.613300 -6.761900 -16.928300
C -38.435800 -7.863900 -16.109000
H -38.182900 -8.014500 -19.865800
H -37.916700 -4.882600 -17.281900
C -37.818100 -5.642900 -16.720800
C -37.496300 -7.849500 -15.084900
H -37.397700 -8.609800 -14.523800
H -37.131600 -5.477900 -11.939900
C -36.878600 -5.628500 -15.696700
C -36.701200 -6.730500 -14.877400
H -36.350900 -4.851200 -15.556800
C -36.345000 -4.974600 -12.194100
H -36.157800 -3.137000 -11.160600
C -35.833000 -3.773800 -11.829500
H -35.824900 -7.469500 -13.166100
C -35.616500 -6.761000 -13.825400
N -35.477300 -5.487600 -13.129200
H -34.755000 -6.990900 -14.255300
N -34.669000 -3.534500 -12.528800
C -34.484800 -4.586900 -13.294600
H -33.744500 -4.722300 -13.907600
H -39.975800 2.023900 -23.199100
C -39.235500 2.159300 -23.812100
N -39.051400 3.211700 -24.577900
H -38.965400 -0.244700 -22.851300
N -38.243100 1.258600 -23.977500
C -38.103900 -0.014800 -23.281200
H -37.895400 -0.723300 -23.940600
C -37.887300 2.972400 -25.277200
H -37.562500 3.609200 -25.946000
C -37.375400 1.771600 -24.912600
H -37.369500 1.895000 -21.549800
C -37.019200 0.015700 -22.229200
C -36.841700 1.117700 -21.409900
H -36.588800 1.268300 -25.166800
H -36.322600 -1.863600 -22.582900
C -36.224000 -1.103300 -22.021700
C -35.902200 1.103300 -20.385900
H -35.803600 1.863600 -19.824700
H -35.537500 -1.268300 -17.240800
C -35.284500 -1.117700 -20.997700
C -35.107100 -0.015700 -20.178400
H -34.756800 -1.895000 -20.857800
C -34.750900 -1.771600 -17.495000
H -34.563700 -3.609200 -16.461600
C -34.238900 -2.972400 -17.130400
H -34.230800 0.723300 -18.467000
C -34.022400 0.014800 -19.126400
N -33.883200 -1.258600 -18.430100
H -33.160900 0.244700 -19.556300
N -33.074900 -3.211700 -17.829700
C -32.890700 -2.159300 -18.595500
H -32.150400 -2.023900 -19.208500
