32
Fragment
H -41.569900 -8.770100 -17.898100
C -40.829600 -8.905500 -18.511100
N -40.645500 -9.957900 -19.276900
H -40.559500 -6.501500 -17.550400
N -39.837200 -8.004800 -18.676500
C -39.698000 -6.731400 -17.980300
H -39.489500 -6.022900 -18.639600
C -39.481400 -9.718600 -19.976200
H -39.156600 -10.355400 -20.645100
C -38.969500 -8.517800 -19.611600
H -38.963600 -8.641200 -16.248900
C -38.613300 -6.761900 -16.928300
C -38.435800 -7.863900 -16.109000
H -38.182900 -8.014500 -19.865800
H -37.916700 -4.882600 -17.281900
C -37.818100 -5.642900 -16.720800
C -37.496300 -7.849500 -15.084900
H -37.397700 -8.609800 -14.523800
H -37.131600 -5.477900 -11.939900
C -36.878600 -5.628500 -15.696700
C -36.701200 -6.730500 -14.877400
H -36.350900 -4.851200 -15.556800
C -36.345000 -4.974600 -12.194100
H -36.157800 -3.137000 -11.160600
C -35.833000 -3.773800 -11.829500
H -35.824900 -7.469500 -13.166100
C -35.616500 -6.761000 -13.825400
N -35.477300 -5.487600 -13.129200
H -34.755000 -6.990900 -14.255300
N -34.669000 -3.534500 -12.528800
C -34.484800 -4.586900 -13.294600
H -33.744500 -4.722300 -13.907600
18
Fragment
O -45.660300 -11.105800 -21.149400
H -44.993900 -9.007900 -19.898500
H -44.678400 -12.386000 -22.831200
C -44.610300 -10.856900 -21.732100
C -44.240800 -8.771900 -20.427100
O -44.088900 -11.621900 -22.663400
H -43.843500 -7.020800 -19.467700
C -43.825800 -9.612400 -21.460000
C -43.558000 -7.594100 -20.169500
C -42.714700 -9.271400 -22.238100
C -42.447000 -7.253100 -20.947600
H -42.429300 -9.844700 -22.939900
O -42.183800 -5.243600 -19.744200
C -42.032000 -8.093600 -21.980500
C -41.662500 -6.008600 -20.675500
H -41.594300 -4.479500 -19.576400
H -41.278800 -7.857600 -22.509100
O -40.612400 -5.759700 -21.258200
50
Fragment
H -41.569900 -8.770100 -17.898100
C -40.829600 -8.905500 -18.511100
N -40.645500 -9.957900 -19.276900
H -40.559500 -6.501500 -17.550400
N -39.837200 -8.004800 -18.676500
C -39.698000 -6.731400 -17.980300
H -39.489500 -6.022900 -18.639600
C -39.481400 -9.718600 -19.976200
H -39.156600 -10.355400 -20.645100
C -38.969500 -8.517800 -19.611600
H -38.963600 -8.641200 -16.248900
C -38.613300 -6.761900 -16.928300
C -38.435800 -7.863900 -16.109000
H -38.182900 -8.014500 -19.865800
H -37.916700 -4.882600 -17.281900
C -37.818100 -5.642900 -16.720800
C -37.496300 -7.849500 -15.084900
H -37.397700 -8.609800 -14.523800
H -37.131600 -5.477900 -11.939900
C -36.878600 -5.628500 -15.696700
C -36.701200 -6.730500 -14.877400
H -36.350900 -4.851200 -15.556800
C -36.345000 -4.974600 -12.194100
H -36.157800 -3.137000 -11.160600
C -35.833000 -3.773800 -11.829500
H -35.824900 -7.469500 -13.166100
C -35.616500 -6.761000 -13.825400
N -35.477300 -5.487600 -13.129200
H -34.755000 -6.990900 -14.255300
N -34.669000 -3.534500 -12.528800
C -34.484800 -4.586900 -13.294600
H -33.744500 -4.722300 -13.907600
O -45.660300 -11.105800 -21.149400
H -44.993900 -9.007900 -19.898500
H -44.678400 -12.386000 -22.831200
C -44.610300 -10.856900 -21.732100
C -44.240800 -8.771900 -20.427100
O -44.088900 -11.621900 -22.663400
H -43.843500 -7.020800 -19.467700
C -43.825800 -9.612400 -21.460000
C -43.558000 -7.594100 -20.169500
C -42.714700 -9.271400 -22.238100
C -42.447000 -7.253100 -20.947600
H -42.429300 -9.844700 -22.939900
O -42.183800 -5.243600 -19.744200
C -42.032000 -8.093600 -21.980500
C -41.662500 -6.008600 -20.675500
H -41.594300 -4.479500 -19.576400
H -41.278800 -7.857600 -22.509100
O -40.612400 -5.759700 -21.258200
