22
Fragment
N -32.098500 -10.301000 -14.681800
N -31.813400 -11.109900 -15.744500
N -31.014500 -9.894000 -14.119400
C -30.491900 -11.179700 -15.794100
H -30.375800 -12.413800 -17.280400
N -29.974700 -10.435600 -14.811500
N -29.840500 -11.914100 -16.741200
H -29.090300 -10.294200 -14.501500
C -28.481200 -12.022500 -16.895700
N -28.084200 -12.881100 -17.853200
N -27.681400 -11.245400 -16.149100
N -26.781100 -13.040200 -18.004600
N -26.378000 -11.406600 -16.302300
C -25.984100 -12.330700 -17.198500
H -25.361500 -14.450200 -19.283500
N -24.628900 -12.504600 -17.298500
N -24.487900 -14.156600 -19.081300
H -24.110300 -12.028100 -16.785500
C -23.973500 -13.285700 -18.201600
N -23.447000 -14.709200 -19.768400
N -22.650300 -13.286300 -18.318600
N -22.366600 -14.183300 -19.300000
12
Fragment
O -27.663100 -14.034100 -14.912600
H -26.753100 -12.316200 -13.498800
C -26.659200 -14.610200 -14.470900
H -26.496100 -15.498200 -14.766000
H -25.960600 -12.698100 -12.161400
C -25.927700 -12.704900 -13.141000
N -25.792700 -14.078100 -13.613600
H -25.159300 -12.178000 -13.445000
H -24.683700 -15.745600 -13.482400
C -24.638600 -14.828000 -13.142400
H -24.636800 -14.842900 -12.162600
H -23.817300 -14.400300 -13.463700
34
Fragment
N -32.098500 -10.301000 -14.681800
N -31.813400 -11.109900 -15.744500
N -31.014500 -9.894000 -14.119400
C -30.491900 -11.179700 -15.794100
H -30.375800 -12.413800 -17.280400
N -29.974700 -10.435600 -14.811500
N -29.840500 -11.914100 -16.741200
H -29.090300 -10.294200 -14.501500
C -28.481200 -12.022500 -16.895700
N -28.084200 -12.881100 -17.853200
N -27.681400 -11.245400 -16.149100
N -26.781100 -13.040200 -18.004600
N -26.378000 -11.406600 -16.302300
C -25.984100 -12.330700 -17.198500
H -25.361500 -14.450200 -19.283500
N -24.628900 -12.504600 -17.298500
N -24.487900 -14.156600 -19.081300
H -24.110300 -12.028100 -16.785500
C -23.973500 -13.285700 -18.201600
N -23.447000 -14.709200 -19.768400
N -22.650300 -13.286300 -18.318600
N -22.366600 -14.183300 -19.300000
O -27.663100 -14.034100 -14.912600
H -26.753100 -12.316200 -13.498800
C -26.659200 -14.610200 -14.470900
H -26.496100 -15.498200 -14.766000
H -25.960600 -12.698100 -12.161400
C -25.927700 -12.704900 -13.141000
N -25.792700 -14.078100 -13.613600
H -25.159300 -12.178000 -13.445000
H -24.683700 -15.745600 -13.482400
C -24.638600 -14.828000 -13.142400
H -24.636800 -14.842900 -12.162600
H -23.817300 -14.400300 -13.463700
