22
Fragment
N -32.098500 -10.301000 -14.681800
N -31.813400 -11.109900 -15.744500
N -31.014500 -9.894000 -14.119400
C -30.491900 -11.179700 -15.794100
H -30.375800 -12.413800 -17.280400
N -29.974700 -10.435600 -14.811500
N -29.840500 -11.914100 -16.741200
H -29.090300 -10.294200 -14.501500
C -28.481200 -12.022500 -16.895700
N -28.084200 -12.881100 -17.853200
N -27.681400 -11.245400 -16.149100
N -26.781100 -13.040200 -18.004600
N -26.378000 -11.406600 -16.302300
C -25.984100 -12.330700 -17.198500
H -25.361500 -14.450200 -19.283500
N -24.628900 -12.504600 -17.298500
N -24.487900 -14.156600 -19.081300
H -24.110300 -12.028100 -16.785500
C -23.973500 -13.285700 -18.201600
N -23.447000 -14.709200 -19.768400
N -22.650300 -13.286300 -18.318600
N -22.366600 -14.183300 -19.300000
22
Fragment
N -41.218400 -10.301000 -14.681800
N -40.933300 -11.109900 -15.744500
N -40.134400 -9.894000 -14.119400
C -39.611800 -11.179700 -15.794100
H -39.495700 -12.413800 -17.280400
N -39.094600 -10.435600 -14.811500
N -38.960400 -11.914100 -16.741200
H -38.210200 -10.294200 -14.501500
C -37.601100 -12.022500 -16.895700
N -37.204100 -12.881100 -17.853200
N -36.801300 -11.245400 -16.149100
N -35.901000 -13.040200 -18.004600
N -35.497900 -11.406600 -16.302300
C -35.104000 -12.330700 -17.198500
H -34.481400 -14.450200 -19.283500
N -33.748800 -12.504600 -17.298500
N -33.607800 -14.156600 -19.081300
H -33.230200 -12.028100 -16.785500
C -33.093400 -13.285700 -18.201600
N -32.566900 -14.709200 -19.768400
N -31.770200 -13.286300 -18.318600
N -31.486500 -14.183300 -19.300000
44
Fragment
N -32.098500 -10.301000 -14.681800
N -31.813400 -11.109900 -15.744500
N -31.014500 -9.894000 -14.119400
C -30.491900 -11.179700 -15.794100
H -30.375800 -12.413800 -17.280400
N -29.974700 -10.435600 -14.811500
N -29.840500 -11.914100 -16.741200
H -29.090300 -10.294200 -14.501500
C -28.481200 -12.022500 -16.895700
N -28.084200 -12.881100 -17.853200
N -27.681400 -11.245400 -16.149100
N -26.781100 -13.040200 -18.004600
N -26.378000 -11.406600 -16.302300
C -25.984100 -12.330700 -17.198500
H -25.361500 -14.450200 -19.283500
N -24.628900 -12.504600 -17.298500
N -24.487900 -14.156600 -19.081300
H -24.110300 -12.028100 -16.785500
C -23.973500 -13.285700 -18.201600
N -23.447000 -14.709200 -19.768400
N -22.650300 -13.286300 -18.318600
N -22.366600 -14.183300 -19.300000
N -41.218400 -10.301000 -14.681800
N -40.933300 -11.109900 -15.744500
N -40.134400 -9.894000 -14.119400
C -39.611800 -11.179700 -15.794100
H -39.495700 -12.413800 -17.280400
N -39.094600 -10.435600 -14.811500
N -38.960400 -11.914100 -16.741200
H -38.210200 -10.294200 -14.501500
C -37.601100 -12.022500 -16.895700
N -37.204100 -12.881100 -17.853200
N -36.801300 -11.245400 -16.149100
N -35.901000 -13.040200 -18.004600
N -35.497900 -11.406600 -16.302300
C -35.104000 -12.330700 -17.198500
H -34.481400 -14.450200 -19.283500
N -33.748800 -12.504600 -17.298500
N -33.607800 -14.156600 -19.081300
H -33.230200 -12.028100 -16.785500
C -33.093400 -13.285700 -18.201600
N -32.566900 -14.709200 -19.768400
N -31.770200 -13.286300 -18.318600
N -31.486500 -14.183300 -19.300000
