22
Fragment
N -14.036700 -10.594600 -8.755700
N -13.843300 -10.444500 -10.025400
N -12.991800 -11.255200 -8.184300
N -12.651400 -11.012300 -10.310000
H -12.372600 -10.967900 -11.190500
C -12.145400 -11.513100 -9.180100
N -10.972000 -12.174000 -8.974100
H -10.766800 -12.479200 -8.185700
N -10.277700 -12.126100 -11.204200
C -10.069100 -12.537600 -9.942500
N -9.380400 -12.496800 -12.107800
N -9.040000 -13.276000 -9.509400
C -8.351300 -13.235300 -11.674800
N -8.142700 -13.646700 -10.413000
H -7.653600 -13.293600 -13.431500
N -7.448400 -13.598800 -12.643200
C -6.275000 -14.259800 -12.437100
H -6.047800 -14.804900 -10.426700
N -5.769000 -14.760600 -11.307300
N -5.428600 -14.517600 -13.433000
N -4.577100 -15.328300 -11.591900
N -4.383700 -15.178200 -12.861600
10
Fragment
H -8.233500 -9.155200 -14.984900
H -7.869000 -9.838600 -12.802600
C -7.430400 -9.614500 -14.768900
C -7.206400 -10.022100 -13.458200
N -6.530300 -9.860400 -15.734500
N -6.096600 -10.661800 -13.088500
C -5.420500 -10.500000 -15.364800
C -5.196500 -10.907700 -14.054100
H -4.757900 -10.683600 -16.020400
H -4.393500 -11.366900 -13.838200
32
Fragment
N -14.036700 -10.594600 -8.755700
N -13.843300 -10.444500 -10.025400
N -12.991800 -11.255200 -8.184300
N -12.651400 -11.012300 -10.310000
H -12.372600 -10.967900 -11.190500
C -12.145400 -11.513100 -9.180100
N -10.972000 -12.174000 -8.974100
H -10.766800 -12.479200 -8.185700
N -10.277700 -12.126100 -11.204200
C -10.069100 -12.537600 -9.942500
N -9.380400 -12.496800 -12.107800
N -9.040000 -13.276000 -9.509400
C -8.351300 -13.235300 -11.674800
N -8.142700 -13.646700 -10.413000
H -7.653600 -13.293600 -13.431500
N -7.448400 -13.598800 -12.643200
C -6.275000 -14.259800 -12.437100
H -6.047800 -14.804900 -10.426700
N -5.769000 -14.760600 -11.307300
N -5.428600 -14.517600 -13.433000
N -4.577100 -15.328300 -11.591900
N -4.383700 -15.178200 -12.861600
H -8.233500 -9.155200 -14.984900
H -7.869000 -9.838600 -12.802600
C -7.430400 -9.614500 -14.768900
C -7.206400 -10.022100 -13.458200
N -6.530300 -9.860400 -15.734500
N -6.096600 -10.661800 -13.088500
C -5.420500 -10.500000 -15.364800
C -5.196500 -10.907700 -14.054100
H -4.757900 -10.683600 -16.020400
H -4.393500 -11.366900 -13.838200
