6
Fragment
N -21.750600 -11.509900 -24.627200
C -21.106900 -12.005200 -25.415800
H -21.021500 -13.288300 -26.852000
C -20.286800 -12.648800 -26.415300
H -20.141900 -12.202500 -27.046100
H -19.640500 -13.076500 -26.059400
28
Fragment
O -31.071200 -9.588500 -26.069300
N -30.864100 -9.662000 -24.691700
N -29.891400 -9.675300 -26.787500
C -29.566200 -9.801700 -24.574000
C -28.968800 -9.814300 -25.873900
N -28.876100 -9.920200 -23.396200
N -27.622300 -9.955300 -26.109900
C -27.586500 -10.048000 -23.625300
C -26.995400 -10.067200 -24.989500
N -26.587500 -10.337400 -20.188400
C -26.554400 -10.269800 -21.323600
C -26.501900 -10.197000 -22.737500
N -25.637000 -10.225500 -24.848600
H -25.327000 -12.229000 -26.420100
C -25.319800 -10.310200 -23.507000
C -24.706100 -10.318200 -25.942100
C -24.660900 -11.494700 -26.668900
N -24.089900 -10.465800 -23.107100
H -23.986200 -8.488100 -25.740800
H -23.918500 -10.494300 -22.258100
C -23.908700 -9.243600 -26.253900
C -23.800500 -11.586800 -27.732800
H -23.749000 -12.401100 -28.340200
H -23.422200 -10.626700 -23.730100
C -23.040800 -9.368700 -27.340200
C -23.004700 -10.542600 -28.071200
H -22.522800 -8.627200 -27.539500
H -22.409400 -10.600200 -28.891800
34
Fragment
N -21.750600 -11.509900 -24.627200
C -21.106900 -12.005200 -25.415800
H -21.021500 -13.288300 -26.852000
C -20.286800 -12.648800 -26.415300
H -20.141900 -12.202500 -27.046100
H -19.640500 -13.076500 -26.059400
O -31.071200 -9.588500 -26.069300
N -30.864100 -9.662000 -24.691700
N -29.891400 -9.675300 -26.787500
C -29.566200 -9.801700 -24.574000
C -28.968800 -9.814300 -25.873900
N -28.876100 -9.920200 -23.396200
N -27.622300 -9.955300 -26.109900
C -27.586500 -10.048000 -23.625300
C -26.995400 -10.067200 -24.989500
N -26.587500 -10.337400 -20.188400
C -26.554400 -10.269800 -21.323600
C -26.501900 -10.197000 -22.737500
N -25.637000 -10.225500 -24.848600
H -25.327000 -12.229000 -26.420100
C -25.319800 -10.310200 -23.507000
C -24.706100 -10.318200 -25.942100
C -24.660900 -11.494700 -26.668900
N -24.089900 -10.465800 -23.107100
H -23.986200 -8.488100 -25.740800
H -23.918500 -10.494300 -22.258100
C -23.908700 -9.243600 -26.253900
C -23.800500 -11.586800 -27.732800
H -23.749000 -12.401100 -28.340200
H -23.422200 -10.626700 -23.730100
C -23.040800 -9.368700 -27.340200
C -23.004700 -10.542600 -28.071200
H -22.522800 -8.627200 -27.539500
H -22.409400 -10.600200 -28.891800
