6
Fragment
N -21.750600 -11.509900 -24.627200
C -21.106900 -12.005200 -25.415800
H -21.021500 -13.288300 -26.852000
C -20.286800 -12.648800 -26.415300
H -20.141900 -12.202500 -27.046100
H -19.640500 -13.076500 -26.059400
28
Fragment
O -24.005700 -10.274500 -34.157200
N -23.798600 -10.201000 -32.779700
N -22.825800 -10.187700 -34.875500
C -22.500600 -10.061300 -32.661900
C -21.903300 -10.048700 -33.961800
N -21.810600 -9.942800 -31.484200
N -20.556800 -9.907700 -34.197900
C -20.520900 -9.815000 -31.713200
C -19.929900 -9.795800 -33.077500
N -19.522000 -9.525600 -28.276300
C -19.488800 -9.593200 -29.411600
C -19.436300 -9.666000 -30.825500
N -18.571400 -9.637500 -32.936600
H -18.261400 -7.634000 -34.508100
C -18.254300 -9.552800 -31.595000
C -17.640600 -9.544800 -34.030100
C -17.595300 -8.368300 -34.756900
N -17.024400 -9.397200 -31.195100
H -16.920700 -11.374900 -33.828700
H -16.853000 -9.368700 -30.346000
C -16.843100 -10.619400 -34.341800
C -16.735000 -8.276300 -35.820800
H -16.683500 -7.461900 -36.428200
H -16.356700 -9.236300 -31.818000
C -15.975300 -10.494300 -35.428200
C -15.939200 -9.320400 -36.159200
H -15.457300 -11.235800 -35.627500
H -15.343900 -9.262800 -36.979800
34
Fragment
N -21.750600 -11.509900 -24.627200
C -21.106900 -12.005200 -25.415800
H -21.021500 -13.288300 -26.852000
C -20.286800 -12.648800 -26.415300
H -20.141900 -12.202500 -27.046100
H -19.640500 -13.076500 -26.059400
O -24.005700 -10.274500 -34.157200
N -23.798600 -10.201000 -32.779700
N -22.825800 -10.187700 -34.875500
C -22.500600 -10.061300 -32.661900
C -21.903300 -10.048700 -33.961800
N -21.810600 -9.942800 -31.484200
N -20.556800 -9.907700 -34.197900
C -20.520900 -9.815000 -31.713200
C -19.929900 -9.795800 -33.077500
N -19.522000 -9.525600 -28.276300
C -19.488800 -9.593200 -29.411600
C -19.436300 -9.666000 -30.825500
N -18.571400 -9.637500 -32.936600
H -18.261400 -7.634000 -34.508100
C -18.254300 -9.552800 -31.595000
C -17.640600 -9.544800 -34.030100
C -17.595300 -8.368300 -34.756900
N -17.024400 -9.397200 -31.195100
H -16.920700 -11.374900 -33.828700
H -16.853000 -9.368700 -30.346000
C -16.843100 -10.619400 -34.341800
C -16.735000 -8.276300 -35.820800
H -16.683500 -7.461900 -36.428200
H -16.356700 -9.236300 -31.818000
C -15.975300 -10.494300 -35.428200
C -15.939200 -9.320400 -36.159200
H -15.457300 -11.235800 -35.627500
H -15.343900 -9.262800 -36.979800
