6
Fragment
N -21.750600 -11.509900 -24.627200
C -21.106900 -12.005200 -25.415800
H -21.021500 -13.288300 -26.852000
C -20.286800 -12.648800 -26.415300
H -20.141900 -12.202500 -27.046100
H -19.640500 -13.076500 -26.059400
28
Fragment
H -20.406400 -9.262800 -19.636000
H -20.293000 -11.235800 -20.988300
C -19.811100 -9.320400 -20.456600
C -19.775000 -10.494300 -21.187600
H -19.393600 -9.236300 -24.797700
H -19.066800 -7.461900 -20.187600
C -19.015300 -8.276300 -20.795000
C -18.907200 -10.619400 -22.273900
H -18.897300 -9.368700 -26.269700
H -18.829600 -11.374900 -22.787000
N -18.725900 -9.397200 -25.420600
C -18.155000 -8.368300 -21.858900
C -18.109700 -9.544800 -22.585600
C -17.496000 -9.552800 -25.020800
H -17.488800 -7.634000 -22.107600
N -17.178900 -9.637500 -23.679100
C -16.313900 -9.666000 -25.790300
C -16.261500 -9.593200 -27.204200
N -16.228300 -9.525600 -28.339400
C -15.820400 -9.795800 -23.538200
C -15.229300 -9.815000 -24.902500
N -15.193500 -9.907700 -22.417900
N -13.939700 -9.942800 -25.131600
C -13.847000 -10.048700 -22.653900
C -13.249600 -10.061300 -23.953800
N -12.924400 -10.187700 -21.740300
N -11.951700 -10.201000 -23.836000
O -11.744600 -10.274500 -22.458500
34
Fragment
N -21.750600 -11.509900 -24.627200
C -21.106900 -12.005200 -25.415800
H -21.021500 -13.288300 -26.852000
C -20.286800 -12.648800 -26.415300
H -20.141900 -12.202500 -27.046100
H -19.640500 -13.076500 -26.059400
H -20.406400 -9.262800 -19.636000
H -20.293000 -11.235800 -20.988300
C -19.811100 -9.320400 -20.456600
C -19.775000 -10.494300 -21.187600
H -19.393600 -9.236300 -24.797700
H -19.066800 -7.461900 -20.187600
C -19.015300 -8.276300 -20.795000
C -18.907200 -10.619400 -22.273900
H -18.897300 -9.368700 -26.269700
H -18.829600 -11.374900 -22.787000
N -18.725900 -9.397200 -25.420600
C -18.155000 -8.368300 -21.858900
C -18.109700 -9.544800 -22.585600
C -17.496000 -9.552800 -25.020800
H -17.488800 -7.634000 -22.107600
N -17.178900 -9.637500 -23.679100
C -16.313900 -9.666000 -25.790300
C -16.261500 -9.593200 -27.204200
N -16.228300 -9.525600 -28.339400
C -15.820400 -9.795800 -23.538200
C -15.229300 -9.815000 -24.902500
N -15.193500 -9.907700 -22.417900
N -13.939700 -9.942800 -25.131600
C -13.847000 -10.048700 -22.653900
C -13.249600 -10.061300 -23.953800
N -12.924400 -10.187700 -21.740300
N -11.951700 -10.201000 -23.836000
O -11.744600 -10.274500 -22.458500
