6
Fragment
N -21.750600 -11.509900 -24.627200
C -21.106900 -12.005200 -25.415800
H -21.021500 -13.288300 -26.852000
C -20.286800 -12.648800 -26.415300
H -20.141900 -12.202500 -27.046100
H -19.640500 -13.076500 -26.059400
28
Fragment
H -20.406400 -15.883800 -19.636000
H -20.293000 -17.856800 -20.988300
C -19.811100 -15.941400 -20.456600
C -19.775000 -17.115300 -21.187600
H -19.393600 -15.857300 -24.797700
H -19.066800 -14.082900 -20.187600
C -19.015300 -14.897200 -20.795000
C -18.907200 -17.240400 -22.273900
H -18.897300 -15.989700 -26.269700
H -18.829600 -17.995900 -22.787000
N -18.725900 -16.018200 -25.420600
C -18.155000 -14.989300 -21.858900
C -18.109700 -16.165800 -22.585600
C -17.496000 -16.173800 -25.020800
H -17.488800 -14.255000 -22.107600
N -17.178900 -16.258500 -23.679100
C -16.313900 -16.287000 -25.790300
C -16.261500 -16.214200 -27.204200
N -16.228300 -16.146600 -28.339400
C -15.820400 -16.416800 -23.538200
C -15.229300 -16.436000 -24.902500
N -15.193500 -16.528700 -22.417900
N -13.939700 -16.563800 -25.131600
C -13.847000 -16.669700 -22.653900
C -13.249600 -16.682300 -23.953800
N -12.924400 -16.808700 -21.740300
N -11.951700 -16.822000 -23.836000
O -11.744600 -16.895500 -22.458500
34
Fragment
N -21.750600 -11.509900 -24.627200
C -21.106900 -12.005200 -25.415800
H -21.021500 -13.288300 -26.852000
C -20.286800 -12.648800 -26.415300
H -20.141900 -12.202500 -27.046100
H -19.640500 -13.076500 -26.059400
H -20.406400 -15.883800 -19.636000
H -20.293000 -17.856800 -20.988300
C -19.811100 -15.941400 -20.456600
C -19.775000 -17.115300 -21.187600
H -19.393600 -15.857300 -24.797700
H -19.066800 -14.082900 -20.187600
C -19.015300 -14.897200 -20.795000
C -18.907200 -17.240400 -22.273900
H -18.897300 -15.989700 -26.269700
H -18.829600 -17.995900 -22.787000
N -18.725900 -16.018200 -25.420600
C -18.155000 -14.989300 -21.858900
C -18.109700 -16.165800 -22.585600
C -17.496000 -16.173800 -25.020800
H -17.488800 -14.255000 -22.107600
N -17.178900 -16.258500 -23.679100
C -16.313900 -16.287000 -25.790300
C -16.261500 -16.214200 -27.204200
N -16.228300 -16.146600 -28.339400
C -15.820400 -16.416800 -23.538200
C -15.229300 -16.436000 -24.902500
N -15.193500 -16.528700 -22.417900
N -13.939700 -16.563800 -25.131600
C -13.847000 -16.669700 -22.653900
C -13.249600 -16.682300 -23.953800
N -12.924400 -16.808700 -21.740300
N -11.951700 -16.822000 -23.836000
O -11.744600 -16.895500 -22.458500
