28
Fragment
H -10.833500 -23.716700 -14.658600
O -10.099300 -24.271300 -14.426200
O -9.453100 -23.937600 -16.526600
C -9.294100 -24.445600 -15.427300
H -8.586400 -25.769600 -13.202200
C -8.114600 -25.311800 -15.122100
C -7.942400 -25.909900 -13.886100
H -7.254600 -25.099500 -16.941100
C -7.158100 -25.514400 -16.091700
C -6.841100 -26.710300 -13.635800
H -6.741100 -27.111900 -12.780700
C -6.059800 -26.314800 -15.842700
C -5.880200 -26.937100 -14.610900
H -5.413100 -26.443800 -16.526800
H -5.165400 -28.291200 -12.423700
C -4.698300 -27.797900 -14.339700
C -4.518800 -28.420200 -13.107800
H -3.837500 -27.623100 -16.169800
C -3.737400 -28.024700 -15.314700
C -3.420400 -29.220600 -12.858900
H -3.324000 -29.635500 -12.009500
C -2.636200 -28.825100 -15.064400
C -2.463900 -29.423200 -13.828400
H -1.992100 -28.965400 -15.748300
C -1.284500 -30.289400 -13.523300
O -1.125400 -30.797400 -12.423900
O -0.479200 -30.463700 -14.524400
H 0.254900 -31.018300 -14.291900
32
Fragment
H -4.019200 -31.315400 -7.128000
N -3.483500 -31.828400 -9.066700
C -3.370300 -31.259300 -7.819400
C -2.381500 -31.522100 -9.719500
H -2.193300 -28.498300 -9.979100
H -2.191300 -31.785000 -10.612400
C -2.182900 -30.604300 -7.733200
H -2.101100 -26.189100 -10.257000
H -1.849700 -30.120100 -6.986700
N -1.561000 -30.785200 -8.947600
C -1.371100 -28.042200 -9.843200
C -1.316400 -26.663800 -10.009200
H -0.796300 -24.204900 -10.631900
H -0.384100 -24.065900 -9.092400
C -0.257700 -30.263300 -9.343500
C -0.246500 -28.758300 -9.482400
C -0.134500 -25.976700 -9.818000
C -0.123200 -24.471700 -9.956900
H 0.003200 -30.669100 -10.208000
H 0.415300 -30.530100 -8.668500
C 0.935400 -28.071200 -9.291200
C 0.990200 -26.692800 -9.457200
N 1.180000 -23.949800 -10.352800
H 1.468800 -24.614900 -12.313600
H 1.720100 -28.545900 -9.043400
C 1.802000 -24.130700 -11.567200
H 1.810400 -22.950000 -8.688000
H 1.812400 -26.236700 -9.321300
C 2.000500 -23.212900 -9.580900
C 2.989400 -23.475700 -11.480900
N 3.102500 -22.906600 -10.233600
H 3.638300 -23.419600 -12.172400
60
Fragment
H -10.833500 -23.716700 -14.658600
O -10.099300 -24.271300 -14.426200
O -9.453100 -23.937600 -16.526600
C -9.294100 -24.445600 -15.427300
H -8.586400 -25.769600 -13.202200
C -8.114600 -25.311800 -15.122100
C -7.942400 -25.909900 -13.886100
H -7.254600 -25.099500 -16.941100
C -7.158100 -25.514400 -16.091700
C -6.841100 -26.710300 -13.635800
H -6.741100 -27.111900 -12.780700
C -6.059800 -26.314800 -15.842700
C -5.880200 -26.937100 -14.610900
H -5.413100 -26.443800 -16.526800
H -5.165400 -28.291200 -12.423700
C -4.698300 -27.797900 -14.339700
C -4.518800 -28.420200 -13.107800
H -3.837500 -27.623100 -16.169800
C -3.737400 -28.024700 -15.314700
C -3.420400 -29.220600 -12.858900
H -3.324000 -29.635500 -12.009500
C -2.636200 -28.825100 -15.064400
C -2.463900 -29.423200 -13.828400
H -1.992100 -28.965400 -15.748300
C -1.284500 -30.289400 -13.523300
O -1.125400 -30.797400 -12.423900
O -0.479200 -30.463700 -14.524400
H 0.254900 -31.018300 -14.291900
H -4.019200 -31.315400 -7.128000
N -3.483500 -31.828400 -9.066700
C -3.370300 -31.259300 -7.819400
C -2.381500 -31.522100 -9.719500
H -2.193300 -28.498300 -9.979100
H -2.191300 -31.785000 -10.612400
C -2.182900 -30.604300 -7.733200
H -2.101100 -26.189100 -10.257000
H -1.849700 -30.120100 -6.986700
N -1.561000 -30.785200 -8.947600
C -1.371100 -28.042200 -9.843200
C -1.316400 -26.663800 -10.009200
H -0.796300 -24.204900 -10.631900
H -0.384100 -24.065900 -9.092400
C -0.257700 -30.263300 -9.343500
C -0.246500 -28.758300 -9.482400
C -0.134500 -25.976700 -9.818000
C -0.123200 -24.471700 -9.956900
H 0.003200 -30.669100 -10.208000
H 0.415300 -30.530100 -8.668500
C 0.935400 -28.071200 -9.291200
C 0.990200 -26.692800 -9.457200
N 1.180000 -23.949800 -10.352800
H 1.468800 -24.614900 -12.313600
H 1.720100 -28.545900 -9.043400
C 1.802000 -24.130700 -11.567200
H 1.810400 -22.950000 -8.688000
H 1.812400 -26.236700 -9.321300
C 2.000500 -23.212900 -9.580900
C 2.989400 -23.475700 -11.480900
N 3.102500 -22.906600 -10.233600
H 3.638300 -23.419600 -12.172400
