28
Fragment
H -10.833500 -23.716700 -14.658600
O -10.099300 -24.271300 -14.426200
O -9.453100 -23.937600 -16.526600
C -9.294100 -24.445600 -15.427300
H -8.586400 -25.769600 -13.202200
C -8.114600 -25.311800 -15.122100
C -7.942400 -25.909900 -13.886100
H -7.254600 -25.099500 -16.941100
C -7.158100 -25.514400 -16.091700
C -6.841100 -26.710300 -13.635800
H -6.741100 -27.111900 -12.780700
C -6.059800 -26.314800 -15.842700
C -5.880200 -26.937100 -14.610900
H -5.413100 -26.443800 -16.526800
H -5.165400 -28.291200 -12.423700
C -4.698300 -27.797900 -14.339700
C -4.518800 -28.420200 -13.107800
H -3.837500 -27.623100 -16.169800
C -3.737400 -28.024700 -15.314700
C -3.420400 -29.220600 -12.858900
H -3.324000 -29.635500 -12.009500
C -2.636200 -28.825100 -15.064400
C -2.463900 -29.423200 -13.828400
H -1.992100 -28.965400 -15.748300
C -1.284500 -30.289400 -13.523300
O -1.125400 -30.797400 -12.423900
O -0.479200 -30.463700 -14.524400
H 0.254900 -31.018300 -14.291900
28
Fragment
H -4.162100 -23.716700 -14.658600
O -3.427900 -24.271300 -14.426200
O -2.781700 -23.937600 -16.526600
C -2.622700 -24.445600 -15.427300
H -1.915000 -25.769600 -13.202200
C -1.443200 -25.311800 -15.122100
C -1.271000 -25.909900 -13.886100
H -0.583200 -25.099500 -16.941100
C -0.486700 -25.514400 -16.091700
C -0.169700 -26.710300 -13.635800
H -0.069700 -27.111900 -12.780700
C 0.611600 -26.314800 -15.842700
C 0.791200 -26.937100 -14.610900
H 1.258300 -26.443800 -16.526800
H 1.506000 -28.291200 -12.423700
C 1.973100 -27.797900 -14.339700
C 2.152600 -28.420200 -13.107800
H 2.833900 -27.623100 -16.169800
C 2.934000 -28.024700 -15.314700
C 3.251000 -29.220600 -12.858900
H 3.347400 -29.635500 -12.009500
C 4.035200 -28.825100 -15.064400
C 4.207500 -29.423200 -13.828400
H 4.679300 -28.965400 -15.748300
C 5.386900 -30.289400 -13.523300
O 5.546000 -30.797400 -12.423900
O 6.192200 -30.463700 -14.524400
H 6.926300 -31.018300 -14.291900
56
Fragment
H -10.833500 -23.716700 -14.658600
O -10.099300 -24.271300 -14.426200
O -9.453100 -23.937600 -16.526600
C -9.294100 -24.445600 -15.427300
H -8.586400 -25.769600 -13.202200
C -8.114600 -25.311800 -15.122100
C -7.942400 -25.909900 -13.886100
H -7.254600 -25.099500 -16.941100
C -7.158100 -25.514400 -16.091700
C -6.841100 -26.710300 -13.635800
H -6.741100 -27.111900 -12.780700
C -6.059800 -26.314800 -15.842700
C -5.880200 -26.937100 -14.610900
H -5.413100 -26.443800 -16.526800
H -5.165400 -28.291200 -12.423700
C -4.698300 -27.797900 -14.339700
C -4.518800 -28.420200 -13.107800
H -3.837500 -27.623100 -16.169800
C -3.737400 -28.024700 -15.314700
C -3.420400 -29.220600 -12.858900
H -3.324000 -29.635500 -12.009500
C -2.636200 -28.825100 -15.064400
C -2.463900 -29.423200 -13.828400
H -1.992100 -28.965400 -15.748300
C -1.284500 -30.289400 -13.523300
O -1.125400 -30.797400 -12.423900
O -0.479200 -30.463700 -14.524400
H 0.254900 -31.018300 -14.291900
H -4.162100 -23.716700 -14.658600
O -3.427900 -24.271300 -14.426200
O -2.781700 -23.937600 -16.526600
C -2.622700 -24.445600 -15.427300
H -1.915000 -25.769600 -13.202200
C -1.443200 -25.311800 -15.122100
C -1.271000 -25.909900 -13.886100
H -0.583200 -25.099500 -16.941100
C -0.486700 -25.514400 -16.091700
C -0.169700 -26.710300 -13.635800
H -0.069700 -27.111900 -12.780700
C 0.611600 -26.314800 -15.842700
C 0.791200 -26.937100 -14.610900
H 1.258300 -26.443800 -16.526800
H 1.506000 -28.291200 -12.423700
C 1.973100 -27.797900 -14.339700
C 2.152600 -28.420200 -13.107800
H 2.833900 -27.623100 -16.169800
C 2.934000 -28.024700 -15.314700
C 3.251000 -29.220600 -12.858900
H 3.347400 -29.635500 -12.009500
C 4.035200 -28.825100 -15.064400
C 4.207500 -29.423200 -13.828400
H 4.679300 -28.965400 -15.748300
C 5.386900 -30.289400 -13.523300
O 5.546000 -30.797400 -12.423900
O 6.192200 -30.463700 -14.524400
H 6.926300 -31.018300 -14.291900
