8
Fragment
H -26.926400 -7.028500 -22.664100
N -26.593900 -8.701900 -21.612300
C -26.322600 -7.701200 -22.442600
N -25.528900 -9.505300 -21.583600
H -25.432800 -10.232100 -21.154900
N -25.097100 -7.779500 -22.909500
C -24.674000 -8.917500 -22.366100
H -23.830000 -9.269100 -22.533400
20
Fragment
H -25.691900 -5.993700 -19.410000
O -25.181400 -5.892400 -20.082500
H -24.319000 -7.969200 -18.903200
C -23.881200 -6.162700 -19.715900
C -23.624000 -7.373100 -19.062600
H -23.052300 -4.495200 -20.412300
C -22.869300 -5.293900 -19.972500
C -22.371900 -7.681100 -18.664200
H -22.218600 -8.484000 -18.221100
C -21.556800 -5.580200 -19.585300
C -21.300400 -6.810600 -18.908000
H -20.619000 -3.899800 -20.256200
C -20.476400 -4.697900 -19.802000
C -19.995300 -7.078000 -18.465000
H -19.824000 -7.876700 -18.018800
C -19.232400 -5.000600 -19.354200
C -18.963100 -6.195700 -18.668900
O -18.207500 -4.090600 -19.593200
H -18.107300 -6.385300 -18.361400
H -17.470100 -4.416900 -19.325500
28
Fragment
H -26.926400 -7.028500 -22.664100
N -26.593900 -8.701900 -21.612300
C -26.322600 -7.701200 -22.442600
N -25.528900 -9.505300 -21.583600
H -25.432800 -10.232100 -21.154900
N -25.097100 -7.779500 -22.909500
C -24.674000 -8.917500 -22.366100
H -23.830000 -9.269100 -22.533400
H -25.691900 -5.993700 -19.410000
O -25.181400 -5.892400 -20.082500
H -24.319000 -7.969200 -18.903200
C -23.881200 -6.162700 -19.715900
C -23.624000 -7.373100 -19.062600
H -23.052300 -4.495200 -20.412300
C -22.869300 -5.293900 -19.972500
C -22.371900 -7.681100 -18.664200
H -22.218600 -8.484000 -18.221100
C -21.556800 -5.580200 -19.585300
C -21.300400 -6.810600 -18.908000
H -20.619000 -3.899800 -20.256200
C -20.476400 -4.697900 -19.802000
C -19.995300 -7.078000 -18.465000
H -19.824000 -7.876700 -18.018800
C -19.232400 -5.000600 -19.354200
C -18.963100 -6.195700 -18.668900
O -18.207500 -4.090600 -19.593200
H -18.107300 -6.385300 -18.361400
H -17.470100 -4.416900 -19.325500
