8
Fragment
H -26.926400 -7.028500 -22.664100
N -26.593900 -8.701900 -21.612300
C -26.322600 -7.701200 -22.442600
N -25.528900 -9.505300 -21.583600
H -25.432800 -10.232100 -21.154900
N -25.097100 -7.779500 -22.909500
C -24.674000 -8.917500 -22.366100
H -23.830000 -9.269100 -22.533400
20
Fragment
H -35.677000 -5.995400 -25.350900
O -34.945400 -3.873900 -26.490300
C -34.763900 -5.878200 -25.229800
H -34.493300 -7.555700 -24.209900
H -34.460400 -3.383200 -26.989100
C -34.143100 -4.729700 -25.773200
C -34.067200 -6.803000 -24.544500
C -32.817400 -4.531200 -25.580400
C -32.682100 -6.613300 -24.337400
H -32.413100 -3.769600 -25.929300
H -32.300100 -8.326700 -23.314300
C -32.041300 -5.460600 -24.856900
C -31.896300 -7.554500 -23.641000
C -30.667200 -5.282700 -24.636900
C -30.563200 -7.364900 -23.433800
H -30.240100 -4.530000 -24.976400
H -30.063700 -7.996900 -22.968500
C -29.954000 -6.198000 -23.931000
O -28.627900 -6.053200 -23.639400
H -28.293300 -5.446500 -24.133400
28
Fragment
H -26.926400 -7.028500 -22.664100
N -26.593900 -8.701900 -21.612300
C -26.322600 -7.701200 -22.442600
N -25.528900 -9.505300 -21.583600
H -25.432800 -10.232100 -21.154900
N -25.097100 -7.779500 -22.909500
C -24.674000 -8.917500 -22.366100
H -23.830000 -9.269100 -22.533400
H -35.677000 -5.995400 -25.350900
O -34.945400 -3.873900 -26.490300
C -34.763900 -5.878200 -25.229800
H -34.493300 -7.555700 -24.209900
H -34.460400 -3.383200 -26.989100
C -34.143100 -4.729700 -25.773200
C -34.067200 -6.803000 -24.544500
C -32.817400 -4.531200 -25.580400
C -32.682100 -6.613300 -24.337400
H -32.413100 -3.769600 -25.929300
H -32.300100 -8.326700 -23.314300
C -32.041300 -5.460600 -24.856900
C -31.896300 -7.554500 -23.641000
C -30.667200 -5.282700 -24.636900
C -30.563200 -7.364900 -23.433800
H -30.240100 -4.530000 -24.976400
H -30.063700 -7.996900 -22.968500
C -29.954000 -6.198000 -23.931000
O -28.627900 -6.053200 -23.639400
H -28.293300 -5.446500 -24.133400
