8
Fragment
H -26.926400 -7.028500 -22.664100
N -26.593900 -8.701900 -21.612300
C -26.322600 -7.701200 -22.442600
N -25.528900 -9.505300 -21.583600
H -25.432800 -10.232100 -21.154900
N -25.097100 -7.779500 -22.909500
C -24.674000 -8.917500 -22.366100
H -23.830000 -9.269100 -22.533400
20
Fragment
H -25.691900 -11.883700 -19.410000
O -25.181400 -11.782400 -20.082500
H -24.319000 -13.859200 -18.903200
C -23.881200 -12.052700 -19.715900
C -23.624000 -13.263100 -19.062600
H -23.052300 -10.385200 -20.412300
C -22.869300 -11.183900 -19.972500
C -22.371900 -13.571100 -18.664200
H -22.218600 -14.374000 -18.221100
C -21.556800 -11.470200 -19.585300
C -21.300400 -12.700600 -18.908000
H -20.619000 -9.789800 -20.256200
C -20.476400 -10.587900 -19.802000
C -19.995300 -12.968000 -18.465000
H -19.824000 -13.766700 -18.018800
C -19.232400 -10.890600 -19.354200
C -18.963100 -12.085700 -18.668900
O -18.207500 -9.980600 -19.593200
H -18.107300 -12.275300 -18.361400
H -17.470100 -10.306900 -19.325500
28
Fragment
H -26.926400 -7.028500 -22.664100
N -26.593900 -8.701900 -21.612300
C -26.322600 -7.701200 -22.442600
N -25.528900 -9.505300 -21.583600
H -25.432800 -10.232100 -21.154900
N -25.097100 -7.779500 -22.909500
C -24.674000 -8.917500 -22.366100
H -23.830000 -9.269100 -22.533400
H -25.691900 -11.883700 -19.410000
O -25.181400 -11.782400 -20.082500
H -24.319000 -13.859200 -18.903200
C -23.881200 -12.052700 -19.715900
C -23.624000 -13.263100 -19.062600
H -23.052300 -10.385200 -20.412300
C -22.869300 -11.183900 -19.972500
C -22.371900 -13.571100 -18.664200
H -22.218600 -14.374000 -18.221100
C -21.556800 -11.470200 -19.585300
C -21.300400 -12.700600 -18.908000
H -20.619000 -9.789800 -20.256200
C -20.476400 -10.587900 -19.802000
C -19.995300 -12.968000 -18.465000
H -19.824000 -13.766700 -18.018800
C -19.232400 -10.890600 -19.354200
C -18.963100 -12.085700 -18.668900
O -18.207500 -9.980600 -19.593200
H -18.107300 -12.275300 -18.361400
H -17.470100 -10.306900 -19.325500
