18
Fragment
H -10.757800 -11.322600 -11.418000
N -10.142500 -10.539100 -11.125600
N -10.082800 -10.651300 -13.887300
N -10.048500 -10.709600 -15.205600
N -10.003600 -10.225800 -9.835000
N -9.835500 -10.671700 -18.093900
N -9.475300 -10.274900 -19.338500
C -9.457100 -9.636100 -11.841200
C -9.397800 -9.662800 -13.296800
C -9.332600 -9.766800 -15.823300
C -9.273200 -9.793500 -17.278900
N -9.255000 -9.154700 -9.781500
N -8.894800 -8.757900 -11.026100
N -8.726700 -9.203800 -19.285000
N -8.681800 -8.720000 -13.914400
N -8.647500 -8.778300 -15.232800
N -8.587800 -8.890500 -17.994400
H -7.972500 -8.107000 -17.702100
18
Fragment
H -10.757800 -6.465200 -11.418000
N -10.142500 -5.681700 -11.125600
N -10.082800 -5.793900 -13.887300
N -10.048500 -5.852200 -15.205600
N -10.003600 -5.368400 -9.835000
N -9.835500 -5.814300 -18.093900
N -9.475300 -5.417500 -19.338500
C -9.457100 -4.778700 -11.841200
C -9.397800 -4.805400 -13.296800
C -9.332600 -4.909400 -15.823300
C -9.273200 -4.936100 -17.278900
N -9.255000 -4.297300 -9.781500
N -8.894800 -3.900500 -11.026100
N -8.726700 -4.346400 -19.285000
N -8.681800 -3.862600 -13.914400
N -8.647500 -3.920900 -15.232800
N -8.587800 -4.033100 -17.994400
H -7.972500 -3.249600 -17.702100
36
Fragment
H -10.757800 -11.322600 -11.418000
N -10.142500 -10.539100 -11.125600
N -10.082800 -10.651300 -13.887300
N -10.048500 -10.709600 -15.205600
N -10.003600 -10.225800 -9.835000
N -9.835500 -10.671700 -18.093900
N -9.475300 -10.274900 -19.338500
C -9.457100 -9.636100 -11.841200
C -9.397800 -9.662800 -13.296800
C -9.332600 -9.766800 -15.823300
C -9.273200 -9.793500 -17.278900
N -9.255000 -9.154700 -9.781500
N -8.894800 -8.757900 -11.026100
N -8.726700 -9.203800 -19.285000
N -8.681800 -8.720000 -13.914400
N -8.647500 -8.778300 -15.232800
N -8.587800 -8.890500 -17.994400
H -7.972500 -8.107000 -17.702100
H -10.757800 -6.465200 -11.418000
N -10.142500 -5.681700 -11.125600
N -10.082800 -5.793900 -13.887300
N -10.048500 -5.852200 -15.205600
N -10.003600 -5.368400 -9.835000
N -9.835500 -5.814300 -18.093900
N -9.475300 -5.417500 -19.338500
C -9.457100 -4.778700 -11.841200
C -9.397800 -4.805400 -13.296800
C -9.332600 -4.909400 -15.823300
C -9.273200 -4.936100 -17.278900
N -9.255000 -4.297300 -9.781500
N -8.894800 -3.900500 -11.026100
N -8.726700 -4.346400 -19.285000
N -8.681800 -3.862600 -13.914400
N -8.647500 -3.920900 -15.232800
N -8.587800 -4.033100 -17.994400
H -7.972500 -3.249600 -17.702100
