18
Fragment
H -10.757800 -11.322600 -11.418000
N -10.142500 -10.539100 -11.125600
N -10.082800 -10.651300 -13.887300
N -10.048500 -10.709600 -15.205600
N -10.003600 -10.225800 -9.835000
N -9.835500 -10.671700 -18.093900
N -9.475300 -10.274900 -19.338500
C -9.457100 -9.636100 -11.841200
C -9.397800 -9.662800 -13.296800
C -9.332600 -9.766800 -15.823300
C -9.273200 -9.793500 -17.278900
N -9.255000 -9.154700 -9.781500
N -8.894800 -8.757900 -11.026100
N -8.726700 -9.203800 -19.285000
N -8.681800 -8.720000 -13.914400
N -8.647500 -8.778300 -15.232800
N -8.587800 -8.890500 -17.994400
H -7.972500 -8.107000 -17.702100
18
Fragment
H -10.757800 -16.180000 -11.418000
N -10.142500 -15.396500 -11.125600
N -10.082800 -15.508700 -13.887300
N -10.048500 -15.567000 -15.205600
N -10.003600 -15.083200 -9.835000
N -9.835500 -15.529100 -18.093900
N -9.475300 -15.132300 -19.338500
C -9.457100 -14.493500 -11.841200
C -9.397800 -14.520200 -13.296800
C -9.332600 -14.624200 -15.823300
C -9.273200 -14.650900 -17.278900
N -9.255000 -14.012100 -9.781500
N -8.894800 -13.615300 -11.026100
N -8.726700 -14.061200 -19.285000
N -8.681800 -13.577400 -13.914400
N -8.647500 -13.635700 -15.232800
N -8.587800 -13.747900 -17.994400
H -7.972500 -12.964400 -17.702100
36
Fragment
H -10.757800 -11.322600 -11.418000
N -10.142500 -10.539100 -11.125600
N -10.082800 -10.651300 -13.887300
N -10.048500 -10.709600 -15.205600
N -10.003600 -10.225800 -9.835000
N -9.835500 -10.671700 -18.093900
N -9.475300 -10.274900 -19.338500
C -9.457100 -9.636100 -11.841200
C -9.397800 -9.662800 -13.296800
C -9.332600 -9.766800 -15.823300
C -9.273200 -9.793500 -17.278900
N -9.255000 -9.154700 -9.781500
N -8.894800 -8.757900 -11.026100
N -8.726700 -9.203800 -19.285000
N -8.681800 -8.720000 -13.914400
N -8.647500 -8.778300 -15.232800
N -8.587800 -8.890500 -17.994400
H -7.972500 -8.107000 -17.702100
H -10.757800 -16.180000 -11.418000
N -10.142500 -15.396500 -11.125600
N -10.082800 -15.508700 -13.887300
N -10.048500 -15.567000 -15.205600
N -10.003600 -15.083200 -9.835000
N -9.835500 -15.529100 -18.093900
N -9.475300 -15.132300 -19.338500
C -9.457100 -14.493500 -11.841200
C -9.397800 -14.520200 -13.296800
C -9.332600 -14.624200 -15.823300
C -9.273200 -14.650900 -17.278900
N -9.255000 -14.012100 -9.781500
N -8.894800 -13.615300 -11.026100
N -8.726700 -14.061200 -19.285000
N -8.681800 -13.577400 -13.914400
N -8.647500 -13.635700 -15.232800
N -8.587800 -13.747900 -17.994400
H -7.972500 -12.964400 -17.702100
