18
Fragment
H -10.757800 -11.322600 -11.418000
N -10.142500 -10.539100 -11.125600
N -10.082800 -10.651300 -13.887300
N -10.048500 -10.709600 -15.205600
N -10.003600 -10.225800 -9.835000
N -9.835500 -10.671700 -18.093900
N -9.475300 -10.274900 -19.338500
C -9.457100 -9.636100 -11.841200
C -9.397800 -9.662800 -13.296800
C -9.332600 -9.766800 -15.823300
C -9.273200 -9.793500 -17.278900
N -9.255000 -9.154700 -9.781500
N -8.894800 -8.757900 -11.026100
N -8.726700 -9.203800 -19.285000
N -8.681800 -8.720000 -13.914400
N -8.647500 -8.778300 -15.232800
N -8.587800 -8.890500 -17.994400
H -7.972500 -8.107000 -17.702100
18
Fragment
H -15.011500 -11.322600 -1.711300
N -14.396200 -10.539100 -1.418900
N -14.336500 -10.651300 -4.180600
N -14.302200 -10.709600 -5.498900
N -14.257300 -10.225800 -0.128300
N -14.089200 -10.671700 -8.387300
N -13.729000 -10.274900 -9.631800
C -13.710800 -9.636100 -2.134500
C -13.651400 -9.662800 -3.590100
C -13.586200 -9.766800 -6.116600
C -13.526800 -9.793500 -7.572200
N -13.508700 -9.154700 -0.074800
N -13.148400 -8.757900 -1.319400
N -12.980300 -9.203800 -9.578400
N -12.935500 -8.720000 -4.207800
N -12.901200 -8.778300 -5.526100
N -12.841400 -8.890500 -8.287800
H -12.226200 -8.107000 -7.995400
36
Fragment
H -10.757800 -11.322600 -11.418000
N -10.142500 -10.539100 -11.125600
N -10.082800 -10.651300 -13.887300
N -10.048500 -10.709600 -15.205600
N -10.003600 -10.225800 -9.835000
N -9.835500 -10.671700 -18.093900
N -9.475300 -10.274900 -19.338500
C -9.457100 -9.636100 -11.841200
C -9.397800 -9.662800 -13.296800
C -9.332600 -9.766800 -15.823300
C -9.273200 -9.793500 -17.278900
N -9.255000 -9.154700 -9.781500
N -8.894800 -8.757900 -11.026100
N -8.726700 -9.203800 -19.285000
N -8.681800 -8.720000 -13.914400
N -8.647500 -8.778300 -15.232800
N -8.587800 -8.890500 -17.994400
H -7.972500 -8.107000 -17.702100
H -15.011500 -11.322600 -1.711300
N -14.396200 -10.539100 -1.418900
N -14.336500 -10.651300 -4.180600
N -14.302200 -10.709600 -5.498900
N -14.257300 -10.225800 -0.128300
N -14.089200 -10.671700 -8.387300
N -13.729000 -10.274900 -9.631800
C -13.710800 -9.636100 -2.134500
C -13.651400 -9.662800 -3.590100
C -13.586200 -9.766800 -6.116600
C -13.526800 -9.793500 -7.572200
N -13.508700 -9.154700 -0.074800
N -13.148400 -8.757900 -1.319400
N -12.980300 -9.203800 -9.578400
N -12.935500 -8.720000 -4.207800
N -12.901200 -8.778300 -5.526100
N -12.841400 -8.890500 -8.287800
H -12.226200 -8.107000 -7.995400
