23
Fragment
O -15.779700 -11.438700 -25.760600
H -15.361300 -14.864000 -31.794800
O -15.105500 -14.954500 -34.579000
H -14.721600 -13.465200 -32.287300
H -14.641500 -13.458200 -30.031200
N -14.614200 -11.693500 -25.480700
C -14.586000 -14.444600 -32.245900
O -14.383700 -12.671600 -27.614400
C -14.357200 -15.037400 -33.633900
O -14.079100 -11.438600 -24.394400
C -13.786700 -13.672800 -29.677800
C -13.786300 -12.320900 -26.449900
C -13.380600 -13.206100 -28.385200
N -13.336400 -14.782700 -31.583900
N -13.145200 -15.661200 -33.608200
N -12.948600 -14.395300 -30.345000
H -12.776700 -16.094600 -34.332300
C -12.488400 -15.521800 -32.396200
C -12.461700 -12.588000 -26.445600
C -12.197900 -13.157400 -27.708800
H -11.842300 -12.427300 -25.743100
O -11.388500 -15.938100 -32.112200
H -11.353500 -13.452300 -28.028700
14
Fragment
H -22.291700 -8.442700 -28.814000
C -21.418800 -8.806800 -28.722800
H -21.358100 -9.678400 -30.535100
H -21.082600 -8.137500 -26.840900
C -20.853300 -9.531100 -29.744000
C -20.696600 -8.618200 -27.564200
N -19.613900 -10.037900 -29.664000
C -19.405700 -9.127100 -27.443900
H -19.046700 -9.333400 -25.443700
C -18.920900 -9.825500 -28.543700
C -18.583900 -8.932800 -26.208900
H -18.456600 -7.974700 -26.049100
H -18.038600 -10.175000 -28.494900
H -17.711700 -9.363300 -26.325500
37
Fragment
O -15.779700 -11.438700 -25.760600
H -15.361300 -14.864000 -31.794800
O -15.105500 -14.954500 -34.579000
H -14.721600 -13.465200 -32.287300
H -14.641500 -13.458200 -30.031200
N -14.614200 -11.693500 -25.480700
C -14.586000 -14.444600 -32.245900
O -14.383700 -12.671600 -27.614400
C -14.357200 -15.037400 -33.633900
O -14.079100 -11.438600 -24.394400
C -13.786700 -13.672800 -29.677800
C -13.786300 -12.320900 -26.449900
C -13.380600 -13.206100 -28.385200
N -13.336400 -14.782700 -31.583900
N -13.145200 -15.661200 -33.608200
N -12.948600 -14.395300 -30.345000
H -12.776700 -16.094600 -34.332300
C -12.488400 -15.521800 -32.396200
C -12.461700 -12.588000 -26.445600
C -12.197900 -13.157400 -27.708800
H -11.842300 -12.427300 -25.743100
O -11.388500 -15.938100 -32.112200
H -11.353500 -13.452300 -28.028700
H -22.291700 -8.442700 -28.814000
C -21.418800 -8.806800 -28.722800
H -21.358100 -9.678400 -30.535100
H -21.082600 -8.137500 -26.840900
C -20.853300 -9.531100 -29.744000
C -20.696600 -8.618200 -27.564200
N -19.613900 -10.037900 -29.664000
C -19.405700 -9.127100 -27.443900
H -19.046700 -9.333400 -25.443700
C -18.920900 -9.825500 -28.543700
C -18.583900 -8.932800 -26.208900
H -18.456600 -7.974700 -26.049100
H -18.038600 -10.175000 -28.494900
H -17.711700 -9.363300 -26.325500
