23
Fragment
O -15.779700 -11.438700 -25.760600
H -15.361300 -14.864000 -31.794800
O -15.105500 -14.954500 -34.579000
H -14.721600 -13.465200 -32.287300
H -14.641500 -13.458200 -30.031200
N -14.614200 -11.693500 -25.480700
C -14.586000 -14.444600 -32.245900
O -14.383700 -12.671600 -27.614400
C -14.357200 -15.037400 -33.633900
O -14.079100 -11.438600 -24.394400
C -13.786700 -13.672800 -29.677800
C -13.786300 -12.320900 -26.449900
C -13.380600 -13.206100 -28.385200
N -13.336400 -14.782700 -31.583900
N -13.145200 -15.661200 -33.608200
N -12.948600 -14.395300 -30.345000
H -12.776700 -16.094600 -34.332300
C -12.488400 -15.521800 -32.396200
C -12.461700 -12.588000 -26.445600
C -12.197900 -13.157400 -27.708800
H -11.842300 -12.427300 -25.743100
O -11.388500 -15.938100 -32.112200
H -11.353500 -13.452300 -28.028700
14
Fragment
H -11.990300 -9.051300 -22.755700
H -11.663400 -8.239600 -20.586300
H -11.245500 -10.440000 -23.032200
C -11.118100 -9.481800 -22.872300
C -10.781100 -8.589100 -20.537600
H -10.655400 -9.081200 -23.637500
C -10.296400 -9.287500 -21.637300
N -10.088100 -8.376700 -19.417200
C -9.005500 -9.796500 -21.517100
C -8.848700 -8.883500 -19.337200
H -8.619400 -10.277100 -22.240300
H -8.343900 -8.736200 -18.546200
C -8.283200 -9.607900 -20.358400
H -7.410300 -9.971900 -20.267300
37
Fragment
O -15.779700 -11.438700 -25.760600
H -15.361300 -14.864000 -31.794800
O -15.105500 -14.954500 -34.579000
H -14.721600 -13.465200 -32.287300
H -14.641500 -13.458200 -30.031200
N -14.614200 -11.693500 -25.480700
C -14.586000 -14.444600 -32.245900
O -14.383700 -12.671600 -27.614400
C -14.357200 -15.037400 -33.633900
O -14.079100 -11.438600 -24.394400
C -13.786700 -13.672800 -29.677800
C -13.786300 -12.320900 -26.449900
C -13.380600 -13.206100 -28.385200
N -13.336400 -14.782700 -31.583900
N -13.145200 -15.661200 -33.608200
N -12.948600 -14.395300 -30.345000
H -12.776700 -16.094600 -34.332300
C -12.488400 -15.521800 -32.396200
C -12.461700 -12.588000 -26.445600
C -12.197900 -13.157400 -27.708800
H -11.842300 -12.427300 -25.743100
O -11.388500 -15.938100 -32.112200
H -11.353500 -13.452300 -28.028700
H -11.990300 -9.051300 -22.755700
H -11.663400 -8.239600 -20.586300
H -11.245500 -10.440000 -23.032200
C -11.118100 -9.481800 -22.872300
C -10.781100 -8.589100 -20.537600
H -10.655400 -9.081200 -23.637500
C -10.296400 -9.287500 -21.637300
N -10.088100 -8.376700 -19.417200
C -9.005500 -9.796500 -21.517100
C -8.848700 -8.883500 -19.337200
H -8.619400 -10.277100 -22.240300
H -8.343900 -8.736200 -18.546200
C -8.283200 -9.607900 -20.358400
H -7.410300 -9.971900 -20.267300
