23
Fragment
O -12.184500 -12.463200 -25.857600
H -11.905400 -9.912100 -24.915400
N -11.399100 -12.710100 -24.939700
C -11.302100 -10.281400 -24.236200
C -10.983200 -11.591900 -24.146700
O -10.948800 -13.820900 -24.676600
H -10.622100 -8.797100 -22.927900
C -10.601600 -9.669200 -23.156900
O -10.154300 -11.875000 -23.113100
C -9.929000 -10.656400 -22.512000
C -9.086100 -10.624000 -21.345900
H -9.032600 -9.777900 -20.940500
N -8.538100 -11.716200 -20.924000
H -8.436500 -10.185600 -18.597700
N -7.762700 -11.623700 -19.804900
C -7.555300 -10.454800 -18.972800
H -7.103900 -9.715500 -19.505900
C -7.082100 -12.731700 -19.338700
O -7.053700 -13.840600 -19.827400
C -6.675100 -11.017300 -17.873800
N -6.401300 -12.322600 -18.196400
O -6.277300 -10.445300 -16.877000
H -5.888300 -12.914300 -17.636900
23
Fragment
H -17.840400 -6.492200 -17.650000
O -17.717100 -3.926700 -17.192300
N -17.322700 -5.877900 -18.342900
C -17.198000 -4.534100 -18.106700
H -16.788600 -3.275800 -19.663800
C -16.563200 -6.296900 -19.424200
O -16.449700 -7.438500 -19.824900
C -16.289100 -3.964100 -19.182100
N -15.965900 -5.160800 -19.951500
H -15.525700 -3.603500 -18.755600
N -15.130000 -5.259400 -21.015800
H -14.819200 -3.280700 -21.080000
C -14.623100 -4.162200 -21.464300
C -13.725700 -4.204800 -22.584400
O -13.393100 -5.432000 -23.111700
H -13.154500 -2.271900 -23.072700
C -13.081100 -3.198500 -23.258300
C -12.528200 -5.145700 -24.121700
O -12.443600 -7.391100 -24.572200
C -12.302600 -3.824100 -24.266500
N -12.005100 -6.270400 -24.828400
H -11.672300 -3.438200 -24.928500
O -11.123600 -6.024000 -25.659400
46
Fragment
O -12.184500 -12.463200 -25.857600
H -11.905400 -9.912100 -24.915400
N -11.399100 -12.710100 -24.939700
C -11.302100 -10.281400 -24.236200
C -10.983200 -11.591900 -24.146700
O -10.948800 -13.820900 -24.676600
H -10.622100 -8.797100 -22.927900
C -10.601600 -9.669200 -23.156900
O -10.154300 -11.875000 -23.113100
C -9.929000 -10.656400 -22.512000
C -9.086100 -10.624000 -21.345900
H -9.032600 -9.777900 -20.940500
N -8.538100 -11.716200 -20.924000
H -8.436500 -10.185600 -18.597700
N -7.762700 -11.623700 -19.804900
C -7.555300 -10.454800 -18.972800
H -7.103900 -9.715500 -19.505900
C -7.082100 -12.731700 -19.338700
O -7.053700 -13.840600 -19.827400
C -6.675100 -11.017300 -17.873800
N -6.401300 -12.322600 -18.196400
O -6.277300 -10.445300 -16.877000
H -5.888300 -12.914300 -17.636900
H -17.840400 -6.492200 -17.650000
O -17.717100 -3.926700 -17.192300
N -17.322700 -5.877900 -18.342900
C -17.198000 -4.534100 -18.106700
H -16.788600 -3.275800 -19.663800
C -16.563200 -6.296900 -19.424200
O -16.449700 -7.438500 -19.824900
C -16.289100 -3.964100 -19.182100
N -15.965900 -5.160800 -19.951500
H -15.525700 -3.603500 -18.755600
N -15.130000 -5.259400 -21.015800
H -14.819200 -3.280700 -21.080000
C -14.623100 -4.162200 -21.464300
C -13.725700 -4.204800 -22.584400
O -13.393100 -5.432000 -23.111700
H -13.154500 -2.271900 -23.072700
C -13.081100 -3.198500 -23.258300
C -12.528200 -5.145700 -24.121700
O -12.443600 -7.391100 -24.572200
C -12.302600 -3.824100 -24.266500
N -12.005100 -6.270400 -24.828400
H -11.672300 -3.438200 -24.928500
O -11.123600 -6.024000 -25.659400
