23
Fragment
O -12.184500 -12.463200 -25.857600
H -11.905400 -9.912100 -24.915400
N -11.399100 -12.710100 -24.939700
C -11.302100 -10.281400 -24.236200
C -10.983200 -11.591900 -24.146700
O -10.948800 -13.820900 -24.676600
H -10.622100 -8.797100 -22.927900
C -10.601600 -9.669200 -23.156900
O -10.154300 -11.875000 -23.113100
C -9.929000 -10.656400 -22.512000
C -9.086100 -10.624000 -21.345900
H -9.032600 -9.777900 -20.940500
N -8.538100 -11.716200 -20.924000
H -8.436500 -10.185600 -18.597700
N -7.762700 -11.623700 -19.804900
C -7.555300 -10.454800 -18.972800
H -7.103900 -9.715500 -19.505900
C -7.082100 -12.731700 -19.338700
O -7.053700 -13.840600 -19.827400
C -6.675100 -11.017300 -17.873800
N -6.401300 -12.322600 -18.196400
O -6.277300 -10.445300 -16.877000
H -5.888300 -12.914300 -17.636900
11
Fragment
N -8.995600 -16.040100 -22.836800
H -8.924700 -14.389400 -21.756500
H -8.918200 -17.573000 -24.046700
C -8.604600 -16.638900 -23.976900
C -8.569500 -14.789400 -22.619900
C -7.793400 -16.018600 -24.908800
C -7.759000 -14.110900 -23.501800
H -7.521500 -13.243700 -23.270100
H -7.504200 -16.487400 -25.705100
C -7.368400 -14.727500 -24.656100
H -6.725900 -14.291700 -25.297100
34
Fragment
O -12.184500 -12.463200 -25.857600
H -11.905400 -9.912100 -24.915400
N -11.399100 -12.710100 -24.939700
C -11.302100 -10.281400 -24.236200
C -10.983200 -11.591900 -24.146700
O -10.948800 -13.820900 -24.676600
H -10.622100 -8.797100 -22.927900
C -10.601600 -9.669200 -23.156900
O -10.154300 -11.875000 -23.113100
C -9.929000 -10.656400 -22.512000
C -9.086100 -10.624000 -21.345900
H -9.032600 -9.777900 -20.940500
N -8.538100 -11.716200 -20.924000
H -8.436500 -10.185600 -18.597700
N -7.762700 -11.623700 -19.804900
C -7.555300 -10.454800 -18.972800
H -7.103900 -9.715500 -19.505900
C -7.082100 -12.731700 -19.338700
O -7.053700 -13.840600 -19.827400
C -6.675100 -11.017300 -17.873800
N -6.401300 -12.322600 -18.196400
O -6.277300 -10.445300 -16.877000
H -5.888300 -12.914300 -17.636900
N -8.995600 -16.040100 -22.836800
H -8.924700 -14.389400 -21.756500
H -8.918200 -17.573000 -24.046700
C -8.604600 -16.638900 -23.976900
C -8.569500 -14.789400 -22.619900
C -7.793400 -16.018600 -24.908800
C -7.759000 -14.110900 -23.501800
H -7.521500 -13.243700 -23.270100
H -7.504200 -16.487400 -25.705100
C -7.368400 -14.727500 -24.656100
H -6.725900 -14.291700 -25.297100
