23
Fragment
O -12.184500 -12.463200 -25.857600
H -11.905400 -9.912100 -24.915400
N -11.399100 -12.710100 -24.939700
C -11.302100 -10.281400 -24.236200
C -10.983200 -11.591900 -24.146700
O -10.948800 -13.820900 -24.676600
H -10.622100 -8.797100 -22.927900
C -10.601600 -9.669200 -23.156900
O -10.154300 -11.875000 -23.113100
C -9.929000 -10.656400 -22.512000
C -9.086100 -10.624000 -21.345900
H -9.032600 -9.777900 -20.940500
N -8.538100 -11.716200 -20.924000
H -8.436500 -10.185600 -18.597700
N -7.762700 -11.623700 -19.804900
C -7.555300 -10.454800 -18.972800
H -7.103900 -9.715500 -19.505900
C -7.082100 -12.731700 -19.338700
O -7.053700 -13.840600 -19.827400
C -6.675100 -11.017300 -17.873800
N -6.401300 -12.322600 -18.196400
O -6.277300 -10.445300 -16.877000
H -5.888300 -12.914300 -17.636900
11
Fragment
H -11.017500 -16.959500 -27.350300
C -10.375000 -16.523600 -27.991300
H -10.239200 -14.763700 -26.942300
H -10.221800 -18.007400 -29.377200
C -9.984400 -17.140200 -29.145600
C -9.950000 -15.232500 -27.738600
C -9.173800 -16.461800 -30.027400
C -9.138700 -14.612200 -28.670400
H -8.825200 -13.678100 -28.600700
H -8.818700 -16.861700 -30.890800
N -8.747800 -15.211100 -29.810500
34
Fragment
O -12.184500 -12.463200 -25.857600
H -11.905400 -9.912100 -24.915400
N -11.399100 -12.710100 -24.939700
C -11.302100 -10.281400 -24.236200
C -10.983200 -11.591900 -24.146700
O -10.948800 -13.820900 -24.676600
H -10.622100 -8.797100 -22.927900
C -10.601600 -9.669200 -23.156900
O -10.154300 -11.875000 -23.113100
C -9.929000 -10.656400 -22.512000
C -9.086100 -10.624000 -21.345900
H -9.032600 -9.777900 -20.940500
N -8.538100 -11.716200 -20.924000
H -8.436500 -10.185600 -18.597700
N -7.762700 -11.623700 -19.804900
C -7.555300 -10.454800 -18.972800
H -7.103900 -9.715500 -19.505900
C -7.082100 -12.731700 -19.338700
O -7.053700 -13.840600 -19.827400
C -6.675100 -11.017300 -17.873800
N -6.401300 -12.322600 -18.196400
O -6.277300 -10.445300 -16.877000
H -5.888300 -12.914300 -17.636900
H -11.017500 -16.959500 -27.350300
C -10.375000 -16.523600 -27.991300
H -10.239200 -14.763700 -26.942300
H -10.221800 -18.007400 -29.377200
C -9.984400 -17.140200 -29.145600
C -9.950000 -15.232500 -27.738600
C -9.173800 -16.461800 -30.027400
C -9.138700 -14.612200 -28.670400
H -8.825200 -13.678100 -28.600700
H -8.818700 -16.861700 -30.890800
N -8.747800 -15.211100 -29.810500
