23
Fragment
O -15.779700 -11.438700 -25.760600
H -15.361300 -14.864000 -31.794800
O -15.105500 -14.954500 -34.579000
H -14.721600 -13.465200 -32.287300
H -14.641500 -13.458200 -30.031200
N -14.614200 -11.693500 -25.480700
C -14.586000 -14.444600 -32.245900
O -14.383700 -12.671600 -27.614400
C -14.357200 -15.037400 -33.633900
O -14.079100 -11.438600 -24.394400
C -13.786700 -13.672800 -29.677800
C -13.786300 -12.320900 -26.449900
C -13.380600 -13.206100 -28.385200
N -13.336400 -14.782700 -31.583900
N -13.145200 -15.661200 -33.608200
N -12.948600 -14.395300 -30.345000
H -12.776700 -16.094600 -34.332300
C -12.488400 -15.521800 -32.396200
C -12.461700 -12.588000 -26.445600
C -12.197900 -13.157400 -27.708800
H -11.842300 -12.427300 -25.743100
O -11.388500 -15.938100 -32.112200
H -11.353500 -13.452300 -28.028700
23
Fragment
H -19.168100 -12.349900 -21.052600
O -19.133000 -9.864000 -16.969000
H -18.679200 -13.374800 -23.338100
C -18.323600 -12.644700 -21.372400
C -18.059800 -13.214100 -22.635600
C -18.033100 -10.280300 -16.685000
H -17.744800 -9.707500 -14.748900
N -17.572900 -11.406800 -18.736300
N -17.376300 -10.140900 -15.473000
N -17.185100 -11.019500 -17.497300
C -17.140900 -12.596000 -20.696100
C -16.735200 -13.481200 -22.631400
C -16.734800 -12.129300 -19.403500
O -16.442400 -14.363500 -24.686900
C -16.164300 -10.764800 -15.447300
O -16.137800 -13.130600 -21.466800
C -15.935500 -11.357500 -16.835400
N -15.907300 -14.108600 -23.600600
H -15.880000 -12.343900 -19.050100
H -15.799900 -12.336900 -16.794000
O -15.416000 -10.847600 -14.502200
H -15.160200 -10.938100 -17.286400
O -14.741800 -14.363400 -23.320600
46
Fragment
O -15.779700 -11.438700 -25.760600
H -15.361300 -14.864000 -31.794800
O -15.105500 -14.954500 -34.579000
H -14.721600 -13.465200 -32.287300
H -14.641500 -13.458200 -30.031200
N -14.614200 -11.693500 -25.480700
C -14.586000 -14.444600 -32.245900
O -14.383700 -12.671600 -27.614400
C -14.357200 -15.037400 -33.633900
O -14.079100 -11.438600 -24.394400
C -13.786700 -13.672800 -29.677800
C -13.786300 -12.320900 -26.449900
C -13.380600 -13.206100 -28.385200
N -13.336400 -14.782700 -31.583900
N -13.145200 -15.661200 -33.608200
N -12.948600 -14.395300 -30.345000
H -12.776700 -16.094600 -34.332300
C -12.488400 -15.521800 -32.396200
C -12.461700 -12.588000 -26.445600
C -12.197900 -13.157400 -27.708800
H -11.842300 -12.427300 -25.743100
O -11.388500 -15.938100 -32.112200
H -11.353500 -13.452300 -28.028700
H -19.168100 -12.349900 -21.052600
O -19.133000 -9.864000 -16.969000
H -18.679200 -13.374800 -23.338100
C -18.323600 -12.644700 -21.372400
C -18.059800 -13.214100 -22.635600
C -18.033100 -10.280300 -16.685000
H -17.744800 -9.707500 -14.748900
N -17.572900 -11.406800 -18.736300
N -17.376300 -10.140900 -15.473000
N -17.185100 -11.019500 -17.497300
C -17.140900 -12.596000 -20.696100
C -16.735200 -13.481200 -22.631400
C -16.734800 -12.129300 -19.403500
O -16.442400 -14.363500 -24.686900
C -16.164300 -10.764800 -15.447300
O -16.137800 -13.130600 -21.466800
C -15.935500 -11.357500 -16.835400
N -15.907300 -14.108600 -23.600600
H -15.880000 -12.343900 -19.050100
H -15.799900 -12.336900 -16.794000
O -15.416000 -10.847600 -14.502200
H -15.160200 -10.938100 -17.286400
O -14.741800 -14.363400 -23.320600
