23
Fragment
O -12.184500 -12.463200 -25.857600
H -11.905400 -9.912100 -24.915400
N -11.399100 -12.710100 -24.939700
C -11.302100 -10.281400 -24.236200
C -10.983200 -11.591900 -24.146700
O -10.948800 -13.820900 -24.676600
H -10.622100 -8.797100 -22.927900
C -10.601600 -9.669200 -23.156900
O -10.154300 -11.875000 -23.113100
C -9.929000 -10.656400 -22.512000
C -9.086100 -10.624000 -21.345900
H -9.032600 -9.777900 -20.940500
N -8.538100 -11.716200 -20.924000
H -8.436500 -10.185600 -18.597700
N -7.762700 -11.623700 -19.804900
C -7.555300 -10.454800 -18.972800
H -7.103900 -9.715500 -19.505900
C -7.082100 -12.731700 -19.338700
O -7.053700 -13.840600 -19.827400
C -6.675100 -11.017300 -17.873800
N -6.401300 -12.322600 -18.196400
O -6.277300 -10.445300 -16.877000
H -5.888300 -12.914300 -17.636900
23
Fragment
O -16.961700 -4.476800 -13.826100
H -16.413000 -7.062600 -14.557000
N -16.080200 -4.230300 -14.657200
C -15.782700 -6.676700 -15.219000
O -15.641700 -3.109700 -14.913300
C -15.557100 -5.355000 -15.363800
C -15.004200 -7.302300 -16.227200
H -14.930800 -8.228800 -16.412800
O -14.692200 -5.068700 -16.373900
C -14.359600 -6.296000 -16.901100
C -13.462200 -6.338600 -18.021200
H -13.266100 -7.220100 -18.405500
N -12.955300 -5.241400 -18.469700
H -12.559600 -6.897200 -20.729900
N -12.119400 -5.339900 -19.534000
C -11.796200 -6.536700 -20.303500
O -11.635600 -3.062300 -19.660600
C -11.522100 -4.203900 -20.061300
H -11.296700 -7.225000 -19.821700
C -10.887300 -5.966600 -21.378800
N -10.762600 -4.622900 -21.142700
O -10.368200 -6.574000 -22.293300
H -10.244900 -4.008600 -21.835500
46
Fragment
O -12.184500 -12.463200 -25.857600
H -11.905400 -9.912100 -24.915400
N -11.399100 -12.710100 -24.939700
C -11.302100 -10.281400 -24.236200
C -10.983200 -11.591900 -24.146700
O -10.948800 -13.820900 -24.676600
H -10.622100 -8.797100 -22.927900
C -10.601600 -9.669200 -23.156900
O -10.154300 -11.875000 -23.113100
C -9.929000 -10.656400 -22.512000
C -9.086100 -10.624000 -21.345900
H -9.032600 -9.777900 -20.940500
N -8.538100 -11.716200 -20.924000
H -8.436500 -10.185600 -18.597700
N -7.762700 -11.623700 -19.804900
C -7.555300 -10.454800 -18.972800
H -7.103900 -9.715500 -19.505900
C -7.082100 -12.731700 -19.338700
O -7.053700 -13.840600 -19.827400
C -6.675100 -11.017300 -17.873800
N -6.401300 -12.322600 -18.196400
O -6.277300 -10.445300 -16.877000
H -5.888300 -12.914300 -17.636900
O -16.961700 -4.476800 -13.826100
H -16.413000 -7.062600 -14.557000
N -16.080200 -4.230300 -14.657200
C -15.782700 -6.676700 -15.219000
O -15.641700 -3.109700 -14.913300
C -15.557100 -5.355000 -15.363800
C -15.004200 -7.302300 -16.227200
H -14.930800 -8.228800 -16.412800
O -14.692200 -5.068700 -16.373900
C -14.359600 -6.296000 -16.901100
C -13.462200 -6.338600 -18.021200
H -13.266100 -7.220100 -18.405500
N -12.955300 -5.241400 -18.469700
H -12.559600 -6.897200 -20.729900
N -12.119400 -5.339900 -19.534000
C -11.796200 -6.536700 -20.303500
O -11.635600 -3.062300 -19.660600
C -11.522100 -4.203900 -20.061300
H -11.296700 -7.225000 -19.821700
C -10.887300 -5.966600 -21.378800
N -10.762600 -4.622900 -21.142700
O -10.368200 -6.574000 -22.293300
H -10.244900 -4.008600 -21.835500
