23
Fragment
O -12.184500 -12.463200 -25.857600
H -11.905400 -9.912100 -24.915400
N -11.399100 -12.710100 -24.939700
C -11.302100 -10.281400 -24.236200
C -10.983200 -11.591900 -24.146700
O -10.948800 -13.820900 -24.676600
H -10.622100 -8.797100 -22.927900
C -10.601600 -9.669200 -23.156900
O -10.154300 -11.875000 -23.113100
C -9.929000 -10.656400 -22.512000
C -9.086100 -10.624000 -21.345900
H -9.032600 -9.777900 -20.940500
N -8.538100 -11.716200 -20.924000
H -8.436500 -10.185600 -18.597700
N -7.762700 -11.623700 -19.804900
C -7.555300 -10.454800 -18.972800
H -7.103900 -9.715500 -19.505900
C -7.082100 -12.731700 -19.338700
O -7.053700 -13.840600 -19.827400
C -6.675100 -11.017300 -17.873800
N -6.401300 -12.322600 -18.196400
O -6.277300 -10.445300 -16.877000
H -5.888300 -12.914300 -17.636900
23
Fragment
H -9.288500 -19.429700 -17.650000
O -9.165200 -16.864300 -17.192300
N -8.770800 -18.815400 -18.342900
C -8.646100 -17.471700 -18.106700
H -8.236800 -16.213400 -19.663800
C -8.011300 -19.234400 -19.424200
O -7.897800 -20.376100 -19.824900
C -7.737200 -16.901600 -19.182100
N -7.414000 -18.098400 -19.951500
H -6.973800 -16.541100 -18.755600
N -6.578100 -18.197000 -21.015800
H -6.267300 -16.218300 -21.080000
C -6.071200 -17.099800 -21.464300
C -5.173800 -17.142300 -22.584400
O -4.841200 -18.369600 -23.111700
H -4.602600 -15.209500 -23.072700
C -4.529200 -16.136000 -23.258300
C -3.976400 -18.083300 -24.121700
O -3.891700 -20.328600 -24.572200
C -3.750700 -16.761700 -24.266500
N -3.453200 -19.208000 -24.828400
H -3.120400 -16.375800 -24.928500
O -2.571700 -18.961500 -25.659400
46
Fragment
O -12.184500 -12.463200 -25.857600
H -11.905400 -9.912100 -24.915400
N -11.399100 -12.710100 -24.939700
C -11.302100 -10.281400 -24.236200
C -10.983200 -11.591900 -24.146700
O -10.948800 -13.820900 -24.676600
H -10.622100 -8.797100 -22.927900
C -10.601600 -9.669200 -23.156900
O -10.154300 -11.875000 -23.113100
C -9.929000 -10.656400 -22.512000
C -9.086100 -10.624000 -21.345900
H -9.032600 -9.777900 -20.940500
N -8.538100 -11.716200 -20.924000
H -8.436500 -10.185600 -18.597700
N -7.762700 -11.623700 -19.804900
C -7.555300 -10.454800 -18.972800
H -7.103900 -9.715500 -19.505900
C -7.082100 -12.731700 -19.338700
O -7.053700 -13.840600 -19.827400
C -6.675100 -11.017300 -17.873800
N -6.401300 -12.322600 -18.196400
O -6.277300 -10.445300 -16.877000
H -5.888300 -12.914300 -17.636900
H -9.288500 -19.429700 -17.650000
O -9.165200 -16.864300 -17.192300
N -8.770800 -18.815400 -18.342900
C -8.646100 -17.471700 -18.106700
H -8.236800 -16.213400 -19.663800
C -8.011300 -19.234400 -19.424200
O -7.897800 -20.376100 -19.824900
C -7.737200 -16.901600 -19.182100
N -7.414000 -18.098400 -19.951500
H -6.973800 -16.541100 -18.755600
N -6.578100 -18.197000 -21.015800
H -6.267300 -16.218300 -21.080000
C -6.071200 -17.099800 -21.464300
C -5.173800 -17.142300 -22.584400
O -4.841200 -18.369600 -23.111700
H -4.602600 -15.209500 -23.072700
C -4.529200 -16.136000 -23.258300
C -3.976400 -18.083300 -24.121700
O -3.891700 -20.328600 -24.572200
C -3.750700 -16.761700 -24.266500
N -3.453200 -19.208000 -24.828400
H -3.120400 -16.375800 -24.928500
O -2.571700 -18.961500 -25.659400
