23
Fragment
O -20.696700 -14.382500 -19.771100
N -19.747600 -13.657900 -20.116800
H -19.656700 -13.856700 -17.247400
O -19.469600 -13.378200 -21.280900
C -19.009300 -13.353300 -17.725200
C -18.937300 -13.164200 -19.056300
C -17.899300 -12.632800 -17.190500
O -17.874400 -12.405900 -19.428500
H -17.659000 -12.555800 -16.273700
C -17.258400 -12.082100 -18.241900
C -16.058200 -11.263000 -18.301400
N -15.648600 -10.822900 -19.440900
H -15.581000 -11.053800 -17.507700
O -14.510200 -9.606200 -21.697800
N -14.507700 -10.063900 -19.426700
H -14.131000 -9.275200 -17.590600
C -14.024800 -9.514800 -20.597200
C -13.649900 -9.785000 -18.288500
H -13.288100 -10.618500 -17.894900
N -12.871000 -8.831900 -20.252800
C -12.566000 -8.960200 -18.925600
H -12.266600 -8.303700 -20.808300
O -11.590100 -8.488100 -18.367500
14
Fragment
H -21.807900 -17.755300 -21.908900
H -21.180400 -16.410300 -22.507100
C -21.009000 -17.190200 -21.938700
H -20.786300 -16.891200 -21.032300
H -20.693800 -18.402100 -24.322500
C -19.914700 -18.516700 -23.790300
C -19.855200 -17.979700 -22.505800
H -18.892100 -19.579500 -25.161600
C -18.832100 -19.216400 -24.285000
C -18.689400 -18.185700 -21.789800
H -18.605700 -17.841000 -20.909300
N -17.705800 -19.408800 -23.596100
C -17.651500 -18.890200 -22.353000
H -16.860100 -19.016900 -21.842900
37
Fragment
O -20.696700 -14.382500 -19.771100
N -19.747600 -13.657900 -20.116800
H -19.656700 -13.856700 -17.247400
O -19.469600 -13.378200 -21.280900
C -19.009300 -13.353300 -17.725200
C -18.937300 -13.164200 -19.056300
C -17.899300 -12.632800 -17.190500
O -17.874400 -12.405900 -19.428500
H -17.659000 -12.555800 -16.273700
C -17.258400 -12.082100 -18.241900
C -16.058200 -11.263000 -18.301400
N -15.648600 -10.822900 -19.440900
H -15.581000 -11.053800 -17.507700
O -14.510200 -9.606200 -21.697800
N -14.507700 -10.063900 -19.426700
H -14.131000 -9.275200 -17.590600
C -14.024800 -9.514800 -20.597200
C -13.649900 -9.785000 -18.288500
H -13.288100 -10.618500 -17.894900
N -12.871000 -8.831900 -20.252800
C -12.566000 -8.960200 -18.925600
H -12.266600 -8.303700 -20.808300
O -11.590100 -8.488100 -18.367500
H -21.807900 -17.755300 -21.908900
H -21.180400 -16.410300 -22.507100
C -21.009000 -17.190200 -21.938700
H -20.786300 -16.891200 -21.032300
H -20.693800 -18.402100 -24.322500
C -19.914700 -18.516700 -23.790300
C -19.855200 -17.979700 -22.505800
H -18.892100 -19.579500 -25.161600
C -18.832100 -19.216400 -24.285000
C -18.689400 -18.185700 -21.789800
H -18.605700 -17.841000 -20.909300
N -17.705800 -19.408800 -23.596100
C -17.651500 -18.890200 -22.353000
H -16.860100 -19.016900 -21.842900
