14
Fragment
H -4.901200 -35.943100 -8.050200
C -4.627400 -36.068500 -8.950800
H -4.597100 -38.108100 -8.920200
H -4.520200 -34.101900 -9.445200
C -4.455200 -37.342900 -9.464700
C -4.392700 -34.984900 -9.773500
H -4.183300 -34.131300 -12.825200
C -4.073200 -37.480600 -10.781800
H -3.980700 -38.357200 -11.138000
C -3.969300 -35.186200 -11.088800
H -3.843600 -33.202800 -11.566500
N -3.823600 -36.427000 -11.587800
C -3.644500 -34.054100 -12.010800
H -2.693100 -34.086000 -12.244500
14
Fragment
H -3.733100 -33.855000 -6.306400
C -2.781700 -33.886900 -6.540100
N -2.602700 -31.514000 -6.963100
H -2.582600 -34.738200 -6.984400
C -2.457000 -32.754800 -7.462100
H -2.445600 -29.583800 -7.412900
C -2.353100 -30.460400 -7.769100
H -2.243000 -33.809700 -5.725700
C -2.033500 -32.956100 -8.777400
C -1.971100 -30.598100 -9.086200
H -1.906100 -33.839100 -9.105700
H -1.829100 -29.832900 -9.630700
C -1.798800 -31.872500 -9.600100
H -1.525000 -31.997900 -10.500700
28
Fragment
H -4.901200 -35.943100 -8.050200
C -4.627400 -36.068500 -8.950800
H -4.597100 -38.108100 -8.920200
H -4.520200 -34.101900 -9.445200
C -4.455200 -37.342900 -9.464700
C -4.392700 -34.984900 -9.773500
H -4.183300 -34.131300 -12.825200
C -4.073200 -37.480600 -10.781800
H -3.980700 -38.357200 -11.138000
C -3.969300 -35.186200 -11.088800
H -3.843600 -33.202800 -11.566500
N -3.823600 -36.427000 -11.587800
C -3.644500 -34.054100 -12.010800
H -2.693100 -34.086000 -12.244500
H -3.733100 -33.855000 -6.306400
C -2.781700 -33.886900 -6.540100
N -2.602700 -31.514000 -6.963100
H -2.582600 -34.738200 -6.984400
C -2.457000 -32.754800 -7.462100
H -2.445600 -29.583800 -7.412900
C -2.353100 -30.460400 -7.769100
H -2.243000 -33.809700 -5.725700
C -2.033500 -32.956100 -8.777400
C -1.971100 -30.598100 -9.086200
H -1.906100 -33.839100 -9.105700
H -1.829100 -29.832900 -9.630700
C -1.798800 -31.872500 -9.600100
H -1.525000 -31.997900 -10.500700
