14
Fragment
H -4.901200 -35.943100 -8.050200
C -4.627400 -36.068500 -8.950800
H -4.597100 -38.108100 -8.920200
H -4.520200 -34.101900 -9.445200
C -4.455200 -37.342900 -9.464700
C -4.392700 -34.984900 -9.773500
H -4.183300 -34.131300 -12.825200
C -4.073200 -37.480600 -10.781800
H -3.980700 -38.357200 -11.138000
C -3.969300 -35.186200 -11.088800
H -3.843600 -33.202800 -11.566500
N -3.823600 -36.427000 -11.587800
C -3.644500 -34.054100 -12.010800
H -2.693100 -34.086000 -12.244500
23
Fragment
H -4.132400 -40.812200 -2.513600
O -3.512600 -40.173700 0.090300
C -3.199700 -40.938300 -2.206600
H -3.155400 -41.090700 -4.648900
C -3.117000 -41.014400 -0.691000
O -2.990300 -40.203200 -9.401600
C -2.810200 -41.960100 -4.809300
O -2.763700 -41.491300 -7.135500
N -2.686000 -42.248400 -2.583200
H -2.634200 -40.209700 -2.565600
N -2.602400 -41.371500 -9.479500
C -2.599200 -42.445000 -6.153300
N -2.513300 -42.195900 -0.369200
N -2.512900 -42.753000 -3.833500
C -2.497300 -42.144900 -8.295000
H -2.352300 -42.533300 0.538000
O -2.306600 -41.941800 -10.542900
C -2.241400 -43.638300 -6.709900
C -2.227700 -42.971800 -1.489600
C -2.175600 -43.445100 -8.099300
H -2.069500 -44.449300 -6.244200
H -1.953200 -44.089200 -8.760700
O -1.690300 -44.054300 -1.495000
37
Fragment
H -4.901200 -35.943100 -8.050200
C -4.627400 -36.068500 -8.950800
H -4.597100 -38.108100 -8.920200
H -4.520200 -34.101900 -9.445200
C -4.455200 -37.342900 -9.464700
C -4.392700 -34.984900 -9.773500
H -4.183300 -34.131300 -12.825200
C -4.073200 -37.480600 -10.781800
H -3.980700 -38.357200 -11.138000
C -3.969300 -35.186200 -11.088800
H -3.843600 -33.202800 -11.566500
N -3.823600 -36.427000 -11.587800
C -3.644500 -34.054100 -12.010800
H -2.693100 -34.086000 -12.244500
H -4.132400 -40.812200 -2.513600
O -3.512600 -40.173700 0.090300
C -3.199700 -40.938300 -2.206600
H -3.155400 -41.090700 -4.648900
C -3.117000 -41.014400 -0.691000
O -2.990300 -40.203200 -9.401600
C -2.810200 -41.960100 -4.809300
O -2.763700 -41.491300 -7.135500
N -2.686000 -42.248400 -2.583200
H -2.634200 -40.209700 -2.565600
N -2.602400 -41.371500 -9.479500
C -2.599200 -42.445000 -6.153300
N -2.513300 -42.195900 -0.369200
N -2.512900 -42.753000 -3.833500
C -2.497300 -42.144900 -8.295000
H -2.352300 -42.533300 0.538000
O -2.306600 -41.941800 -10.542900
C -2.241400 -43.638300 -6.709900
C -2.227700 -42.971800 -1.489600
C -2.175600 -43.445100 -8.099300
H -2.069500 -44.449300 -6.244200
H -1.953200 -44.089200 -8.760700
O -1.690300 -44.054300 -1.495000
