23
Fragment
O -20.696700 -14.382500 -19.771100
N -19.747600 -13.657900 -20.116800
H -19.656700 -13.856700 -17.247400
O -19.469600 -13.378200 -21.280900
C -19.009300 -13.353300 -17.725200
C -18.937300 -13.164200 -19.056300
C -17.899300 -12.632800 -17.190500
O -17.874400 -12.405900 -19.428500
H -17.659000 -12.555800 -16.273700
C -17.258400 -12.082100 -18.241900
C -16.058200 -11.263000 -18.301400
N -15.648600 -10.822900 -19.440900
H -15.581000 -11.053800 -17.507700
O -14.510200 -9.606200 -21.697800
N -14.507700 -10.063900 -19.426700
H -14.131000 -9.275200 -17.590600
C -14.024800 -9.514800 -20.597200
C -13.649900 -9.785000 -18.288500
H -13.288100 -10.618500 -17.894900
N -12.871000 -8.831900 -20.252800
C -12.566000 -8.960200 -18.925600
H -12.266600 -8.303700 -20.808300
O -11.590100 -8.488100 -18.367500
14
Fragment
H -21.934500 -18.313100 -15.434600
H -21.307000 -19.658100 -16.032900
C -21.135500 -18.878200 -15.464400
H -20.912800 -19.177200 -14.558000
H -20.820300 -17.666300 -17.848200
C -20.041200 -17.551700 -17.316100
C -19.981800 -18.088700 -16.031600
H -19.018700 -16.488900 -18.687300
C -18.958600 -16.852000 -17.810700
C -18.816000 -17.882700 -15.315500
H -18.732300 -18.227400 -14.435000
N -17.832400 -16.659600 -17.121800
C -17.778000 -17.178200 -15.878800
H -16.986700 -17.051500 -15.368600
37
Fragment
O -20.696700 -14.382500 -19.771100
N -19.747600 -13.657900 -20.116800
H -19.656700 -13.856700 -17.247400
O -19.469600 -13.378200 -21.280900
C -19.009300 -13.353300 -17.725200
C -18.937300 -13.164200 -19.056300
C -17.899300 -12.632800 -17.190500
O -17.874400 -12.405900 -19.428500
H -17.659000 -12.555800 -16.273700
C -17.258400 -12.082100 -18.241900
C -16.058200 -11.263000 -18.301400
N -15.648600 -10.822900 -19.440900
H -15.581000 -11.053800 -17.507700
O -14.510200 -9.606200 -21.697800
N -14.507700 -10.063900 -19.426700
H -14.131000 -9.275200 -17.590600
C -14.024800 -9.514800 -20.597200
C -13.649900 -9.785000 -18.288500
H -13.288100 -10.618500 -17.894900
N -12.871000 -8.831900 -20.252800
C -12.566000 -8.960200 -18.925600
H -12.266600 -8.303700 -20.808300
O -11.590100 -8.488100 -18.367500
H -21.934500 -18.313100 -15.434600
H -21.307000 -19.658100 -16.032900
C -21.135500 -18.878200 -15.464400
H -20.912800 -19.177200 -14.558000
H -20.820300 -17.666300 -17.848200
C -20.041200 -17.551700 -17.316100
C -19.981800 -18.088700 -16.031600
H -19.018700 -16.488900 -18.687300
C -18.958600 -16.852000 -17.810700
C -18.816000 -17.882700 -15.315500
H -18.732300 -18.227400 -14.435000
N -17.832400 -16.659600 -17.121800
C -17.778000 -17.178200 -15.878800
H -16.986700 -17.051500 -15.368600
