23
Fragment
O -20.696700 -14.382500 -19.771100
N -19.747600 -13.657900 -20.116800
H -19.656700 -13.856700 -17.247400
O -19.469600 -13.378200 -21.280900
C -19.009300 -13.353300 -17.725200
C -18.937300 -13.164200 -19.056300
C -17.899300 -12.632800 -17.190500
O -17.874400 -12.405900 -19.428500
H -17.659000 -12.555800 -16.273700
C -17.258400 -12.082100 -18.241900
C -16.058200 -11.263000 -18.301400
N -15.648600 -10.822900 -19.440900
H -15.581000 -11.053800 -17.507700
O -14.510200 -9.606200 -21.697800
N -14.507700 -10.063900 -19.426700
H -14.131000 -9.275200 -17.590600
C -14.024800 -9.514800 -20.597200
C -13.649900 -9.785000 -18.288500
H -13.288100 -10.618500 -17.894900
N -12.871000 -8.831900 -20.252800
C -12.566000 -8.960200 -18.925600
H -12.266600 -8.303700 -20.808300
O -11.590100 -8.488100 -18.367500
14
Fragment
H -26.900500 -13.043900 -17.002700
C -26.109100 -13.170600 -16.492500
N -26.054700 -12.652000 -15.249500
H -25.154900 -14.219800 -17.936300
C -25.071200 -13.875100 -17.055800
C -24.928500 -12.844400 -14.560600
H -24.868500 -12.481300 -13.684000
C -23.905400 -14.081100 -16.339700
C -23.845900 -13.544100 -15.055300
H -23.066800 -13.658700 -14.523100
H -22.974300 -15.169600 -17.813300
C -22.751600 -14.870600 -16.906900
H -22.580200 -15.650500 -16.338400
H -21.952600 -14.305500 -16.936700
37
Fragment
O -20.696700 -14.382500 -19.771100
N -19.747600 -13.657900 -20.116800
H -19.656700 -13.856700 -17.247400
O -19.469600 -13.378200 -21.280900
C -19.009300 -13.353300 -17.725200
C -18.937300 -13.164200 -19.056300
C -17.899300 -12.632800 -17.190500
O -17.874400 -12.405900 -19.428500
H -17.659000 -12.555800 -16.273700
C -17.258400 -12.082100 -18.241900
C -16.058200 -11.263000 -18.301400
N -15.648600 -10.822900 -19.440900
H -15.581000 -11.053800 -17.507700
O -14.510200 -9.606200 -21.697800
N -14.507700 -10.063900 -19.426700
H -14.131000 -9.275200 -17.590600
C -14.024800 -9.514800 -20.597200
C -13.649900 -9.785000 -18.288500
H -13.288100 -10.618500 -17.894900
N -12.871000 -8.831900 -20.252800
C -12.566000 -8.960200 -18.925600
H -12.266600 -8.303700 -20.808300
O -11.590100 -8.488100 -18.367500
H -26.900500 -13.043900 -17.002700
C -26.109100 -13.170600 -16.492500
N -26.054700 -12.652000 -15.249500
H -25.154900 -14.219800 -17.936300
C -25.071200 -13.875100 -17.055800
C -24.928500 -12.844400 -14.560600
H -24.868500 -12.481300 -13.684000
C -23.905400 -14.081100 -16.339700
C -23.845900 -13.544100 -15.055300
H -23.066800 -13.658700 -14.523100
H -22.974300 -15.169600 -17.813300
C -22.751600 -14.870600 -16.906900
H -22.580200 -15.650500 -16.338400
H -21.952600 -14.305500 -16.936700
