23
Fragment
O -20.696700 -14.382500 -19.771100
N -19.747600 -13.657900 -20.116800
H -19.656700 -13.856700 -17.247400
O -19.469600 -13.378200 -21.280900
C -19.009300 -13.353300 -17.725200
C -18.937300 -13.164200 -19.056300
C -17.899300 -12.632800 -17.190500
O -17.874400 -12.405900 -19.428500
H -17.659000 -12.555800 -16.273700
C -17.258400 -12.082100 -18.241900
C -16.058200 -11.263000 -18.301400
N -15.648600 -10.822900 -19.440900
H -15.581000 -11.053800 -17.507700
O -14.510200 -9.606200 -21.697800
N -14.507700 -10.063900 -19.426700
H -14.131000 -9.275200 -17.590600
C -14.024800 -9.514800 -20.597200
C -13.649900 -9.785000 -18.288500
H -13.288100 -10.618500 -17.894900
N -12.871000 -8.831900 -20.252800
C -12.566000 -8.960200 -18.925600
H -12.266600 -8.303700 -20.808300
O -11.590100 -8.488100 -18.367500
23
Fragment
O -20.823200 -5.655500 -13.296800
N -19.874100 -6.380100 -13.642600
H -19.783300 -6.181300 -10.773200
O -19.596100 -6.659800 -14.806600
C -19.135900 -6.684700 -11.251000
C -19.063800 -6.873800 -12.582100
C -18.025900 -7.405200 -10.716200
O -18.001000 -7.632100 -12.954200
H -17.785600 -7.482200 -9.799400
C -17.385000 -7.955900 -11.767600
C -16.184800 -8.775000 -11.827200
N -15.775200 -9.215100 -12.966700
H -15.707600 -8.984200 -11.033400
O -14.636800 -10.431800 -15.223600
N -14.634300 -9.974100 -12.952400
H -14.257600 -10.762800 -11.116300
C -14.151300 -10.523200 -14.123000
C -13.776500 -10.253000 -11.814200
H -13.414700 -9.419500 -11.420600
N -12.997600 -11.206100 -13.778500
C -12.692600 -11.077800 -12.451300
H -12.393100 -11.734300 -14.334000
O -11.716700 -11.549900 -11.893200
46
Fragment
O -20.696700 -14.382500 -19.771100
N -19.747600 -13.657900 -20.116800
H -19.656700 -13.856700 -17.247400
O -19.469600 -13.378200 -21.280900
C -19.009300 -13.353300 -17.725200
C -18.937300 -13.164200 -19.056300
C -17.899300 -12.632800 -17.190500
O -17.874400 -12.405900 -19.428500
H -17.659000 -12.555800 -16.273700
C -17.258400 -12.082100 -18.241900
C -16.058200 -11.263000 -18.301400
N -15.648600 -10.822900 -19.440900
H -15.581000 -11.053800 -17.507700
O -14.510200 -9.606200 -21.697800
N -14.507700 -10.063900 -19.426700
H -14.131000 -9.275200 -17.590600
C -14.024800 -9.514800 -20.597200
C -13.649900 -9.785000 -18.288500
H -13.288100 -10.618500 -17.894900
N -12.871000 -8.831900 -20.252800
C -12.566000 -8.960200 -18.925600
H -12.266600 -8.303700 -20.808300
O -11.590100 -8.488100 -18.367500
O -20.823200 -5.655500 -13.296800
N -19.874100 -6.380100 -13.642600
H -19.783300 -6.181300 -10.773200
O -19.596100 -6.659800 -14.806600
C -19.135900 -6.684700 -11.251000
C -19.063800 -6.873800 -12.582100
C -18.025900 -7.405200 -10.716200
O -18.001000 -7.632100 -12.954200
H -17.785600 -7.482200 -9.799400
C -17.385000 -7.955900 -11.767600
C -16.184800 -8.775000 -11.827200
N -15.775200 -9.215100 -12.966700
H -15.707600 -8.984200 -11.033400
O -14.636800 -10.431800 -15.223600
N -14.634300 -9.974100 -12.952400
H -14.257600 -10.762800 -11.116300
C -14.151300 -10.523200 -14.123000
C -13.776500 -10.253000 -11.814200
H -13.414700 -9.419500 -11.420600
N -12.997600 -11.206100 -13.778500
C -12.692600 -11.077800 -12.451300
H -12.393100 -11.734300 -14.334000
O -11.716700 -11.549900 -11.893200
