23
Fragment
H -11.145400 -19.105400 -22.809300
H -11.024200 -22.039700 -21.107500
O -10.807600 -21.108200 -21.328800
H -10.553400 -20.031100 -17.340000
N -10.450600 -20.645800 -20.043500
C -10.233900 -18.793900 -22.599100
H -10.114200 -17.910400 -23.132300
C -10.057700 -19.417700 -20.054600
C -9.964400 -18.455700 -21.152800
N -9.659600 -18.935100 -18.788500
C -9.631000 -19.881500 -17.666600
C -9.596600 -17.205800 -20.842000
H -9.570100 -19.506200 -22.931900
H -9.556600 -16.509900 -21.535900
H -9.454000 -14.999200 -18.617400
C -9.313300 -17.630700 -18.506600
N -9.288600 -16.774500 -19.564900
H -9.268400 -20.752100 -17.997800
O -9.023600 -17.243500 -17.376600
H -9.017900 -19.503400 -16.969600
H -9.007200 -14.940000 -20.188700
C -8.903600 -15.380600 -19.313200
H -7.936900 -15.314000 -19.041800
23
Fragment
H -8.019800 -21.712000 -20.505100
C -7.053200 -21.645400 -20.233600
H -6.949500 -22.086000 -19.358200
H -6.938800 -17.522600 -22.577300
O -6.933100 -19.782500 -22.170200
H -6.688300 -16.273900 -21.549100
N -6.668100 -20.251500 -19.982000
C -6.643400 -19.395300 -21.040300
H -6.502700 -22.026800 -20.929500
H -6.400200 -20.516100 -18.011000
H -6.386600 -17.519800 -16.615000
C -6.360100 -19.820200 -18.704900
C -6.325700 -17.144500 -21.880200
N -6.297100 -18.090900 -20.758400
C -5.992300 -18.570300 -18.394000
C -5.899000 -17.608300 -19.492300
H -5.842500 -19.115600 -16.414600
C -5.722800 -18.232100 -16.947800
N -5.506100 -16.380200 -19.503300
H -5.403300 -16.994900 -22.206900
O -5.149100 -15.917800 -18.218100
H -4.932500 -14.986300 -18.439400
H -4.811300 -17.920600 -16.737600
46
Fragment
H -11.145400 -19.105400 -22.809300
H -11.024200 -22.039700 -21.107500
O -10.807600 -21.108200 -21.328800
H -10.553400 -20.031100 -17.340000
N -10.450600 -20.645800 -20.043500
C -10.233900 -18.793900 -22.599100
H -10.114200 -17.910400 -23.132300
C -10.057700 -19.417700 -20.054600
C -9.964400 -18.455700 -21.152800
N -9.659600 -18.935100 -18.788500
C -9.631000 -19.881500 -17.666600
C -9.596600 -17.205800 -20.842000
H -9.570100 -19.506200 -22.931900
H -9.556600 -16.509900 -21.535900
H -9.454000 -14.999200 -18.617400
C -9.313300 -17.630700 -18.506600
N -9.288600 -16.774500 -19.564900
H -9.268400 -20.752100 -17.997800
O -9.023600 -17.243500 -17.376600
H -9.017900 -19.503400 -16.969600
H -9.007200 -14.940000 -20.188700
C -8.903600 -15.380600 -19.313200
H -7.936900 -15.314000 -19.041800
H -8.019800 -21.712000 -20.505100
C -7.053200 -21.645400 -20.233600
H -6.949500 -22.086000 -19.358200
H -6.938800 -17.522600 -22.577300
O -6.933100 -19.782500 -22.170200
H -6.688300 -16.273900 -21.549100
N -6.668100 -20.251500 -19.982000
C -6.643400 -19.395300 -21.040300
H -6.502700 -22.026800 -20.929500
H -6.400200 -20.516100 -18.011000
H -6.386600 -17.519800 -16.615000
C -6.360100 -19.820200 -18.704900
C -6.325700 -17.144500 -21.880200
N -6.297100 -18.090900 -20.758400
C -5.992300 -18.570300 -18.394000
C -5.899000 -17.608300 -19.492300
H -5.842500 -19.115600 -16.414600
C -5.722800 -18.232100 -16.947800
N -5.506100 -16.380200 -19.503300
H -5.403300 -16.994900 -22.206900
O -5.149100 -15.917800 -18.218100
H -4.932500 -14.986300 -18.439400
H -4.811300 -17.920600 -16.737600
