23
Fragment
H -11.145400 -19.105400 -22.809300
H -11.024200 -22.039700 -21.107500
O -10.807600 -21.108200 -21.328800
H -10.553400 -20.031100 -17.340000
N -10.450600 -20.645800 -20.043500
C -10.233900 -18.793900 -22.599100
H -10.114200 -17.910400 -23.132300
C -10.057700 -19.417700 -20.054600
C -9.964400 -18.455700 -21.152800
N -9.659600 -18.935100 -18.788500
C -9.631000 -19.881500 -17.666600
C -9.596600 -17.205800 -20.842000
H -9.570100 -19.506200 -22.931900
H -9.556600 -16.509900 -21.535900
H -9.454000 -14.999200 -18.617400
C -9.313300 -17.630700 -18.506600
N -9.288600 -16.774500 -19.564900
H -9.268400 -20.752100 -17.997800
O -9.023600 -17.243500 -17.376600
H -9.017900 -19.503400 -16.969600
H -9.007200 -14.940000 -20.188700
C -8.903600 -15.380600 -19.313200
H -7.936900 -15.314000 -19.041800
23
Fragment
H -13.804900 -22.548800 -29.400500
H -13.683600 -19.614500 -27.698600
O -13.467100 -20.546100 -27.920000
H -13.212800 -21.623200 -23.931100
N -13.110100 -21.008500 -26.634700
C -12.893400 -22.860300 -29.190200
H -12.773600 -23.743800 -29.723400
C -12.717100 -22.236500 -26.645800
C -12.623900 -23.198500 -27.744000
N -12.319000 -22.719200 -25.379600
C -12.290400 -21.772800 -24.257800
C -12.256000 -24.448500 -27.433100
H -12.229600 -22.148000 -29.523100
H -12.216000 -25.144400 -28.127100
H -12.113500 -26.655000 -25.208500
C -11.972700 -24.023600 -25.097800
N -11.948000 -24.879700 -26.156000
H -11.927800 -20.902100 -24.588900
O -11.683100 -24.410800 -23.967800
H -11.677400 -22.150800 -23.560700
H -11.666700 -26.714300 -26.779800
C -11.563000 -26.273600 -25.904400
H -10.596400 -26.340300 -25.633000
46
Fragment
H -11.145400 -19.105400 -22.809300
H -11.024200 -22.039700 -21.107500
O -10.807600 -21.108200 -21.328800
H -10.553400 -20.031100 -17.340000
N -10.450600 -20.645800 -20.043500
C -10.233900 -18.793900 -22.599100
H -10.114200 -17.910400 -23.132300
C -10.057700 -19.417700 -20.054600
C -9.964400 -18.455700 -21.152800
N -9.659600 -18.935100 -18.788500
C -9.631000 -19.881500 -17.666600
C -9.596600 -17.205800 -20.842000
H -9.570100 -19.506200 -22.931900
H -9.556600 -16.509900 -21.535900
H -9.454000 -14.999200 -18.617400
C -9.313300 -17.630700 -18.506600
N -9.288600 -16.774500 -19.564900
H -9.268400 -20.752100 -17.997800
O -9.023600 -17.243500 -17.376600
H -9.017900 -19.503400 -16.969600
H -9.007200 -14.940000 -20.188700
C -8.903600 -15.380600 -19.313200
H -7.936900 -15.314000 -19.041800
H -13.804900 -22.548800 -29.400500
H -13.683600 -19.614500 -27.698600
O -13.467100 -20.546100 -27.920000
H -13.212800 -21.623200 -23.931100
N -13.110100 -21.008500 -26.634700
C -12.893400 -22.860300 -29.190200
H -12.773600 -23.743800 -29.723400
C -12.717100 -22.236500 -26.645800
C -12.623900 -23.198500 -27.744000
N -12.319000 -22.719200 -25.379600
C -12.290400 -21.772800 -24.257800
C -12.256000 -24.448500 -27.433100
H -12.229600 -22.148000 -29.523100
H -12.216000 -25.144400 -28.127100
H -12.113500 -26.655000 -25.208500
C -11.972700 -24.023600 -25.097800
N -11.948000 -24.879700 -26.156000
H -11.927800 -20.902100 -24.588900
O -11.683100 -24.410800 -23.967800
H -11.677400 -22.150800 -23.560700
H -11.666700 -26.714300 -26.779800
C -11.563000 -26.273600 -25.904400
H -10.596400 -26.340300 -25.633000
