23
Fragment
H -11.145400 -19.105400 -22.809300
H -11.024200 -22.039700 -21.107500
O -10.807600 -21.108200 -21.328800
H -10.553400 -20.031100 -17.340000
N -10.450600 -20.645800 -20.043500
C -10.233900 -18.793900 -22.599100
H -10.114200 -17.910400 -23.132300
C -10.057700 -19.417700 -20.054600
C -9.964400 -18.455700 -21.152800
N -9.659600 -18.935100 -18.788500
C -9.631000 -19.881500 -17.666600
C -9.596600 -17.205800 -20.842000
H -9.570100 -19.506200 -22.931900
H -9.556600 -16.509900 -21.535900
H -9.454000 -14.999200 -18.617400
C -9.313300 -17.630700 -18.506600
N -9.288600 -16.774500 -19.564900
H -9.268400 -20.752100 -17.997800
O -9.023600 -17.243500 -17.376600
H -9.017900 -19.503400 -16.969600
H -9.007200 -14.940000 -20.188700
C -8.903600 -15.380600 -19.313200
H -7.936900 -15.314000 -19.041800
23
Fragment
H -10.679300 -10.685700 -27.096200
C -9.712600 -10.752400 -26.824800
H -9.608900 -10.311700 -25.949300
H -9.598300 -14.875200 -29.168500
O -9.592600 -12.615200 -28.761400
H -9.347800 -16.123900 -28.140200
N -9.327600 -12.146300 -26.573100
C -9.302900 -13.002400 -27.631400
H -9.162100 -10.371000 -27.520700
H -9.059600 -11.881600 -24.602100
H -9.046000 -14.878000 -23.206100
C -9.019600 -12.577500 -25.296000
C -8.985200 -15.253200 -28.471400
N -8.956600 -14.306800 -27.349600
C -8.651800 -13.827500 -24.985200
C -8.558500 -14.789500 -26.083400
H -8.502000 -13.282200 -23.005700
C -8.382200 -14.165700 -23.539000
N -8.165500 -16.017500 -26.094500
H -8.062800 -15.402800 -28.798000
O -7.808500 -16.479900 -24.809200
H -7.592000 -17.411500 -25.030500
H -7.470700 -14.477200 -23.328700
46
Fragment
H -11.145400 -19.105400 -22.809300
H -11.024200 -22.039700 -21.107500
O -10.807600 -21.108200 -21.328800
H -10.553400 -20.031100 -17.340000
N -10.450600 -20.645800 -20.043500
C -10.233900 -18.793900 -22.599100
H -10.114200 -17.910400 -23.132300
C -10.057700 -19.417700 -20.054600
C -9.964400 -18.455700 -21.152800
N -9.659600 -18.935100 -18.788500
C -9.631000 -19.881500 -17.666600
C -9.596600 -17.205800 -20.842000
H -9.570100 -19.506200 -22.931900
H -9.556600 -16.509900 -21.535900
H -9.454000 -14.999200 -18.617400
C -9.313300 -17.630700 -18.506600
N -9.288600 -16.774500 -19.564900
H -9.268400 -20.752100 -17.997800
O -9.023600 -17.243500 -17.376600
H -9.017900 -19.503400 -16.969600
H -9.007200 -14.940000 -20.188700
C -8.903600 -15.380600 -19.313200
H -7.936900 -15.314000 -19.041800
H -10.679300 -10.685700 -27.096200
C -9.712600 -10.752400 -26.824800
H -9.608900 -10.311700 -25.949300
H -9.598300 -14.875200 -29.168500
O -9.592600 -12.615200 -28.761400
H -9.347800 -16.123900 -28.140200
N -9.327600 -12.146300 -26.573100
C -9.302900 -13.002400 -27.631400
H -9.162100 -10.371000 -27.520700
H -9.059600 -11.881600 -24.602100
H -9.046000 -14.878000 -23.206100
C -9.019600 -12.577500 -25.296000
C -8.985200 -15.253200 -28.471400
N -8.956600 -14.306800 -27.349600
C -8.651800 -13.827500 -24.985200
C -8.558500 -14.789500 -26.083400
H -8.502000 -13.282200 -23.005700
C -8.382200 -14.165700 -23.539000
N -8.165500 -16.017500 -26.094500
H -8.062800 -15.402800 -28.798000
O -7.808500 -16.479900 -24.809200
H -7.592000 -17.411500 -25.030500
H -7.470700 -14.477200 -23.328700
