19
Fragment
O -10.572400 -18.663900 -15.375500
H -10.053700 -23.192000 -15.832900
O -10.035000 -22.389700 -15.669600
O -9.960500 -24.404700 -17.223900
C -9.866500 -21.716000 -16.790800
N -9.851300 -23.725000 -18.235800
N -9.847700 -19.640300 -15.451000
C -9.800900 -20.318600 -16.754400
O -9.799200 -24.189700 -19.335400
C -9.778300 -22.280700 -18.080600
C -9.658800 -19.535900 -17.867500
H -9.633500 -18.609400 -17.797300
C -9.623600 -21.541900 -19.218000
H -9.565400 -21.950600 -20.051800
C -9.556100 -20.152100 -19.092500
O -9.433700 -18.121900 -20.181300
N -9.371200 -19.333000 -20.294700
O -9.151300 -20.058200 -14.566000
O -9.118400 -19.909800 -21.339000
19
Fragment
O -12.627500 -26.754300 -8.629500
H -12.108800 -22.226200 -9.086900
O -12.090100 -23.028500 -8.923600
O -12.015700 -21.013500 -10.477900
C -11.921700 -23.702200 -10.044800
N -11.906400 -21.693200 -11.489800
N -11.902800 -25.777900 -8.705000
C -11.856100 -25.099600 -10.008400
O -11.854400 -21.228500 -12.589400
C -11.833400 -23.137500 -11.334600
C -11.713900 -25.882300 -11.121500
H -11.688600 -26.808800 -11.051300
C -11.678700 -23.876300 -12.472000
H -11.620600 -23.467600 -13.305800
C -11.611200 -25.266100 -12.346500
O -11.488900 -27.296300 -13.435300
N -11.426300 -26.085200 -13.548700
O -11.206500 -25.360000 -7.820000
O -11.173500 -25.508400 -14.593000
38
Fragment
O -10.572400 -18.663900 -15.375500
H -10.053700 -23.192000 -15.832900
O -10.035000 -22.389700 -15.669600
O -9.960500 -24.404700 -17.223900
C -9.866500 -21.716000 -16.790800
N -9.851300 -23.725000 -18.235800
N -9.847700 -19.640300 -15.451000
C -9.800900 -20.318600 -16.754400
O -9.799200 -24.189700 -19.335400
C -9.778300 -22.280700 -18.080600
C -9.658800 -19.535900 -17.867500
H -9.633500 -18.609400 -17.797300
C -9.623600 -21.541900 -19.218000
H -9.565400 -21.950600 -20.051800
C -9.556100 -20.152100 -19.092500
O -9.433700 -18.121900 -20.181300
N -9.371200 -19.333000 -20.294700
O -9.151300 -20.058200 -14.566000
O -9.118400 -19.909800 -21.339000
O -12.627500 -26.754300 -8.629500
H -12.108800 -22.226200 -9.086900
O -12.090100 -23.028500 -8.923600
O -12.015700 -21.013500 -10.477900
C -11.921700 -23.702200 -10.044800
N -11.906400 -21.693200 -11.489800
N -11.902800 -25.777900 -8.705000
C -11.856100 -25.099600 -10.008400
O -11.854400 -21.228500 -12.589400
C -11.833400 -23.137500 -11.334600
C -11.713900 -25.882300 -11.121500
H -11.688600 -26.808800 -11.051300
C -11.678700 -23.876300 -12.472000
H -11.620600 -23.467600 -13.305800
C -11.611200 -25.266100 -12.346500
O -11.488900 -27.296300 -13.435300
N -11.426300 -26.085200 -13.548700
O -11.206500 -25.360000 -7.820000
O -11.173500 -25.508400 -14.593000
