19
Fragment
O -10.572400 -18.663900 -15.375500
H -10.053700 -23.192000 -15.832900
O -10.035000 -22.389700 -15.669600
O -9.960500 -24.404700 -17.223900
C -9.866500 -21.716000 -16.790800
N -9.851300 -23.725000 -18.235800
N -9.847700 -19.640300 -15.451000
C -9.800900 -20.318600 -16.754400
O -9.799200 -24.189700 -19.335400
C -9.778300 -22.280700 -18.080600
C -9.658800 -19.535900 -17.867500
H -9.633500 -18.609400 -17.797300
C -9.623600 -21.541900 -19.218000
H -9.565400 -21.950600 -20.051800
C -9.556100 -20.152100 -19.092500
O -9.433700 -18.121900 -20.181300
N -9.371200 -19.333000 -20.294700
O -9.151300 -20.058200 -14.566000
O -9.118400 -19.909800 -21.339000
19
Fragment
O -8.517200 -26.754300 -22.121500
H -7.998600 -22.226200 -22.578900
O -7.979900 -23.028500 -22.415600
O -7.905400 -21.013500 -23.969900
C -7.811400 -23.702200 -23.536800
N -7.796100 -21.693200 -24.981800
N -7.792500 -25.777900 -22.197100
C -7.745800 -25.099600 -23.500400
O -7.744100 -21.228500 -26.081400
C -7.723200 -23.137500 -24.826600
C -7.603600 -25.882300 -24.613500
H -7.578400 -26.808800 -24.543300
C -7.568400 -23.876300 -25.964000
H -7.510300 -23.467600 -26.797800
C -7.500900 -25.266100 -25.838500
O -7.378600 -27.296300 -26.927400
N -7.316100 -26.085200 -27.040700
O -7.096200 -25.360000 -21.312000
O -7.063300 -25.508400 -28.085000
38
Fragment
O -10.572400 -18.663900 -15.375500
H -10.053700 -23.192000 -15.832900
O -10.035000 -22.389700 -15.669600
O -9.960500 -24.404700 -17.223900
C -9.866500 -21.716000 -16.790800
N -9.851300 -23.725000 -18.235800
N -9.847700 -19.640300 -15.451000
C -9.800900 -20.318600 -16.754400
O -9.799200 -24.189700 -19.335400
C -9.778300 -22.280700 -18.080600
C -9.658800 -19.535900 -17.867500
H -9.633500 -18.609400 -17.797300
C -9.623600 -21.541900 -19.218000
H -9.565400 -21.950600 -20.051800
C -9.556100 -20.152100 -19.092500
O -9.433700 -18.121900 -20.181300
N -9.371200 -19.333000 -20.294700
O -9.151300 -20.058200 -14.566000
O -9.118400 -19.909800 -21.339000
O -8.517200 -26.754300 -22.121500
H -7.998600 -22.226200 -22.578900
O -7.979900 -23.028500 -22.415600
O -7.905400 -21.013500 -23.969900
C -7.811400 -23.702200 -23.536800
N -7.796100 -21.693200 -24.981800
N -7.792500 -25.777900 -22.197100
C -7.745800 -25.099600 -23.500400
O -7.744100 -21.228500 -26.081400
C -7.723200 -23.137500 -24.826600
C -7.603600 -25.882300 -24.613500
H -7.578400 -26.808800 -24.543300
C -7.568400 -23.876300 -25.964000
H -7.510300 -23.467600 -26.797800
C -7.500900 -25.266100 -25.838500
O -7.378600 -27.296300 -26.927400
N -7.316100 -26.085200 -27.040700
O -7.096200 -25.360000 -21.312000
O -7.063300 -25.508400 -28.085000
