25
Fragment
H -6.281600 -21.173900 -22.703500
H -6.184500 -21.008400 -20.363600
C -5.728700 -21.720200 -22.118500
C -5.699200 -21.556200 -20.770800
H -4.891200 -22.829300 -23.651400
C -4.864600 -22.647200 -22.688700
C -4.806500 -22.287600 -20.011100
H -4.765800 -22.302600 -18.986300
C -4.003300 -23.345500 -21.869700
N -3.951700 -23.196500 -20.529400
C -3.032900 -24.323700 -22.475500
O -2.970600 -24.471200 -23.698600
H -2.335000 -24.936200 -20.645000
N -2.253500 -24.990400 -21.607600
N -1.398400 -25.735300 -19.082500
H -1.373900 -25.703700 -17.075800
N -1.291100 -25.833100 -22.155600
C -1.063700 -26.021200 -17.848900
C -0.517400 -26.436600 -21.309900
C -0.493600 -26.424500 -19.868900
N 0.028900 -26.848900 -17.795500
H 0.151600 -27.073200 -21.770500
H 0.310900 -27.103200 -16.942500
C 0.377500 -27.098700 -19.072200
H 1.109600 -27.614900 -19.252800
25
Fragment
H -9.475600 -35.139400 -25.176800
C -8.743500 -34.623200 -25.357500
H -8.677000 -34.627700 -27.487100
H -8.517600 -34.597700 -22.659100
N -8.394900 -34.373400 -26.634100
C -7.872400 -33.949000 -24.560700
C -7.848600 -33.961100 -23.119700
C -7.302300 -33.545700 -26.580800
N -7.074900 -33.357600 -22.274000
H -6.992100 -33.228200 -27.353800
N -6.967700 -33.259800 -25.347100
N -6.112500 -32.514900 -22.822000
H -6.031000 -32.460700 -23.784700
O -5.395400 -31.995700 -20.731000
C -5.333100 -31.848200 -21.954200
N -4.414300 -30.721000 -23.900200
C -4.362800 -30.870000 -22.559900
H -3.600200 -29.827100 -25.443400
C -3.559500 -29.812100 -24.418500
C -3.501400 -30.171700 -21.740900
H -3.474900 -30.353800 -20.778300
C -2.666800 -29.080700 -23.658800
C -2.637300 -29.244700 -22.311100
H -2.181500 -28.532900 -24.066000
H -2.084400 -28.698400 -21.726100
50
Fragment
H -6.281600 -21.173900 -22.703500
H -6.184500 -21.008400 -20.363600
C -5.728700 -21.720200 -22.118500
C -5.699200 -21.556200 -20.770800
H -4.891200 -22.829300 -23.651400
C -4.864600 -22.647200 -22.688700
C -4.806500 -22.287600 -20.011100
H -4.765800 -22.302600 -18.986300
C -4.003300 -23.345500 -21.869700
N -3.951700 -23.196500 -20.529400
C -3.032900 -24.323700 -22.475500
O -2.970600 -24.471200 -23.698600
H -2.335000 -24.936200 -20.645000
N -2.253500 -24.990400 -21.607600
N -1.398400 -25.735300 -19.082500
H -1.373900 -25.703700 -17.075800
N -1.291100 -25.833100 -22.155600
C -1.063700 -26.021200 -17.848900
C -0.517400 -26.436600 -21.309900
C -0.493600 -26.424500 -19.868900
N 0.028900 -26.848900 -17.795500
H 0.151600 -27.073200 -21.770500
H 0.310900 -27.103200 -16.942500
C 0.377500 -27.098700 -19.072200
H 1.109600 -27.614900 -19.252800
H -9.475600 -35.139400 -25.176800
C -8.743500 -34.623200 -25.357500
H -8.677000 -34.627700 -27.487100
H -8.517600 -34.597700 -22.659100
N -8.394900 -34.373400 -26.634100
C -7.872400 -33.949000 -24.560700
C -7.848600 -33.961100 -23.119700
C -7.302300 -33.545700 -26.580800
N -7.074900 -33.357600 -22.274000
H -6.992100 -33.228200 -27.353800
N -6.967700 -33.259800 -25.347100
N -6.112500 -32.514900 -22.822000
H -6.031000 -32.460700 -23.784700
O -5.395400 -31.995700 -20.731000
C -5.333100 -31.848200 -21.954200
N -4.414300 -30.721000 -23.900200
C -4.362800 -30.870000 -22.559900
H -3.600200 -29.827100 -25.443400
C -3.559500 -29.812100 -24.418500
C -3.501400 -30.171700 -21.740900
H -3.474900 -30.353800 -20.778300
C -2.666800 -29.080700 -23.658800
C -2.637300 -29.244700 -22.311100
H -2.181500 -28.532900 -24.066000
H -2.084400 -28.698400 -21.726100
