25
Fragment
H -6.281600 -21.173900 -22.703500
H -6.184500 -21.008400 -20.363600
C -5.728700 -21.720200 -22.118500
C -5.699200 -21.556200 -20.770800
H -4.891200 -22.829300 -23.651400
C -4.864600 -22.647200 -22.688700
C -4.806500 -22.287600 -20.011100
H -4.765800 -22.302600 -18.986300
C -4.003300 -23.345500 -21.869700
N -3.951700 -23.196500 -20.529400
C -3.032900 -24.323700 -22.475500
O -2.970600 -24.471200 -23.698600
H -2.335000 -24.936200 -20.645000
N -2.253500 -24.990400 -21.607600
N -1.398400 -25.735300 -19.082500
H -1.373900 -25.703700 -17.075800
N -1.291100 -25.833100 -22.155600
C -1.063700 -26.021200 -17.848900
C -0.517400 -26.436600 -21.309900
C -0.493600 -26.424500 -19.868900
N 0.028900 -26.848900 -17.795500
H 0.151600 -27.073200 -21.770500
H 0.310900 -27.103200 -16.942500
C 0.377500 -27.098700 -19.072200
H 1.109600 -27.614900 -19.252800
25
Fragment
H -2.008100 -24.936200 -26.776200
H -1.439800 -25.613400 -24.451100
C -1.283500 -25.544200 -26.555600
N -1.030900 -25.825600 -25.255300
H -0.888300 -25.673600 -29.205100
C -0.335800 -26.218400 -27.296100
C -0.204600 -26.189800 -28.717800
C 0.066700 -26.660800 -25.233100
H 0.400200 -26.937700 -24.362200
N 0.497800 -26.922700 -26.432700
N 0.625300 -26.803800 -29.504200
H 1.490200 -27.765400 -27.931400
N 1.537100 -27.648000 -28.882200
C 2.374400 -28.334300 -29.680500
O 2.393700 -28.203300 -30.906000
N 3.125200 -29.413300 -27.645600
C 3.264200 -29.309400 -28.966600
H 3.706900 -30.504300 -25.991300
C 3.922800 -30.290600 -27.001400
C 4.189400 -30.040800 -29.713000
H 4.326800 -29.917400 -30.715700
C 4.868700 -31.061100 -27.658900
C 4.991100 -30.946800 -29.017000
H 5.522700 -31.467500 -29.486500
H 5.533500 -31.693200 -27.087300
50
Fragment
H -6.281600 -21.173900 -22.703500
H -6.184500 -21.008400 -20.363600
C -5.728700 -21.720200 -22.118500
C -5.699200 -21.556200 -20.770800
H -4.891200 -22.829300 -23.651400
C -4.864600 -22.647200 -22.688700
C -4.806500 -22.287600 -20.011100
H -4.765800 -22.302600 -18.986300
C -4.003300 -23.345500 -21.869700
N -3.951700 -23.196500 -20.529400
C -3.032900 -24.323700 -22.475500
O -2.970600 -24.471200 -23.698600
H -2.335000 -24.936200 -20.645000
N -2.253500 -24.990400 -21.607600
N -1.398400 -25.735300 -19.082500
H -1.373900 -25.703700 -17.075800
N -1.291100 -25.833100 -22.155600
C -1.063700 -26.021200 -17.848900
C -0.517400 -26.436600 -21.309900
C -0.493600 -26.424500 -19.868900
N 0.028900 -26.848900 -17.795500
H 0.151600 -27.073200 -21.770500
H 0.310900 -27.103200 -16.942500
C 0.377500 -27.098700 -19.072200
H 1.109600 -27.614900 -19.252800
H -2.008100 -24.936200 -26.776200
H -1.439800 -25.613400 -24.451100
C -1.283500 -25.544200 -26.555600
N -1.030900 -25.825600 -25.255300
H -0.888300 -25.673600 -29.205100
C -0.335800 -26.218400 -27.296100
C -0.204600 -26.189800 -28.717800
C 0.066700 -26.660800 -25.233100
H 0.400200 -26.937700 -24.362200
N 0.497800 -26.922700 -26.432700
N 0.625300 -26.803800 -29.504200
H 1.490200 -27.765400 -27.931400
N 1.537100 -27.648000 -28.882200
C 2.374400 -28.334300 -29.680500
O 2.393700 -28.203300 -30.906000
N 3.125200 -29.413300 -27.645600
C 3.264200 -29.309400 -28.966600
H 3.706900 -30.504300 -25.991300
C 3.922800 -30.290600 -27.001400
C 4.189400 -30.040800 -29.713000
H 4.326800 -29.917400 -30.715700
C 4.868700 -31.061100 -27.658900
C 4.991100 -30.946800 -29.017000
H 5.522700 -31.467500 -29.486500
H 5.533500 -31.693200 -27.087300
