25
Fragment
H -6.281600 -21.173900 -22.703500
H -6.184500 -21.008400 -20.363600
C -5.728700 -21.720200 -22.118500
C -5.699200 -21.556200 -20.770800
H -4.891200 -22.829300 -23.651400
C -4.864600 -22.647200 -22.688700
C -4.806500 -22.287600 -20.011100
H -4.765800 -22.302600 -18.986300
C -4.003300 -23.345500 -21.869700
N -3.951700 -23.196500 -20.529400
C -3.032900 -24.323700 -22.475500
O -2.970600 -24.471200 -23.698600
H -2.335000 -24.936200 -20.645000
N -2.253500 -24.990400 -21.607600
N -1.398400 -25.735300 -19.082500
H -1.373900 -25.703700 -17.075800
N -1.291100 -25.833100 -22.155600
C -1.063700 -26.021200 -17.848900
C -0.517400 -26.436600 -21.309900
C -0.493600 -26.424500 -19.868900
N 0.028900 -26.848900 -17.795500
H 0.151600 -27.073200 -21.770500
H 0.310900 -27.103200 -16.942500
C 0.377500 -27.098700 -19.072200
H 1.109600 -27.614900 -19.252800
25
Fragment
H 0.964000 -24.168700 -17.342400
H 0.974800 -23.943000 -14.943200
C 1.506300 -23.422300 -15.412600
C 1.628800 -23.536600 -16.770700
H 2.170700 -22.392900 -13.713900
C 2.308100 -22.516300 -14.716600
C 2.574700 -22.766100 -17.428300
H 2.790600 -22.979800 -18.438300
C 3.233200 -21.784900 -15.463000
N 3.372300 -21.888800 -16.784000
O 4.103800 -20.678800 -13.523600
C 4.123100 -20.809800 -14.749200
N 4.960300 -20.123500 -15.547400
H 5.007200 -20.240900 -16.498200
N 5.872200 -19.279300 -14.925400
N 5.999600 -19.398200 -17.997000
H 6.097300 -19.413200 -20.067400
C 6.430700 -19.136300 -19.196600
C 6.702100 -18.665300 -15.711800
C 6.833200 -18.693900 -17.133500
H 7.385800 -18.149100 -15.224500
N 7.528400 -18.301100 -19.174300
C 7.781000 -18.019700 -17.874000
H 7.937300 -18.088900 -19.978500
H 8.505600 -17.411700 -17.653400
50
Fragment
H -6.281600 -21.173900 -22.703500
H -6.184500 -21.008400 -20.363600
C -5.728700 -21.720200 -22.118500
C -5.699200 -21.556200 -20.770800
H -4.891200 -22.829300 -23.651400
C -4.864600 -22.647200 -22.688700
C -4.806500 -22.287600 -20.011100
H -4.765800 -22.302600 -18.986300
C -4.003300 -23.345500 -21.869700
N -3.951700 -23.196500 -20.529400
C -3.032900 -24.323700 -22.475500
O -2.970600 -24.471200 -23.698600
H -2.335000 -24.936200 -20.645000
N -2.253500 -24.990400 -21.607600
N -1.398400 -25.735300 -19.082500
H -1.373900 -25.703700 -17.075800
N -1.291100 -25.833100 -22.155600
C -1.063700 -26.021200 -17.848900
C -0.517400 -26.436600 -21.309900
C -0.493600 -26.424500 -19.868900
N 0.028900 -26.848900 -17.795500
H 0.151600 -27.073200 -21.770500
H 0.310900 -27.103200 -16.942500
C 0.377500 -27.098700 -19.072200
H 1.109600 -27.614900 -19.252800
H 0.964000 -24.168700 -17.342400
H 0.974800 -23.943000 -14.943200
C 1.506300 -23.422300 -15.412600
C 1.628800 -23.536600 -16.770700
H 2.170700 -22.392900 -13.713900
C 2.308100 -22.516300 -14.716600
C 2.574700 -22.766100 -17.428300
H 2.790600 -22.979800 -18.438300
C 3.233200 -21.784900 -15.463000
N 3.372300 -21.888800 -16.784000
O 4.103800 -20.678800 -13.523600
C 4.123100 -20.809800 -14.749200
N 4.960300 -20.123500 -15.547400
H 5.007200 -20.240900 -16.498200
N 5.872200 -19.279300 -14.925400
N 5.999600 -19.398200 -17.997000
H 6.097300 -19.413200 -20.067400
C 6.430700 -19.136300 -19.196600
C 6.702100 -18.665300 -15.711800
C 6.833200 -18.693900 -17.133500
H 7.385800 -18.149100 -15.224500
N 7.528400 -18.301100 -19.174300
C 7.781000 -18.019700 -17.874000
H 7.937300 -18.088900 -19.978500
H 8.505600 -17.411700 -17.653400
