25
Fragment
H -6.281600 -21.173900 -22.703500
H -6.184500 -21.008400 -20.363600
C -5.728700 -21.720200 -22.118500
C -5.699200 -21.556200 -20.770800
H -4.891200 -22.829300 -23.651400
C -4.864600 -22.647200 -22.688700
C -4.806500 -22.287600 -20.011100
H -4.765800 -22.302600 -18.986300
C -4.003300 -23.345500 -21.869700
N -3.951700 -23.196500 -20.529400
C -3.032900 -24.323700 -22.475500
O -2.970600 -24.471200 -23.698600
H -2.335000 -24.936200 -20.645000
N -2.253500 -24.990400 -21.607600
N -1.398400 -25.735300 -19.082500
H -1.373900 -25.703700 -17.075800
N -1.291100 -25.833100 -22.155600
C -1.063700 -26.021200 -17.848900
C -0.517400 -26.436600 -21.309900
C -0.493600 -26.424500 -19.868900
N 0.028900 -26.848900 -17.795500
H 0.151600 -27.073200 -21.770500
H 0.310900 -27.103200 -16.942500
C 0.377500 -27.098700 -19.072200
H 1.109600 -27.614900 -19.252800
25
Fragment
H -2.522400 -24.936200 -11.966400
H -1.954200 -25.613400 -9.641200
C -1.797800 -25.544200 -11.745700
N -1.545200 -25.825600 -10.445400
H -1.402600 -25.673600 -14.395200
C -0.850100 -26.218400 -12.486200
C -0.719000 -26.189800 -13.908000
C -0.447600 -26.660800 -10.423200
H -0.114200 -26.937700 -9.552400
N -0.016500 -26.922700 -11.622800
N 0.111000 -26.803800 -14.694400
H 0.975900 -27.765400 -13.121500
N 1.022800 -27.648000 -14.072300
C 1.860100 -28.334300 -14.870600
O 1.879400 -28.203300 -16.096100
N 2.610900 -29.413300 -12.835700
C 2.749900 -29.309400 -14.156800
H 3.192600 -30.504300 -11.181500
C 3.408500 -30.290600 -12.191500
C 3.675100 -30.040800 -14.903200
H 3.812400 -29.917400 -15.905800
C 4.354300 -31.061100 -12.849000
C 4.476800 -30.946800 -14.207100
H 5.008400 -31.467500 -14.676600
H 5.019200 -31.693200 -12.277400
50
Fragment
H -6.281600 -21.173900 -22.703500
H -6.184500 -21.008400 -20.363600
C -5.728700 -21.720200 -22.118500
C -5.699200 -21.556200 -20.770800
H -4.891200 -22.829300 -23.651400
C -4.864600 -22.647200 -22.688700
C -4.806500 -22.287600 -20.011100
H -4.765800 -22.302600 -18.986300
C -4.003300 -23.345500 -21.869700
N -3.951700 -23.196500 -20.529400
C -3.032900 -24.323700 -22.475500
O -2.970600 -24.471200 -23.698600
H -2.335000 -24.936200 -20.645000
N -2.253500 -24.990400 -21.607600
N -1.398400 -25.735300 -19.082500
H -1.373900 -25.703700 -17.075800
N -1.291100 -25.833100 -22.155600
C -1.063700 -26.021200 -17.848900
C -0.517400 -26.436600 -21.309900
C -0.493600 -26.424500 -19.868900
N 0.028900 -26.848900 -17.795500
H 0.151600 -27.073200 -21.770500
H 0.310900 -27.103200 -16.942500
C 0.377500 -27.098700 -19.072200
H 1.109600 -27.614900 -19.252800
H -2.522400 -24.936200 -11.966400
H -1.954200 -25.613400 -9.641200
C -1.797800 -25.544200 -11.745700
N -1.545200 -25.825600 -10.445400
H -1.402600 -25.673600 -14.395200
C -0.850100 -26.218400 -12.486200
C -0.719000 -26.189800 -13.908000
C -0.447600 -26.660800 -10.423200
H -0.114200 -26.937700 -9.552400
N -0.016500 -26.922700 -11.622800
N 0.111000 -26.803800 -14.694400
H 0.975900 -27.765400 -13.121500
N 1.022800 -27.648000 -14.072300
C 1.860100 -28.334300 -14.870600
O 1.879400 -28.203300 -16.096100
N 2.610900 -29.413300 -12.835700
C 2.749900 -29.309400 -14.156800
H 3.192600 -30.504300 -11.181500
C 3.408500 -30.290600 -12.191500
C 3.675100 -30.040800 -14.903200
H 3.812400 -29.917400 -15.905800
C 4.354300 -31.061100 -12.849000
C 4.476800 -30.946800 -14.207100
H 5.008400 -31.467500 -14.676600
H 5.019200 -31.693200 -12.277400
