25
Fragment
H -6.281600 -21.173900 -22.703500
H -6.184500 -21.008400 -20.363600
C -5.728700 -21.720200 -22.118500
C -5.699200 -21.556200 -20.770800
H -4.891200 -22.829300 -23.651400
C -4.864600 -22.647200 -22.688700
C -4.806500 -22.287600 -20.011100
H -4.765800 -22.302600 -18.986300
C -4.003300 -23.345500 -21.869700
N -3.951700 -23.196500 -20.529400
C -3.032900 -24.323700 -22.475500
O -2.970600 -24.471200 -23.698600
H -2.335000 -24.936200 -20.645000
N -2.253500 -24.990400 -21.607600
N -1.398400 -25.735300 -19.082500
H -1.373900 -25.703700 -17.075800
N -1.291100 -25.833100 -22.155600
C -1.063700 -26.021200 -17.848900
C -0.517400 -26.436600 -21.309900
C -0.493600 -26.424500 -19.868900
N 0.028900 -26.848900 -17.795500
H 0.151600 -27.073200 -21.770500
H 0.310900 -27.103200 -16.942500
C 0.377500 -27.098700 -19.072200
H 1.109600 -27.614900 -19.252800
3
Fragment
H 2.634500 -29.014500 -17.653400
O 2.655100 -29.420800 -18.490100
H 3.517500 -29.766900 -18.542000
28
Fragment
H -6.281600 -21.173900 -22.703500
H -6.184500 -21.008400 -20.363600
C -5.728700 -21.720200 -22.118500
C -5.699200 -21.556200 -20.770800
H -4.891200 -22.829300 -23.651400
C -4.864600 -22.647200 -22.688700
C -4.806500 -22.287600 -20.011100
H -4.765800 -22.302600 -18.986300
C -4.003300 -23.345500 -21.869700
N -3.951700 -23.196500 -20.529400
C -3.032900 -24.323700 -22.475500
O -2.970600 -24.471200 -23.698600
H -2.335000 -24.936200 -20.645000
N -2.253500 -24.990400 -21.607600
N -1.398400 -25.735300 -19.082500
H -1.373900 -25.703700 -17.075800
N -1.291100 -25.833100 -22.155600
C -1.063700 -26.021200 -17.848900
C -0.517400 -26.436600 -21.309900
C -0.493600 -26.424500 -19.868900
N 0.028900 -26.848900 -17.795500
H 0.151600 -27.073200 -21.770500
H 0.310900 -27.103200 -16.942500
C 0.377500 -27.098700 -19.072200
H 1.109600 -27.614900 -19.252800
H 2.634500 -29.014500 -17.653400
O 2.655100 -29.420800 -18.490100
H 3.517500 -29.766900 -18.542000
