18
Fragment
O -18.335200 -20.965800 -9.419900
O -17.724700 -18.894000 -9.367600
N -17.560500 -20.067100 -9.067500
H -16.833900 -22.482800 -8.140100
C -16.370300 -20.430500 -8.296300
C -16.189400 -21.765000 -7.966300
H -15.597400 -18.682900 -8.194400
O -15.553700 -24.320900 -7.315900
C -15.506800 -19.448900 -7.903900
C -15.070400 -22.080200 -7.208700
N -14.810700 -23.481000 -6.838000
C -14.415000 -19.819800 -7.156400
C -14.180500 -21.124200 -6.785700
O -13.886600 -23.716300 -6.088500
O -13.560000 -17.683100 -7.203200
H -13.498000 -21.351900 -6.395300
N -13.461700 -18.793000 -6.739500
O -12.601700 -19.124700 -5.922800
18
Fragment
H -19.117400 -21.351900 -5.716400
H -18.970000 -22.874800 -5.451600
N -18.500000 -22.024400 -5.622700
H -17.422300 -19.708300 -5.220800
C -17.394900 -21.698700 -4.848800
H -16.997200 -23.628800 -4.121000
C -16.977000 -20.365700 -4.744200
C -16.663300 -22.712000 -4.199700
C -15.825700 -20.046000 -4.051000
H -15.798800 -18.049600 -4.426500
C -15.517800 -22.368200 -3.488200
N -15.438300 -18.717600 -3.924800
C -15.082500 -21.057800 -3.421000
H -15.079300 -24.096200 -3.089000
N -14.813300 -23.346800 -2.755700
H -14.654200 -18.517000 -3.571100
H -14.335700 -20.884400 -2.905700
H -13.935800 -23.221700 -2.579900
36
Fragment
O -18.335200 -20.965800 -9.419900
O -17.724700 -18.894000 -9.367600
N -17.560500 -20.067100 -9.067500
H -16.833900 -22.482800 -8.140100
C -16.370300 -20.430500 -8.296300
C -16.189400 -21.765000 -7.966300
H -15.597400 -18.682900 -8.194400
O -15.553700 -24.320900 -7.315900
C -15.506800 -19.448900 -7.903900
C -15.070400 -22.080200 -7.208700
N -14.810700 -23.481000 -6.838000
C -14.415000 -19.819800 -7.156400
C -14.180500 -21.124200 -6.785700
O -13.886600 -23.716300 -6.088500
O -13.560000 -17.683100 -7.203200
H -13.498000 -21.351900 -6.395300
N -13.461700 -18.793000 -6.739500
O -12.601700 -19.124700 -5.922800
H -19.117400 -21.351900 -5.716400
H -18.970000 -22.874800 -5.451600
N -18.500000 -22.024400 -5.622700
H -17.422300 -19.708300 -5.220800
C -17.394900 -21.698700 -4.848800
H -16.997200 -23.628800 -4.121000
C -16.977000 -20.365700 -4.744200
C -16.663300 -22.712000 -4.199700
C -15.825700 -20.046000 -4.051000
H -15.798800 -18.049600 -4.426500
C -15.517800 -22.368200 -3.488200
N -15.438300 -18.717600 -3.924800
C -15.082500 -21.057800 -3.421000
H -15.079300 -24.096200 -3.089000
N -14.813300 -23.346800 -2.755700
H -14.654200 -18.517000 -3.571100
H -14.335700 -20.884400 -2.905700
H -13.935800 -23.221700 -2.579900
