18
Fragment
O -18.335200 -20.965800 -9.419900
O -17.724700 -18.894000 -9.367600
N -17.560500 -20.067100 -9.067500
H -16.833900 -22.482800 -8.140100
C -16.370300 -20.430500 -8.296300
C -16.189400 -21.765000 -7.966300
H -15.597400 -18.682900 -8.194400
O -15.553700 -24.320900 -7.315900
C -15.506800 -19.448900 -7.903900
C -15.070400 -22.080200 -7.208700
N -14.810700 -23.481000 -6.838000
C -14.415000 -19.819800 -7.156400
C -14.180500 -21.124200 -6.785700
O -13.886600 -23.716300 -6.088500
O -13.560000 -17.683100 -7.203200
H -13.498000 -21.351900 -6.395300
N -13.461700 -18.793000 -6.739500
O -12.601700 -19.124700 -5.922800
18
Fragment
H -24.519000 -16.345600 -12.505500
H -24.371600 -14.822700 -12.240700
N -23.901600 -15.673100 -12.411800
H -22.823800 -17.989200 -12.009900
C -22.796400 -15.998800 -11.637900
H -22.398800 -14.068700 -10.910100
C -22.378600 -17.331800 -11.533300
C -22.064900 -14.985500 -10.988800
C -21.227300 -17.651500 -10.840100
H -21.200400 -19.647900 -11.215600
C -20.919400 -15.329300 -10.277300
N -20.839900 -18.979900 -10.713900
C -20.484100 -16.639700 -10.210100
H -20.480800 -13.601300 -9.878100
N -20.214900 -14.350700 -9.544800
H -20.055700 -19.180500 -10.360100
H -19.737300 -16.813100 -9.694800
H -19.337400 -14.475800 -9.368900
36
Fragment
O -18.335200 -20.965800 -9.419900
O -17.724700 -18.894000 -9.367600
N -17.560500 -20.067100 -9.067500
H -16.833900 -22.482800 -8.140100
C -16.370300 -20.430500 -8.296300
C -16.189400 -21.765000 -7.966300
H -15.597400 -18.682900 -8.194400
O -15.553700 -24.320900 -7.315900
C -15.506800 -19.448900 -7.903900
C -15.070400 -22.080200 -7.208700
N -14.810700 -23.481000 -6.838000
C -14.415000 -19.819800 -7.156400
C -14.180500 -21.124200 -6.785700
O -13.886600 -23.716300 -6.088500
O -13.560000 -17.683100 -7.203200
H -13.498000 -21.351900 -6.395300
N -13.461700 -18.793000 -6.739500
O -12.601700 -19.124700 -5.922800
H -24.519000 -16.345600 -12.505500
H -24.371600 -14.822700 -12.240700
N -23.901600 -15.673100 -12.411800
H -22.823800 -17.989200 -12.009900
C -22.796400 -15.998800 -11.637900
H -22.398800 -14.068700 -10.910100
C -22.378600 -17.331800 -11.533300
C -22.064900 -14.985500 -10.988800
C -21.227300 -17.651500 -10.840100
H -21.200400 -19.647900 -11.215600
C -20.919400 -15.329300 -10.277300
N -20.839900 -18.979900 -10.713900
C -20.484100 -16.639700 -10.210100
H -20.480800 -13.601300 -9.878100
N -20.214900 -14.350700 -9.544800
H -20.055700 -19.180500 -10.360100
H -19.737300 -16.813100 -9.694800
H -19.337400 -14.475800 -9.368900
