18
Fragment
O -18.335200 -20.965800 -9.419900
O -17.724700 -18.894000 -9.367600
N -17.560500 -20.067100 -9.067500
H -16.833900 -22.482800 -8.140100
C -16.370300 -20.430500 -8.296300
C -16.189400 -21.765000 -7.966300
H -15.597400 -18.682900 -8.194400
O -15.553700 -24.320900 -7.315900
C -15.506800 -19.448900 -7.903900
C -15.070400 -22.080200 -7.208700
N -14.810700 -23.481000 -6.838000
C -14.415000 -19.819800 -7.156400
C -14.180500 -21.124200 -6.785700
O -13.886600 -23.716300 -6.088500
O -13.560000 -17.683100 -7.203200
H -13.498000 -21.351900 -6.395300
N -13.461700 -18.793000 -6.739500
O -12.601700 -19.124700 -5.922800
18
Fragment
O -19.296000 -26.664200 -7.655400
N -18.435900 -26.332500 -6.838600
H -18.399700 -28.891400 -7.182900
O -18.337700 -25.222600 -6.375000
O -18.011000 -31.255800 -7.489700
C -17.717100 -28.663700 -6.792500
C -17.482700 -27.359300 -6.421800
N -17.087000 -31.020500 -6.740200
C -16.827200 -29.619700 -6.369500
C -16.390800 -26.988400 -5.674300
O -16.343900 -31.860400 -6.262300
H -16.300300 -26.222400 -5.383700
C -15.708300 -29.304500 -5.611900
C -15.527400 -27.970000 -5.281900
H -15.063800 -30.022300 -5.438100
N -14.337200 -27.606600 -4.510700
O -14.172900 -26.433500 -4.210600
O -13.562500 -28.505300 -4.158300
36
Fragment
O -18.335200 -20.965800 -9.419900
O -17.724700 -18.894000 -9.367600
N -17.560500 -20.067100 -9.067500
H -16.833900 -22.482800 -8.140100
C -16.370300 -20.430500 -8.296300
C -16.189400 -21.765000 -7.966300
H -15.597400 -18.682900 -8.194400
O -15.553700 -24.320900 -7.315900
C -15.506800 -19.448900 -7.903900
C -15.070400 -22.080200 -7.208700
N -14.810700 -23.481000 -6.838000
C -14.415000 -19.819800 -7.156400
C -14.180500 -21.124200 -6.785700
O -13.886600 -23.716300 -6.088500
O -13.560000 -17.683100 -7.203200
H -13.498000 -21.351900 -6.395300
N -13.461700 -18.793000 -6.739500
O -12.601700 -19.124700 -5.922800
O -19.296000 -26.664200 -7.655400
N -18.435900 -26.332500 -6.838600
H -18.399700 -28.891400 -7.182900
O -18.337700 -25.222600 -6.375000
O -18.011000 -31.255800 -7.489700
C -17.717100 -28.663700 -6.792500
C -17.482700 -27.359300 -6.421800
N -17.087000 -31.020500 -6.740200
C -16.827200 -29.619700 -6.369500
C -16.390800 -26.988400 -5.674300
O -16.343900 -31.860400 -6.262300
H -16.300300 -26.222400 -5.383700
C -15.708300 -29.304500 -5.611900
C -15.527400 -27.970000 -5.281900
H -15.063800 -30.022300 -5.438100
N -14.337200 -27.606600 -4.510700
O -14.172900 -26.433500 -4.210600
O -13.562500 -28.505300 -4.158300
