18
Fragment
O -18.335200 -20.965800 -9.419900
O -17.724700 -18.894000 -9.367600
N -17.560500 -20.067100 -9.067500
H -16.833900 -22.482800 -8.140100
C -16.370300 -20.430500 -8.296300
C -16.189400 -21.765000 -7.966300
H -15.597400 -18.682900 -8.194400
O -15.553700 -24.320900 -7.315900
C -15.506800 -19.448900 -7.903900
C -15.070400 -22.080200 -7.208700
N -14.810700 -23.481000 -6.838000
C -14.415000 -19.819800 -7.156400
C -14.180500 -21.124200 -6.785700
O -13.886600 -23.716300 -6.088500
O -13.560000 -17.683100 -7.203200
H -13.498000 -21.351900 -6.395300
N -13.461700 -18.793000 -6.739500
O -12.601700 -19.124700 -5.922800
18
Fragment
H -12.085900 -16.345600 -5.716400
H -11.938500 -14.822700 -5.451600
N -11.468500 -15.673100 -5.622700
H -10.390800 -17.989200 -5.220800
C -10.363400 -15.998800 -4.848800
H -9.965700 -14.068700 -4.121000
C -9.945500 -17.331800 -4.744200
C -9.631800 -14.985500 -4.199700
C -8.794200 -17.651500 -4.051000
H -8.767300 -19.647900 -4.426500
C -8.486300 -15.329300 -3.488200
N -8.406800 -18.979900 -3.924800
C -8.051000 -16.639700 -3.421000
H -8.047800 -13.601300 -3.089000
N -7.781800 -14.350700 -2.755700
H -7.622700 -19.180500 -3.571100
H -7.304200 -16.813100 -2.905700
H -6.904300 -14.475800 -2.579900
36
Fragment
O -18.335200 -20.965800 -9.419900
O -17.724700 -18.894000 -9.367600
N -17.560500 -20.067100 -9.067500
H -16.833900 -22.482800 -8.140100
C -16.370300 -20.430500 -8.296300
C -16.189400 -21.765000 -7.966300
H -15.597400 -18.682900 -8.194400
O -15.553700 -24.320900 -7.315900
C -15.506800 -19.448900 -7.903900
C -15.070400 -22.080200 -7.208700
N -14.810700 -23.481000 -6.838000
C -14.415000 -19.819800 -7.156400
C -14.180500 -21.124200 -6.785700
O -13.886600 -23.716300 -6.088500
O -13.560000 -17.683100 -7.203200
H -13.498000 -21.351900 -6.395300
N -13.461700 -18.793000 -6.739500
O -12.601700 -19.124700 -5.922800
H -12.085900 -16.345600 -5.716400
H -11.938500 -14.822700 -5.451600
N -11.468500 -15.673100 -5.622700
H -10.390800 -17.989200 -5.220800
C -10.363400 -15.998800 -4.848800
H -9.965700 -14.068700 -4.121000
C -9.945500 -17.331800 -4.744200
C -9.631800 -14.985500 -4.199700
C -8.794200 -17.651500 -4.051000
H -8.767300 -19.647900 -4.426500
C -8.486300 -15.329300 -3.488200
N -8.406800 -18.979900 -3.924800
C -8.051000 -16.639700 -3.421000
H -8.047800 -13.601300 -3.089000
N -7.781800 -14.350700 -2.755700
H -7.622700 -19.180500 -3.571100
H -7.304200 -16.813100 -2.905700
H -6.904300 -14.475800 -2.579900
