18
Fragment
O -18.335200 -20.965800 -9.419900
O -17.724700 -18.894000 -9.367600
N -17.560500 -20.067100 -9.067500
H -16.833900 -22.482800 -8.140100
C -16.370300 -20.430500 -8.296300
C -16.189400 -21.765000 -7.966300
H -15.597400 -18.682900 -8.194400
O -15.553700 -24.320900 -7.315900
C -15.506800 -19.448900 -7.903900
C -15.070400 -22.080200 -7.208700
N -14.810700 -23.481000 -6.838000
C -14.415000 -19.819800 -7.156400
C -14.180500 -21.124200 -6.785700
O -13.886600 -23.716300 -6.088500
O -13.560000 -17.683100 -7.203200
H -13.498000 -21.351900 -6.395300
N -13.461700 -18.793000 -6.739500
O -12.601700 -19.124700 -5.922800
18
Fragment
H -17.487500 -21.351900 -12.505500
H -17.340100 -22.874800 -12.240700
N -16.870100 -22.024400 -12.411800
H -15.792300 -19.708300 -12.009900
C -15.764900 -21.698700 -11.637900
H -15.367300 -23.628800 -10.910100
C -15.347100 -20.365700 -11.533300
C -15.033400 -22.712000 -10.988800
C -14.195800 -20.046000 -10.840100
H -14.168900 -18.049600 -11.215600
C -13.887900 -22.368200 -10.277300
N -13.808400 -18.717600 -10.713900
C -13.452600 -21.057800 -10.210100
H -13.449300 -24.096200 -9.878100
N -13.183400 -23.346800 -9.544800
H -13.024200 -18.517000 -10.360100
H -12.705800 -20.884400 -9.694800
H -12.305900 -23.221700 -9.368900
36
Fragment
O -18.335200 -20.965800 -9.419900
O -17.724700 -18.894000 -9.367600
N -17.560500 -20.067100 -9.067500
H -16.833900 -22.482800 -8.140100
C -16.370300 -20.430500 -8.296300
C -16.189400 -21.765000 -7.966300
H -15.597400 -18.682900 -8.194400
O -15.553700 -24.320900 -7.315900
C -15.506800 -19.448900 -7.903900
C -15.070400 -22.080200 -7.208700
N -14.810700 -23.481000 -6.838000
C -14.415000 -19.819800 -7.156400
C -14.180500 -21.124200 -6.785700
O -13.886600 -23.716300 -6.088500
O -13.560000 -17.683100 -7.203200
H -13.498000 -21.351900 -6.395300
N -13.461700 -18.793000 -6.739500
O -12.601700 -19.124700 -5.922800
H -17.487500 -21.351900 -12.505500
H -17.340100 -22.874800 -12.240700
N -16.870100 -22.024400 -12.411800
H -15.792300 -19.708300 -12.009900
C -15.764900 -21.698700 -11.637900
H -15.367300 -23.628800 -10.910100
C -15.347100 -20.365700 -11.533300
C -15.033400 -22.712000 -10.988800
C -14.195800 -20.046000 -10.840100
H -14.168900 -18.049600 -11.215600
C -13.887900 -22.368200 -10.277300
N -13.808400 -18.717600 -10.713900
C -13.452600 -21.057800 -10.210100
H -13.449300 -24.096200 -9.878100
N -13.183400 -23.346800 -9.544800
H -13.024200 -18.517000 -10.360100
H -12.705800 -20.884400 -9.694800
H -12.305900 -23.221700 -9.368900
