17
Fragment
H -18.575300 -8.895500 -27.564100
H -17.918300 -7.518000 -27.417000
C -17.754900 -8.362900 -27.754600
H -17.641000 -8.269800 -28.675300
N -16.697500 -9.862100 -26.153400
C -16.533400 -8.902700 -27.082900
H -16.315200 -11.989900 -24.800300
H -15.944400 -10.952000 -23.764600
C -15.660100 -11.360400 -24.560900
C -15.546800 -10.304000 -25.597000
N -15.377700 -8.366300 -27.439200
H -14.804200 -11.762000 -24.407900
N -14.334000 -9.857300 -25.885800
C -14.282400 -8.866300 -26.811000
N -13.105600 -8.347400 -27.112300
H -13.067900 -7.712000 -27.683000
H -12.360100 -8.652900 -26.679300
17
Fragment
H -25.947300 -10.748300 -29.916600
H -25.239600 -11.689200 -28.913000
N -25.201800 -11.053800 -29.483700
C -24.025100 -10.534900 -29.784900
N -23.973400 -9.543900 -30.710100
H -23.503200 -7.639200 -32.188000
N -22.929700 -11.034900 -29.156700
C -22.760700 -9.097200 -30.998900
C -22.647300 -8.040800 -32.035000
H -22.363000 -8.449200 -32.831300
H -21.992200 -7.411300 -31.795600
C -21.774000 -10.498500 -29.513100
N -21.609900 -9.539100 -30.442600
H -20.666400 -11.131400 -27.920700
C -20.552600 -11.038300 -28.841300
H -20.389100 -11.883200 -29.179000
H -19.732100 -10.505700 -29.031800
34
Fragment
H -18.575300 -8.895500 -27.564100
H -17.918300 -7.518000 -27.417000
C -17.754900 -8.362900 -27.754600
H -17.641000 -8.269800 -28.675300
N -16.697500 -9.862100 -26.153400
C -16.533400 -8.902700 -27.082900
H -16.315200 -11.989900 -24.800300
H -15.944400 -10.952000 -23.764600
C -15.660100 -11.360400 -24.560900
C -15.546800 -10.304000 -25.597000
N -15.377700 -8.366300 -27.439200
H -14.804200 -11.762000 -24.407900
N -14.334000 -9.857300 -25.885800
C -14.282400 -8.866300 -26.811000
N -13.105600 -8.347400 -27.112300
H -13.067900 -7.712000 -27.683000
H -12.360100 -8.652900 -26.679300
H -25.947300 -10.748300 -29.916600
H -25.239600 -11.689200 -28.913000
N -25.201800 -11.053800 -29.483700
C -24.025100 -10.534900 -29.784900
N -23.973400 -9.543900 -30.710100
H -23.503200 -7.639200 -32.188000
N -22.929700 -11.034900 -29.156700
C -22.760700 -9.097200 -30.998900
C -22.647300 -8.040800 -32.035000
H -22.363000 -8.449200 -32.831300
H -21.992200 -7.411300 -31.795600
C -21.774000 -10.498500 -29.513100
N -21.609900 -9.539100 -30.442600
H -20.666400 -11.131400 -27.920700
C -20.552600 -11.038300 -28.841300
H -20.389100 -11.883200 -29.179000
H -19.732100 -10.505700 -29.031800
