17
Fragment
H -18.575300 -8.895500 -27.564100
H -17.918300 -7.518000 -27.417000
C -17.754900 -8.362900 -27.754600
H -17.641000 -8.269800 -28.675300
N -16.697500 -9.862100 -26.153400
C -16.533400 -8.902700 -27.082900
H -16.315200 -11.989900 -24.800300
H -15.944400 -10.952000 -23.764600
C -15.660100 -11.360400 -24.560900
C -15.546800 -10.304000 -25.597000
N -15.377700 -8.366300 -27.439200
H -14.804200 -11.762000 -24.407900
N -14.334000 -9.857300 -25.885800
C -14.282400 -8.866300 -26.811000
N -13.105600 -8.347400 -27.112300
H -13.067900 -7.712000 -27.683000
H -12.360100 -8.652900 -26.679300
9
Fragment
H -12.441200 -5.873700 -25.168200
N -11.650100 -6.213200 -24.879400
H -11.524300 -7.037800 -24.900300
N -10.708800 -4.246000 -25.607800
C -10.566200 -5.434300 -25.113700
H -9.911400 -3.841400 -25.647400
H -9.366600 -6.737100 -24.345700
N -9.366000 -5.960500 -24.727500
H -8.594000 -5.636000 -25.124800
26
Fragment
H -18.575300 -8.895500 -27.564100
H -17.918300 -7.518000 -27.417000
C -17.754900 -8.362900 -27.754600
H -17.641000 -8.269800 -28.675300
N -16.697500 -9.862100 -26.153400
C -16.533400 -8.902700 -27.082900
H -16.315200 -11.989900 -24.800300
H -15.944400 -10.952000 -23.764600
C -15.660100 -11.360400 -24.560900
C -15.546800 -10.304000 -25.597000
N -15.377700 -8.366300 -27.439200
H -14.804200 -11.762000 -24.407900
N -14.334000 -9.857300 -25.885800
C -14.282400 -8.866300 -26.811000
N -13.105600 -8.347400 -27.112300
H -13.067900 -7.712000 -27.683000
H -12.360100 -8.652900 -26.679300
H -12.441200 -5.873700 -25.168200
N -11.650100 -6.213200 -24.879400
H -11.524300 -7.037800 -24.900300
N -10.708800 -4.246000 -25.607800
C -10.566200 -5.434300 -25.113700
H -9.911400 -3.841400 -25.647400
H -9.366600 -6.737100 -24.345700
N -9.366000 -5.960500 -24.727500
H -8.594000 -5.636000 -25.124800
