17
Fragment
H -18.575300 -8.895500 -27.564100
H -17.918300 -7.518000 -27.417000
C -17.754900 -8.362900 -27.754600
H -17.641000 -8.269800 -28.675300
N -16.697500 -9.862100 -26.153400
C -16.533400 -8.902700 -27.082900
H -16.315200 -11.989900 -24.800300
H -15.944400 -10.952000 -23.764600
C -15.660100 -11.360400 -24.560900
C -15.546800 -10.304000 -25.597000
N -15.377700 -8.366300 -27.439200
H -14.804200 -11.762000 -24.407900
N -14.334000 -9.857300 -25.885800
C -14.282400 -8.866300 -26.811000
N -13.105600 -8.347400 -27.112300
H -13.067900 -7.712000 -27.683000
H -12.360100 -8.652900 -26.679300
17
Fragment
H -16.256700 -11.078100 -20.484000
H -15.548900 -10.137100 -19.480300
N -15.511100 -10.772500 -20.051000
C -14.334400 -11.291500 -20.352300
N -14.282700 -12.282400 -21.277400
H -13.812600 -14.187100 -22.755300
N -13.239000 -10.791400 -19.724100
C -13.070000 -12.729100 -21.566300
C -12.956700 -13.785500 -22.602300
H -12.672300 -13.377100 -23.398600
H -12.301600 -14.415100 -22.362900
C -12.083400 -11.327900 -20.080400
N -11.919200 -12.287300 -21.009900
H -10.975800 -10.694900 -18.488000
C -10.861900 -10.788000 -19.408600
H -10.698500 -9.943100 -19.746300
H -10.041500 -11.320600 -19.599200
34
Fragment
H -18.575300 -8.895500 -27.564100
H -17.918300 -7.518000 -27.417000
C -17.754900 -8.362900 -27.754600
H -17.641000 -8.269800 -28.675300
N -16.697500 -9.862100 -26.153400
C -16.533400 -8.902700 -27.082900
H -16.315200 -11.989900 -24.800300
H -15.944400 -10.952000 -23.764600
C -15.660100 -11.360400 -24.560900
C -15.546800 -10.304000 -25.597000
N -15.377700 -8.366300 -27.439200
H -14.804200 -11.762000 -24.407900
N -14.334000 -9.857300 -25.885800
C -14.282400 -8.866300 -26.811000
N -13.105600 -8.347400 -27.112300
H -13.067900 -7.712000 -27.683000
H -12.360100 -8.652900 -26.679300
H -16.256700 -11.078100 -20.484000
H -15.548900 -10.137100 -19.480300
N -15.511100 -10.772500 -20.051000
C -14.334400 -11.291500 -20.352300
N -14.282700 -12.282400 -21.277400
H -13.812600 -14.187100 -22.755300
N -13.239000 -10.791400 -19.724100
C -13.070000 -12.729100 -21.566300
C -12.956700 -13.785500 -22.602300
H -12.672300 -13.377100 -23.398600
H -12.301600 -14.415100 -22.362900
C -12.083400 -11.327900 -20.080400
N -11.919200 -12.287300 -21.009900
H -10.975800 -10.694900 -18.488000
C -10.861900 -10.788000 -19.408600
H -10.698500 -9.943100 -19.746300
H -10.041500 -11.320600 -19.599200
