17
Fragment
H -18.575300 -8.895500 -27.564100
H -17.918300 -7.518000 -27.417000
C -17.754900 -8.362900 -27.754600
H -17.641000 -8.269800 -28.675300
N -16.697500 -9.862100 -26.153400
C -16.533400 -8.902700 -27.082900
H -16.315200 -11.989900 -24.800300
H -15.944400 -10.952000 -23.764600
C -15.660100 -11.360400 -24.560900
C -15.546800 -10.304000 -25.597000
N -15.377700 -8.366300 -27.439200
H -14.804200 -11.762000 -24.407900
N -14.334000 -9.857300 -25.885800
C -14.282400 -8.866300 -26.811000
N -13.105600 -8.347400 -27.112300
H -13.067900 -7.712000 -27.683000
H -12.360100 -8.652900 -26.679300
9
Fragment
H -19.795200 -8.914900 -31.471100
N -19.023200 -8.590400 -31.868400
H -19.022700 -7.813800 -32.250200
H -18.477800 -10.709500 -30.948500
C -17.823000 -9.116600 -31.482200
N -17.680400 -10.304900 -30.988200
H -16.864900 -7.513100 -31.695600
N -16.739100 -8.337700 -31.716500
H -15.948000 -8.677200 -31.427700
26
Fragment
H -18.575300 -8.895500 -27.564100
H -17.918300 -7.518000 -27.417000
C -17.754900 -8.362900 -27.754600
H -17.641000 -8.269800 -28.675300
N -16.697500 -9.862100 -26.153400
C -16.533400 -8.902700 -27.082900
H -16.315200 -11.989900 -24.800300
H -15.944400 -10.952000 -23.764600
C -15.660100 -11.360400 -24.560900
C -15.546800 -10.304000 -25.597000
N -15.377700 -8.366300 -27.439200
H -14.804200 -11.762000 -24.407900
N -14.334000 -9.857300 -25.885800
C -14.282400 -8.866300 -26.811000
N -13.105600 -8.347400 -27.112300
H -13.067900 -7.712000 -27.683000
H -12.360100 -8.652900 -26.679300
H -19.795200 -8.914900 -31.471100
N -19.023200 -8.590400 -31.868400
H -19.022700 -7.813800 -32.250200
H -18.477800 -10.709500 -30.948500
C -17.823000 -9.116600 -31.482200
N -17.680400 -10.304900 -30.988200
H -16.864900 -7.513100 -31.695600
N -16.739100 -8.337700 -31.716500
H -15.948000 -8.677200 -31.427700
