17
Fragment
H -18.575300 -8.895500 -27.564100
H -17.918300 -7.518000 -27.417000
C -17.754900 -8.362900 -27.754600
H -17.641000 -8.269800 -28.675300
N -16.697500 -9.862100 -26.153400
C -16.533400 -8.902700 -27.082900
H -16.315200 -11.989900 -24.800300
H -15.944400 -10.952000 -23.764600
C -15.660100 -11.360400 -24.560900
C -15.546800 -10.304000 -25.597000
N -15.377700 -8.366300 -27.439200
H -14.804200 -11.762000 -24.407900
N -14.334000 -9.857300 -25.885800
C -14.282400 -8.866300 -26.811000
N -13.105600 -8.347400 -27.112300
H -13.067900 -7.712000 -27.683000
H -12.360100 -8.652900 -26.679300
17
Fragment
H -18.575300 -4.045200 -27.564100
H -17.918300 -2.667700 -27.417000
C -17.754900 -3.512600 -27.754600
H -17.641000 -3.419500 -28.675300
N -16.697500 -5.011800 -26.153400
C -16.533400 -4.052400 -27.082900
H -16.315200 -7.139600 -24.800300
H -15.944400 -6.101700 -23.764600
C -15.660100 -6.510100 -24.560900
C -15.546800 -5.453700 -25.597000
N -15.377700 -3.516000 -27.439200
H -14.804200 -6.911700 -24.407900
N -14.334000 -5.007000 -25.885800
C -14.282400 -4.016000 -26.811000
N -13.105600 -3.497100 -27.112300
H -13.067900 -2.861700 -27.683000
H -12.360100 -3.802600 -26.679300
34
Fragment
H -18.575300 -8.895500 -27.564100
H -17.918300 -7.518000 -27.417000
C -17.754900 -8.362900 -27.754600
H -17.641000 -8.269800 -28.675300
N -16.697500 -9.862100 -26.153400
C -16.533400 -8.902700 -27.082900
H -16.315200 -11.989900 -24.800300
H -15.944400 -10.952000 -23.764600
C -15.660100 -11.360400 -24.560900
C -15.546800 -10.304000 -25.597000
N -15.377700 -8.366300 -27.439200
H -14.804200 -11.762000 -24.407900
N -14.334000 -9.857300 -25.885800
C -14.282400 -8.866300 -26.811000
N -13.105600 -8.347400 -27.112300
H -13.067900 -7.712000 -27.683000
H -12.360100 -8.652900 -26.679300
H -18.575300 -4.045200 -27.564100
H -17.918300 -2.667700 -27.417000
C -17.754900 -3.512600 -27.754600
H -17.641000 -3.419500 -28.675300
N -16.697500 -5.011800 -26.153400
C -16.533400 -4.052400 -27.082900
H -16.315200 -7.139600 -24.800300
H -15.944400 -6.101700 -23.764600
C -15.660100 -6.510100 -24.560900
C -15.546800 -5.453700 -25.597000
N -15.377700 -3.516000 -27.439200
H -14.804200 -6.911700 -24.407900
N -14.334000 -5.007000 -25.885800
C -14.282400 -4.016000 -26.811000
N -13.105600 -3.497100 -27.112300
H -13.067900 -2.861700 -27.683000
H -12.360100 -3.802600 -26.679300
