17
Fragment
H -18.575300 -8.895500 -27.564100
H -17.918300 -7.518000 -27.417000
C -17.754900 -8.362900 -27.754600
H -17.641000 -8.269800 -28.675300
N -16.697500 -9.862100 -26.153400
C -16.533400 -8.902700 -27.082900
H -16.315200 -11.989900 -24.800300
H -15.944400 -10.952000 -23.764600
C -15.660100 -11.360400 -24.560900
C -15.546800 -10.304000 -25.597000
N -15.377700 -8.366300 -27.439200
H -14.804200 -11.762000 -24.407900
N -14.334000 -9.857300 -25.885800
C -14.282400 -8.866300 -26.811000
N -13.105600 -8.347400 -27.112300
H -13.067900 -7.712000 -27.683000
H -12.360100 -8.652900 -26.679300
17
Fragment
H -18.575300 -13.745800 -27.564100
H -17.918300 -12.368300 -27.417000
C -17.754900 -13.213200 -27.754600
H -17.641000 -13.120100 -28.675300
N -16.697500 -14.712400 -26.153400
C -16.533400 -13.753000 -27.082900
H -16.315200 -16.840200 -24.800300
H -15.944400 -15.802300 -23.764600
C -15.660100 -16.210700 -24.560900
C -15.546800 -15.154300 -25.597000
N -15.377700 -13.216600 -27.439200
H -14.804200 -16.612300 -24.407900
N -14.334000 -14.707600 -25.885800
C -14.282400 -13.716600 -26.811000
N -13.105600 -13.197700 -27.112300
H -13.067900 -12.562300 -27.683000
H -12.360100 -13.503200 -26.679300
34
Fragment
H -18.575300 -8.895500 -27.564100
H -17.918300 -7.518000 -27.417000
C -17.754900 -8.362900 -27.754600
H -17.641000 -8.269800 -28.675300
N -16.697500 -9.862100 -26.153400
C -16.533400 -8.902700 -27.082900
H -16.315200 -11.989900 -24.800300
H -15.944400 -10.952000 -23.764600
C -15.660100 -11.360400 -24.560900
C -15.546800 -10.304000 -25.597000
N -15.377700 -8.366300 -27.439200
H -14.804200 -11.762000 -24.407900
N -14.334000 -9.857300 -25.885800
C -14.282400 -8.866300 -26.811000
N -13.105600 -8.347400 -27.112300
H -13.067900 -7.712000 -27.683000
H -12.360100 -8.652900 -26.679300
H -18.575300 -13.745800 -27.564100
H -17.918300 -12.368300 -27.417000
C -17.754900 -13.213200 -27.754600
H -17.641000 -13.120100 -28.675300
N -16.697500 -14.712400 -26.153400
C -16.533400 -13.753000 -27.082900
H -16.315200 -16.840200 -24.800300
H -15.944400 -15.802300 -23.764600
C -15.660100 -16.210700 -24.560900
C -15.546800 -15.154300 -25.597000
N -15.377700 -13.216600 -27.439200
H -14.804200 -16.612300 -24.407900
N -14.334000 -14.707600 -25.885800
C -14.282400 -13.716600 -26.811000
N -13.105600 -13.197700 -27.112300
H -13.067900 -12.562300 -27.683000
H -12.360100 -13.503200 -26.679300
