45
Fragment
H -17.140100 -10.073800 -13.509900
H -17.027100 -11.739500 -12.007400
C -16.470400 -10.713900 -13.590600
C -16.400100 -11.700600 -12.693600
H -16.278100 -8.974900 -15.591000
H -15.863800 -13.771700 -11.118300
C -15.595100 -9.603700 -15.630200
C -15.542100 -10.616600 -14.671500
C -15.372500 -12.704100 -12.766500
N -15.287000 -10.031400 -19.917900
C -15.250500 -13.718200 -11.815700
H -14.733700 -8.827800 -17.242600
C -14.666100 -9.518600 -16.623600
C -14.503400 -11.578400 -14.776900
C -14.430800 -12.632600 -13.818300
C -14.241700 -14.631500 -11.899800
C -14.208600 -10.015800 -19.557900
H -14.175500 -15.298800 -11.256200
C -13.617300 -10.432300 -16.743600
C -13.535500 -11.483400 -15.804600
C -13.385400 -13.591000 -13.886700
C -13.321800 -14.580800 -12.920100
H -13.001200 -10.098600 -21.720800
C -12.836400 -10.028200 -19.097100
H -12.646500 -15.219900 -12.960500
C -12.613900 -10.281700 -17.788600
C -12.511800 -12.486100 -15.855600
C -12.444800 -13.480700 -14.942900
C -12.116800 -9.945900 -21.475300
H -11.877700 -12.450100 -16.533900
C -11.804300 -9.845900 -20.128600
H -11.763000 -14.109800 -15.010100
H -11.725700 -10.368700 -17.528500
H -11.406700 -9.915400 -23.352200
C -11.164600 -9.827600 -22.458600
C -10.474200 -9.568200 -19.819200
H -10.227200 -9.466700 -18.927800
C -9.856600 -9.579300 -22.124500
H -9.805300 -9.040200 -24.682000
C -9.527000 -9.440400 -20.793500
H -9.473600 -10.563600 -24.516100
C -9.140200 -9.670500 -24.397200
O -8.840900 -9.455300 -23.016500
H -8.646300 -9.257800 -20.555800
H -8.343600 -9.554300 -24.919700
45
Fragment
H -5.962000 -8.913800 -24.722400
H -5.849000 -10.579600 -23.219900
C -5.292200 -9.553900 -24.803100
C -5.221900 -10.540700 -23.906100
H -5.100000 -7.814900 -26.803400
H -4.685600 -12.611800 -22.330800
C -4.417000 -8.443800 -26.842700
C -4.363900 -9.456600 -25.884000
C -4.194400 -11.544200 -23.979000
N -4.108800 -8.871400 -31.130300
C -4.072300 -12.558300 -23.028200
H -3.555500 -7.667900 -28.455000
C -3.487900 -8.358600 -27.836100
C -3.325300 -10.418400 -25.989400
C -3.252600 -11.472700 -25.030700
C -3.063600 -13.471500 -23.112300
C -3.030500 -8.855800 -30.770400
H -2.997400 -14.138900 -22.468700
C -2.439100 -9.272300 -27.956100
C -2.357300 -10.323500 -27.017000
C -2.207300 -12.431000 -25.099100
C -2.143600 -13.420900 -24.132600
H -1.823000 -8.938700 -32.933300
C -1.658300 -8.868300 -30.309600
H -1.468300 -14.060000 -24.173000
C -1.435700 -9.121700 -29.001100
C -1.333700 -11.326100 -27.068100
C -1.266600 -12.320700 -26.155400
C -0.938700 -8.785900 -32.687700
H -0.699500 -11.290100 -27.746400
C -0.626100 -8.685900 -31.341100
H -0.584900 -12.949800 -26.222600
H -0.547500 -9.208700 -28.741000
H -0.228500 -8.755400 -34.564700
C 0.013500 -8.667600 -33.671100
C 0.704000 -8.408200 -31.031700
H 0.951000 -8.306700 -30.140300
C 1.321600 -8.419400 -33.336900
H 1.372800 -7.880300 -35.894500
C 1.651200 -8.280500 -32.006000
H 1.704500 -9.403600 -35.728600
C 2.037900 -8.510600 -35.609700
O 2.337300 -8.295400 -34.229000
H 2.531900 -8.097900 -31.768300
H 2.834600 -8.394400 -36.132200
90
Fragment
H -17.140100 -10.073800 -13.509900
H -17.027100 -11.739500 -12.007400
C -16.470400 -10.713900 -13.590600
C -16.400100 -11.700600 -12.693600
H -16.278100 -8.974900 -15.591000
H -15.863800 -13.771700 -11.118300
C -15.595100 -9.603700 -15.630200
C -15.542100 -10.616600 -14.671500
C -15.372500 -12.704100 -12.766500
N -15.287000 -10.031400 -19.917900
C -15.250500 -13.718200 -11.815700
H -14.733700 -8.827800 -17.242600
C -14.666100 -9.518600 -16.623600
C -14.503400 -11.578400 -14.776900
C -14.430800 -12.632600 -13.818300
C -14.241700 -14.631500 -11.899800
C -14.208600 -10.015800 -19.557900
H -14.175500 -15.298800 -11.256200
C -13.617300 -10.432300 -16.743600
C -13.535500 -11.483400 -15.804600
C -13.385400 -13.591000 -13.886700
C -13.321800 -14.580800 -12.920100
H -13.001200 -10.098600 -21.720800
C -12.836400 -10.028200 -19.097100
H -12.646500 -15.219900 -12.960500
C -12.613900 -10.281700 -17.788600
C -12.511800 -12.486100 -15.855600
C -12.444800 -13.480700 -14.942900
C -12.116800 -9.945900 -21.475300
H -11.877700 -12.450100 -16.533900
C -11.804300 -9.845900 -20.128600
H -11.763000 -14.109800 -15.010100
H -11.725700 -10.368700 -17.528500
H -11.406700 -9.915400 -23.352200
C -11.164600 -9.827600 -22.458600
C -10.474200 -9.568200 -19.819200
H -10.227200 -9.466700 -18.927800
C -9.856600 -9.579300 -22.124500
H -9.805300 -9.040200 -24.682000
C -9.527000 -9.440400 -20.793500
H -9.473600 -10.563600 -24.516100
C -9.140200 -9.670500 -24.397200
O -8.840900 -9.455300 -23.016500
H -8.646300 -9.257800 -20.555800
H -8.343600 -9.554300 -24.919700
H -5.962000 -8.913800 -24.722400
H -5.849000 -10.579600 -23.219900
C -5.292200 -9.553900 -24.803100
C -5.221900 -10.540700 -23.906100
H -5.100000 -7.814900 -26.803400
H -4.685600 -12.611800 -22.330800
C -4.417000 -8.443800 -26.842700
C -4.363900 -9.456600 -25.884000
C -4.194400 -11.544200 -23.979000
N -4.108800 -8.871400 -31.130300
C -4.072300 -12.558300 -23.028200
H -3.555500 -7.667900 -28.455000
C -3.487900 -8.358600 -27.836100
C -3.325300 -10.418400 -25.989400
C -3.252600 -11.472700 -25.030700
C -3.063600 -13.471500 -23.112300
C -3.030500 -8.855800 -30.770400
H -2.997400 -14.138900 -22.468700
C -2.439100 -9.272300 -27.956100
C -2.357300 -10.323500 -27.017000
C -2.207300 -12.431000 -25.099100
C -2.143600 -13.420900 -24.132600
H -1.823000 -8.938700 -32.933300
C -1.658300 -8.868300 -30.309600
H -1.468300 -14.060000 -24.173000
C -1.435700 -9.121700 -29.001100
C -1.333700 -11.326100 -27.068100
C -1.266600 -12.320700 -26.155400
C -0.938700 -8.785900 -32.687700
H -0.699500 -11.290100 -27.746400
C -0.626100 -8.685900 -31.341100
H -0.584900 -12.949800 -26.222600
H -0.547500 -9.208700 -28.741000
H -0.228500 -8.755400 -34.564700
C 0.013500 -8.667600 -33.671100
C 0.704000 -8.408200 -31.031700
H 0.951000 -8.306700 -30.140300
C 1.321600 -8.419400 -33.336900
H 1.372800 -7.880300 -35.894500
C 1.651200 -8.280500 -32.006000
H 1.704500 -9.403600 -35.728600
C 2.037900 -8.510600 -35.609700
O 2.337300 -8.295400 -34.229000
H 2.531900 -8.097900 -31.768300
H 2.834600 -8.394400 -36.132200
