45
Fragment
H -17.140100 -10.073800 -13.509900
H -17.027100 -11.739500 -12.007400
C -16.470400 -10.713900 -13.590600
C -16.400100 -11.700600 -12.693600
H -16.278100 -8.974900 -15.591000
H -15.863800 -13.771700 -11.118300
C -15.595100 -9.603700 -15.630200
C -15.542100 -10.616600 -14.671500
C -15.372500 -12.704100 -12.766500
N -15.287000 -10.031400 -19.917900
C -15.250500 -13.718200 -11.815700
H -14.733700 -8.827800 -17.242600
C -14.666100 -9.518600 -16.623600
C -14.503400 -11.578400 -14.776900
C -14.430800 -12.632600 -13.818300
C -14.241700 -14.631500 -11.899800
C -14.208600 -10.015800 -19.557900
H -14.175500 -15.298800 -11.256200
C -13.617300 -10.432300 -16.743600
C -13.535500 -11.483400 -15.804600
C -13.385400 -13.591000 -13.886700
C -13.321800 -14.580800 -12.920100
H -13.001200 -10.098600 -21.720800
C -12.836400 -10.028200 -19.097100
H -12.646500 -15.219900 -12.960500
C -12.613900 -10.281700 -17.788600
C -12.511800 -12.486100 -15.855600
C -12.444800 -13.480700 -14.942900
C -12.116800 -9.945900 -21.475300
H -11.877700 -12.450100 -16.533900
C -11.804300 -9.845900 -20.128600
H -11.763000 -14.109800 -15.010100
H -11.725700 -10.368700 -17.528500
H -11.406700 -9.915400 -23.352200
C -11.164600 -9.827600 -22.458600
C -10.474200 -9.568200 -19.819200
H -10.227200 -9.466700 -18.927800
C -9.856600 -9.579300 -22.124500
H -9.805300 -9.040200 -24.682000
C -9.527000 -9.440400 -20.793500
H -9.473600 -10.563600 -24.516100
C -9.140200 -9.670500 -24.397200
O -8.840900 -9.455300 -23.016500
H -8.646300 -9.257800 -20.555800
H -8.343600 -9.554300 -24.919700
45
Fragment
H -13.915200 -6.523600 -19.930200
H -13.612500 -6.820100 -24.294100
O -13.418000 -6.622600 -21.833400
C -13.118600 -6.407400 -20.452700
H -12.785200 -5.514300 -20.333800
C -12.731900 -6.637500 -24.056400
H -12.453500 -7.037700 -20.167900
C -12.402200 -6.498600 -22.725500
H -12.031600 -6.611200 -25.922100
C -11.784700 -6.509800 -25.030700
C -11.094200 -6.250400 -22.391300
H -10.852200 -6.162600 -21.497700
H -10.533100 -5.709300 -27.321500
H -10.495800 -1.968200 -29.839800
C -10.454600 -6.232000 -24.721300
H -10.381200 -3.627800 -28.316000
C -10.142000 -6.132100 -23.374700
C -9.814100 -2.597200 -29.907100
C -9.747000 -3.591800 -28.994400
C -9.644900 -5.796200 -27.061300
H -9.612300 -0.858000 -31.889400
C -9.422400 -6.049700 -25.752800
H -9.257600 -5.979300 -23.129100
C -8.937100 -1.497100 -31.929800
C -8.873400 -2.486900 -30.963300
C -8.723300 -4.594500 -29.045400
C -8.641500 -5.645700 -28.106300
H -8.083300 -0.779100 -33.593700
C -8.050200 -6.062200 -25.292000
C -8.017100 -1.446500 -32.950100
C -7.828000 -3.445300 -31.031700
C -7.755400 -4.499600 -30.073000
C -7.592700 -6.559300 -28.226300
H -7.525100 -7.250100 -27.607400
C -7.008400 -2.359700 -33.034200
N -6.971800 -6.046600 -24.932100
C -6.886300 -3.373800 -32.083400
C -6.716700 -5.461400 -30.178400
C -6.663700 -6.474200 -29.219700
H -6.395000 -2.306200 -33.731600
H -5.980700 -7.103000 -29.259000
C -5.858800 -4.377300 -32.156300
C -5.788400 -5.364000 -31.259300
H -5.231700 -4.338400 -32.842500
H -5.118700 -6.004200 -31.340000
90
Fragment
H -17.140100 -10.073800 -13.509900
H -17.027100 -11.739500 -12.007400
C -16.470400 -10.713900 -13.590600
C -16.400100 -11.700600 -12.693600
H -16.278100 -8.974900 -15.591000
H -15.863800 -13.771700 -11.118300
C -15.595100 -9.603700 -15.630200
C -15.542100 -10.616600 -14.671500
C -15.372500 -12.704100 -12.766500
N -15.287000 -10.031400 -19.917900
C -15.250500 -13.718200 -11.815700
H -14.733700 -8.827800 -17.242600
C -14.666100 -9.518600 -16.623600
C -14.503400 -11.578400 -14.776900
C -14.430800 -12.632600 -13.818300
C -14.241700 -14.631500 -11.899800
C -14.208600 -10.015800 -19.557900
H -14.175500 -15.298800 -11.256200
C -13.617300 -10.432300 -16.743600
C -13.535500 -11.483400 -15.804600
C -13.385400 -13.591000 -13.886700
C -13.321800 -14.580800 -12.920100
H -13.001200 -10.098600 -21.720800
C -12.836400 -10.028200 -19.097100
H -12.646500 -15.219900 -12.960500
C -12.613900 -10.281700 -17.788600
C -12.511800 -12.486100 -15.855600
C -12.444800 -13.480700 -14.942900
C -12.116800 -9.945900 -21.475300
H -11.877700 -12.450100 -16.533900
C -11.804300 -9.845900 -20.128600
H -11.763000 -14.109800 -15.010100
H -11.725700 -10.368700 -17.528500
H -11.406700 -9.915400 -23.352200
C -11.164600 -9.827600 -22.458600
C -10.474200 -9.568200 -19.819200
H -10.227200 -9.466700 -18.927800
C -9.856600 -9.579300 -22.124500
H -9.805300 -9.040200 -24.682000
C -9.527000 -9.440400 -20.793500
H -9.473600 -10.563600 -24.516100
C -9.140200 -9.670500 -24.397200
O -8.840900 -9.455300 -23.016500
H -8.646300 -9.257800 -20.555800
H -8.343600 -9.554300 -24.919700
H -13.915200 -6.523600 -19.930200
H -13.612500 -6.820100 -24.294100
O -13.418000 -6.622600 -21.833400
C -13.118600 -6.407400 -20.452700
H -12.785200 -5.514300 -20.333800
C -12.731900 -6.637500 -24.056400
H -12.453500 -7.037700 -20.167900
C -12.402200 -6.498600 -22.725500
H -12.031600 -6.611200 -25.922100
C -11.784700 -6.509800 -25.030700
C -11.094200 -6.250400 -22.391300
H -10.852200 -6.162600 -21.497700
H -10.533100 -5.709300 -27.321500
H -10.495800 -1.968200 -29.839800
C -10.454600 -6.232000 -24.721300
H -10.381200 -3.627800 -28.316000
C -10.142000 -6.132100 -23.374700
C -9.814100 -2.597200 -29.907100
C -9.747000 -3.591800 -28.994400
C -9.644900 -5.796200 -27.061300
H -9.612300 -0.858000 -31.889400
C -9.422400 -6.049700 -25.752800
H -9.257600 -5.979300 -23.129100
C -8.937100 -1.497100 -31.929800
C -8.873400 -2.486900 -30.963300
C -8.723300 -4.594500 -29.045400
C -8.641500 -5.645700 -28.106300
H -8.083300 -0.779100 -33.593700
C -8.050200 -6.062200 -25.292000
C -8.017100 -1.446500 -32.950100
C -7.828000 -3.445300 -31.031700
C -7.755400 -4.499600 -30.073000
C -7.592700 -6.559300 -28.226300
H -7.525100 -7.250100 -27.607400
C -7.008400 -2.359700 -33.034200
N -6.971800 -6.046600 -24.932100
C -6.886300 -3.373800 -32.083400
C -6.716700 -5.461400 -30.178400
C -6.663700 -6.474200 -29.219700
H -6.395000 -2.306200 -33.731600
H -5.980700 -7.103000 -29.259000
C -5.858800 -4.377300 -32.156300
C -5.788400 -5.364000 -31.259300
H -5.231700 -4.338400 -32.842500
H -5.118700 -6.004200 -31.340000
