45
Fragment
H -17.140100 -10.073800 -13.509900
H -17.027100 -11.739500 -12.007400
C -16.470400 -10.713900 -13.590600
C -16.400100 -11.700600 -12.693600
H -16.278100 -8.974900 -15.591000
H -15.863800 -13.771700 -11.118300
C -15.595100 -9.603700 -15.630200
C -15.542100 -10.616600 -14.671500
C -15.372500 -12.704100 -12.766500
N -15.287000 -10.031400 -19.917900
C -15.250500 -13.718200 -11.815700
H -14.733700 -8.827800 -17.242600
C -14.666100 -9.518600 -16.623600
C -14.503400 -11.578400 -14.776900
C -14.430800 -12.632600 -13.818300
C -14.241700 -14.631500 -11.899800
C -14.208600 -10.015800 -19.557900
H -14.175500 -15.298800 -11.256200
C -13.617300 -10.432300 -16.743600
C -13.535500 -11.483400 -15.804600
C -13.385400 -13.591000 -13.886700
C -13.321800 -14.580800 -12.920100
H -13.001200 -10.098600 -21.720800
C -12.836400 -10.028200 -19.097100
H -12.646500 -15.219900 -12.960500
C -12.613900 -10.281700 -17.788600
C -12.511800 -12.486100 -15.855600
C -12.444800 -13.480700 -14.942900
C -12.116800 -9.945900 -21.475300
H -11.877700 -12.450100 -16.533900
C -11.804300 -9.845900 -20.128600
H -11.763000 -14.109800 -15.010100
H -11.725700 -10.368700 -17.528500
H -11.406700 -9.915400 -23.352200
C -11.164600 -9.827600 -22.458600
C -10.474200 -9.568200 -19.819200
H -10.227200 -9.466700 -18.927800
C -9.856600 -9.579300 -22.124500
H -9.805300 -9.040200 -24.682000
C -9.527000 -9.440400 -20.793500
H -9.473600 -10.563600 -24.516100
C -9.140200 -9.670500 -24.397200
O -8.840900 -9.455300 -23.016500
H -8.646300 -9.257800 -20.555800
H -8.343600 -9.554300 -24.919700
45
Fragment
H -15.806000 -8.913800 -24.722400
H -15.693000 -10.579600 -23.219900
C -15.136200 -9.553900 -24.803100
C -15.065900 -10.540700 -23.906100
H -14.944000 -7.814900 -26.803400
H -14.529600 -12.611800 -22.330800
C -14.261000 -8.443800 -26.842700
C -14.207900 -9.456600 -25.884000
C -14.038400 -11.544200 -23.979000
N -13.952800 -8.871400 -31.130300
C -13.916300 -12.558300 -23.028200
H -13.399500 -7.667900 -28.455000
C -13.331900 -8.358600 -27.836100
C -13.169300 -10.418400 -25.989400
C -13.096600 -11.472700 -25.030700
C -12.907600 -13.471500 -23.112300
C -12.874500 -8.855800 -30.770400
H -12.841400 -14.138900 -22.468700
C -12.283100 -9.272300 -27.956100
C -12.201300 -10.323500 -27.017000
C -12.051300 -12.431000 -25.099100
C -11.987600 -13.420900 -24.132600
H -11.667000 -8.938700 -32.933300
C -11.502300 -8.868300 -30.309600
H -11.312300 -14.060000 -24.173000
C -11.279700 -9.121700 -29.001100
C -11.177700 -11.326100 -27.068100
C -11.110600 -12.320700 -26.155400
C -10.782700 -8.785900 -32.687700
H -10.543500 -11.290100 -27.746400
C -10.470100 -8.685900 -31.341100
H -10.428900 -12.949800 -26.222600
H -10.391500 -9.208700 -28.741000
H -10.072500 -8.755400 -34.564700
C -9.830500 -8.667600 -33.671100
C -9.140000 -8.408200 -31.031700
H -8.893000 -8.306700 -30.140300
C -8.522400 -8.419400 -33.336900
H -8.471200 -7.880300 -35.894500
C -8.192800 -8.280500 -32.006000
H -8.139500 -9.403600 -35.728600
C -7.806100 -8.510600 -35.609700
O -7.506700 -8.295400 -34.229000
H -7.312100 -8.097900 -31.768300
H -7.009400 -8.394400 -36.132200
90
Fragment
H -17.140100 -10.073800 -13.509900
H -17.027100 -11.739500 -12.007400
C -16.470400 -10.713900 -13.590600
C -16.400100 -11.700600 -12.693600
H -16.278100 -8.974900 -15.591000
H -15.863800 -13.771700 -11.118300
C -15.595100 -9.603700 -15.630200
C -15.542100 -10.616600 -14.671500
C -15.372500 -12.704100 -12.766500
N -15.287000 -10.031400 -19.917900
C -15.250500 -13.718200 -11.815700
H -14.733700 -8.827800 -17.242600
C -14.666100 -9.518600 -16.623600
C -14.503400 -11.578400 -14.776900
C -14.430800 -12.632600 -13.818300
C -14.241700 -14.631500 -11.899800
C -14.208600 -10.015800 -19.557900
H -14.175500 -15.298800 -11.256200
C -13.617300 -10.432300 -16.743600
C -13.535500 -11.483400 -15.804600
C -13.385400 -13.591000 -13.886700
C -13.321800 -14.580800 -12.920100
H -13.001200 -10.098600 -21.720800
C -12.836400 -10.028200 -19.097100
H -12.646500 -15.219900 -12.960500
C -12.613900 -10.281700 -17.788600
C -12.511800 -12.486100 -15.855600
C -12.444800 -13.480700 -14.942900
C -12.116800 -9.945900 -21.475300
H -11.877700 -12.450100 -16.533900
C -11.804300 -9.845900 -20.128600
H -11.763000 -14.109800 -15.010100
H -11.725700 -10.368700 -17.528500
H -11.406700 -9.915400 -23.352200
C -11.164600 -9.827600 -22.458600
C -10.474200 -9.568200 -19.819200
H -10.227200 -9.466700 -18.927800
C -9.856600 -9.579300 -22.124500
H -9.805300 -9.040200 -24.682000
C -9.527000 -9.440400 -20.793500
H -9.473600 -10.563600 -24.516100
C -9.140200 -9.670500 -24.397200
O -8.840900 -9.455300 -23.016500
H -8.646300 -9.257800 -20.555800
H -8.343600 -9.554300 -24.919700
H -15.806000 -8.913800 -24.722400
H -15.693000 -10.579600 -23.219900
C -15.136200 -9.553900 -24.803100
C -15.065900 -10.540700 -23.906100
H -14.944000 -7.814900 -26.803400
H -14.529600 -12.611800 -22.330800
C -14.261000 -8.443800 -26.842700
C -14.207900 -9.456600 -25.884000
C -14.038400 -11.544200 -23.979000
N -13.952800 -8.871400 -31.130300
C -13.916300 -12.558300 -23.028200
H -13.399500 -7.667900 -28.455000
C -13.331900 -8.358600 -27.836100
C -13.169300 -10.418400 -25.989400
C -13.096600 -11.472700 -25.030700
C -12.907600 -13.471500 -23.112300
C -12.874500 -8.855800 -30.770400
H -12.841400 -14.138900 -22.468700
C -12.283100 -9.272300 -27.956100
C -12.201300 -10.323500 -27.017000
C -12.051300 -12.431000 -25.099100
C -11.987600 -13.420900 -24.132600
H -11.667000 -8.938700 -32.933300
C -11.502300 -8.868300 -30.309600
H -11.312300 -14.060000 -24.173000
C -11.279700 -9.121700 -29.001100
C -11.177700 -11.326100 -27.068100
C -11.110600 -12.320700 -26.155400
C -10.782700 -8.785900 -32.687700
H -10.543500 -11.290100 -27.746400
C -10.470100 -8.685900 -31.341100
H -10.428900 -12.949800 -26.222600
H -10.391500 -9.208700 -28.741000
H -10.072500 -8.755400 -34.564700
C -9.830500 -8.667600 -33.671100
C -9.140000 -8.408200 -31.031700
H -8.893000 -8.306700 -30.140300
C -8.522400 -8.419400 -33.336900
H -8.471200 -7.880300 -35.894500
C -8.192800 -8.280500 -32.006000
H -8.139500 -9.403600 -35.728600
C -7.806100 -8.510600 -35.609700
O -7.506700 -8.295400 -34.229000
H -7.312100 -8.097900 -31.768300
H -7.009400 -8.394400 -36.132200
