36
Fragment
O -21.220000 -21.781100 -21.191500
O -20.949800 -23.930000 -20.875900
N -20.546000 -22.783400 -21.002900
O -20.345900 -20.552100 -24.293000
O -20.114100 -19.384400 -22.467600
O -20.070200 -23.523200 -25.352700
N -19.840600 -20.302000 -23.215300
O -19.828400 -25.385000 -24.265000
N -19.682300 -24.192800 -24.423300
N -19.193100 -22.590100 -20.881200
N -19.081300 -23.479300 -23.332500
H -18.871900 -20.553400 -20.859100
N -18.774800 -21.145300 -22.808000
C -18.571700 -21.348900 -21.385600
H -18.559500 -21.976600 -24.643200
H -18.548800 -24.458400 -20.368500
C -18.389900 -22.219500 -23.688100
H -18.344000 -25.243300 -22.553600
C -18.295000 -23.725000 -20.999000
C -18.163800 -24.261600 -22.491500
N -17.108200 -23.008600 -20.534400
C -17.047300 -21.653300 -21.139800
C -16.855000 -22.520800 -23.445700
N -16.832600 -23.918700 -22.979100
H -16.644000 -20.992400 -20.506900
O -16.505700 -26.030800 -23.673900
N -16.375800 -21.630200 -22.416600
H -16.328900 -22.413600 -24.289200
N -16.131300 -24.872300 -23.762900
O -16.041100 -24.944800 -20.322000
N -15.932300 -23.731600 -20.382400
O -15.189000 -24.444700 -24.395400
N -15.057900 -21.163200 -22.497200
O -14.905700 -23.075200 -20.289900
O -14.660400 -20.480900 -21.567900
O -14.443400 -21.454500 -23.507400
16
Fragment
O -23.160200 -23.815500 -25.480300
O -22.910700 -25.278600 -23.889800
N -22.886100 -24.948100 -25.071900
C -22.497900 -25.948800 -26.021500
H -22.428800 -27.734900 -24.934700
H -22.333000 -29.673000 -27.636200
C -22.312800 -27.283800 -25.762600
N -22.239200 -25.618300 -27.305100
N -21.928800 -27.816200 -26.944900
C -21.900300 -26.773600 -27.820600
C -21.606000 -29.238700 -27.143000
N -21.506600 -26.900300 -29.198300
H -21.497000 -29.673400 -26.271500
O -21.461700 -28.038000 -29.668700
O -21.235400 -25.880500 -29.814400
H -20.773000 -29.316600 -27.653500
52
Fragment
O -21.220000 -21.781100 -21.191500
O -20.949800 -23.930000 -20.875900
N -20.546000 -22.783400 -21.002900
O -20.345900 -20.552100 -24.293000
O -20.114100 -19.384400 -22.467600
O -20.070200 -23.523200 -25.352700
N -19.840600 -20.302000 -23.215300
O -19.828400 -25.385000 -24.265000
N -19.682300 -24.192800 -24.423300
N -19.193100 -22.590100 -20.881200
N -19.081300 -23.479300 -23.332500
H -18.871900 -20.553400 -20.859100
N -18.774800 -21.145300 -22.808000
C -18.571700 -21.348900 -21.385600
H -18.559500 -21.976600 -24.643200
H -18.548800 -24.458400 -20.368500
C -18.389900 -22.219500 -23.688100
H -18.344000 -25.243300 -22.553600
C -18.295000 -23.725000 -20.999000
C -18.163800 -24.261600 -22.491500
N -17.108200 -23.008600 -20.534400
C -17.047300 -21.653300 -21.139800
C -16.855000 -22.520800 -23.445700
N -16.832600 -23.918700 -22.979100
H -16.644000 -20.992400 -20.506900
O -16.505700 -26.030800 -23.673900
N -16.375800 -21.630200 -22.416600
H -16.328900 -22.413600 -24.289200
N -16.131300 -24.872300 -23.762900
O -16.041100 -24.944800 -20.322000
N -15.932300 -23.731600 -20.382400
O -15.189000 -24.444700 -24.395400
N -15.057900 -21.163200 -22.497200
O -14.905700 -23.075200 -20.289900
O -14.660400 -20.480900 -21.567900
O -14.443400 -21.454500 -23.507400
O -23.160200 -23.815500 -25.480300
O -22.910700 -25.278600 -23.889800
N -22.886100 -24.948100 -25.071900
C -22.497900 -25.948800 -26.021500
H -22.428800 -27.734900 -24.934700
H -22.333000 -29.673000 -27.636200
C -22.312800 -27.283800 -25.762600
N -22.239200 -25.618300 -27.305100
N -21.928800 -27.816200 -26.944900
C -21.900300 -26.773600 -27.820600
C -21.606000 -29.238700 -27.143000
N -21.506600 -26.900300 -29.198300
H -21.497000 -29.673400 -26.271500
O -21.461700 -28.038000 -29.668700
O -21.235400 -25.880500 -29.814400
H -20.773000 -29.316600 -27.653500
