36
Fragment
O -21.220000 -21.781100 -21.191500
O -20.949800 -23.930000 -20.875900
N -20.546000 -22.783400 -21.002900
O -20.345900 -20.552100 -24.293000
O -20.114100 -19.384400 -22.467600
O -20.070200 -23.523200 -25.352700
N -19.840600 -20.302000 -23.215300
O -19.828400 -25.385000 -24.265000
N -19.682300 -24.192800 -24.423300
N -19.193100 -22.590100 -20.881200
N -19.081300 -23.479300 -23.332500
H -18.871900 -20.553400 -20.859100
N -18.774800 -21.145300 -22.808000
C -18.571700 -21.348900 -21.385600
H -18.559500 -21.976600 -24.643200
H -18.548800 -24.458400 -20.368500
C -18.389900 -22.219500 -23.688100
H -18.344000 -25.243300 -22.553600
C -18.295000 -23.725000 -20.999000
C -18.163800 -24.261600 -22.491500
N -17.108200 -23.008600 -20.534400
C -17.047300 -21.653300 -21.139800
C -16.855000 -22.520800 -23.445700
N -16.832600 -23.918700 -22.979100
H -16.644000 -20.992400 -20.506900
O -16.505700 -26.030800 -23.673900
N -16.375800 -21.630200 -22.416600
H -16.328900 -22.413600 -24.289200
N -16.131300 -24.872300 -23.762900
O -16.041100 -24.944800 -20.322000
N -15.932300 -23.731600 -20.382400
O -15.189000 -24.444700 -24.395400
N -15.057900 -21.163200 -22.497200
O -14.905700 -23.075200 -20.289900
O -14.660400 -20.480900 -21.567900
O -14.443400 -21.454500 -23.507400
36
Fragment
O -26.600600 -16.502700 -18.655000
O -26.383600 -17.476300 -20.594500
O -26.138400 -14.882000 -21.872400
N -25.986200 -16.794000 -19.665200
O -25.855000 -13.512500 -17.767000
N -25.111700 -14.225600 -21.780000
O -25.002900 -13.012400 -21.840400
N -24.912700 -13.084900 -18.399500
H -24.715100 -15.543600 -17.873200
N -24.668300 -16.327000 -19.745800
O -24.538300 -11.926400 -18.488500
H -24.400000 -16.964800 -21.655400
N -24.211400 -14.038500 -19.183300
C -24.189000 -15.436400 -18.716700
C -23.996800 -16.303900 -21.022600
N -23.935800 -14.948600 -21.628000
C -22.880200 -13.695600 -19.670900
C -22.749000 -14.232200 -21.163400
H -22.700100 -12.713900 -19.608700
C -22.654100 -15.737700 -18.474300
H -22.495200 -13.498800 -21.793900
H -22.484500 -15.980600 -17.519200
C -22.472300 -16.608300 -20.776800
N -22.269200 -16.811900 -19.354400
H -22.172100 -17.403800 -21.303300
N -21.962700 -14.477900 -18.829900
N -21.850900 -15.367100 -21.281200
N -21.361700 -13.764400 -17.739100
O -21.215600 -12.572200 -17.897400
N -21.203500 -17.655200 -18.947100
O -20.973800 -14.434000 -16.809700
O -20.929900 -18.572800 -19.694800
O -20.698100 -17.405100 -17.869400
N -20.498000 -15.173800 -21.159500
O -20.094300 -14.027200 -21.286500
O -19.824000 -16.176100 -20.970900
72
Fragment
O -21.220000 -21.781100 -21.191500
O -20.949800 -23.930000 -20.875900
N -20.546000 -22.783400 -21.002900
O -20.345900 -20.552100 -24.293000
O -20.114100 -19.384400 -22.467600
O -20.070200 -23.523200 -25.352700
N -19.840600 -20.302000 -23.215300
O -19.828400 -25.385000 -24.265000
N -19.682300 -24.192800 -24.423300
N -19.193100 -22.590100 -20.881200
N -19.081300 -23.479300 -23.332500
H -18.871900 -20.553400 -20.859100
N -18.774800 -21.145300 -22.808000
C -18.571700 -21.348900 -21.385600
H -18.559500 -21.976600 -24.643200
H -18.548800 -24.458400 -20.368500
C -18.389900 -22.219500 -23.688100
H -18.344000 -25.243300 -22.553600
C -18.295000 -23.725000 -20.999000
C -18.163800 -24.261600 -22.491500
N -17.108200 -23.008600 -20.534400
C -17.047300 -21.653300 -21.139800
C -16.855000 -22.520800 -23.445700
N -16.832600 -23.918700 -22.979100
H -16.644000 -20.992400 -20.506900
O -16.505700 -26.030800 -23.673900
N -16.375800 -21.630200 -22.416600
H -16.328900 -22.413600 -24.289200
N -16.131300 -24.872300 -23.762900
O -16.041100 -24.944800 -20.322000
N -15.932300 -23.731600 -20.382400
O -15.189000 -24.444700 -24.395400
N -15.057900 -21.163200 -22.497200
O -14.905700 -23.075200 -20.289900
O -14.660400 -20.480900 -21.567900
O -14.443400 -21.454500 -23.507400
O -26.600600 -16.502700 -18.655000
O -26.383600 -17.476300 -20.594500
O -26.138400 -14.882000 -21.872400
N -25.986200 -16.794000 -19.665200
O -25.855000 -13.512500 -17.767000
N -25.111700 -14.225600 -21.780000
O -25.002900 -13.012400 -21.840400
N -24.912700 -13.084900 -18.399500
H -24.715100 -15.543600 -17.873200
N -24.668300 -16.327000 -19.745800
O -24.538300 -11.926400 -18.488500
H -24.400000 -16.964800 -21.655400
N -24.211400 -14.038500 -19.183300
C -24.189000 -15.436400 -18.716700
C -23.996800 -16.303900 -21.022600
N -23.935800 -14.948600 -21.628000
C -22.880200 -13.695600 -19.670900
C -22.749000 -14.232200 -21.163400
H -22.700100 -12.713900 -19.608700
C -22.654100 -15.737700 -18.474300
H -22.495200 -13.498800 -21.793900
H -22.484500 -15.980600 -17.519200
C -22.472300 -16.608300 -20.776800
N -22.269200 -16.811900 -19.354400
H -22.172100 -17.403800 -21.303300
N -21.962700 -14.477900 -18.829900
N -21.850900 -15.367100 -21.281200
N -21.361700 -13.764400 -17.739100
O -21.215600 -12.572200 -17.897400
N -21.203500 -17.655200 -18.947100
O -20.973800 -14.434000 -16.809700
O -20.929900 -18.572800 -19.694800
O -20.698100 -17.405100 -17.869400
N -20.498000 -15.173800 -21.159500
O -20.094300 -14.027200 -21.286500
O -19.824000 -16.176100 -20.970900
