27
Fragment
H -10.636800 -11.093000 -14.175200
H -9.802700 -12.425500 -13.867600
C -9.724300 -11.474900 -14.132800
O -9.708300 -9.209000 -15.503100
O -9.704300 -10.351300 -12.097500
H -9.679500 -9.479400 -10.295400
C -9.176600 -10.154300 -16.071300
N -9.103900 -11.389900 -15.446700
C -9.020400 -9.765300 -10.962000
H -9.012700 -8.146100 -17.539500
C -8.918500 -10.731700 -13.096700
N -8.683600 -8.821800 -17.992000
C -8.580100 -10.040300 -17.409600
H -8.498600 -8.990500 -11.259000
C -8.482800 -12.484500 -16.010900
N -8.453100 -13.616100 -15.306300
H -8.420400 -10.429600 -10.563100
H -8.107200 -8.665000 -18.713300
C -7.983300 -11.119500 -17.994600
C -7.932300 -12.359500 -17.302300
C -7.866500 -14.650200 -15.894900
H -7.823600 -15.456500 -15.393300
O -7.732300 -10.531500 -13.155600
H -7.602900 -11.042000 -18.861600
C -7.380300 -13.546000 -17.790700
N -7.328200 -14.678100 -17.121200
Cl -6.734500 -13.583100 -19.395000
27
Fragment
H -8.103100 -17.603300 -25.238300
H -7.269000 -18.935700 -24.930800
C -7.190600 -17.985100 -25.196000
O -7.174600 -15.719200 -26.566300
O -7.170600 -16.861500 -23.160700
H -7.145800 -15.989600 -21.358500
C -6.643000 -16.664500 -27.134500
N -6.570200 -17.900100 -26.509800
C -6.486700 -16.275500 -22.025200
H -6.479000 -14.656300 -28.602600
C -6.384800 -17.241900 -24.159800
N -6.149900 -15.332000 -29.055100
C -6.046400 -16.550500 -28.472800
H -5.964900 -15.500700 -22.322100
C -5.949100 -18.994700 -27.074100
N -5.919400 -20.126300 -26.369400
H -5.886700 -16.939800 -21.626200
H -5.573500 -15.175200 -29.776400
C -5.449600 -17.629700 -29.057800
C -5.398700 -18.869700 -28.365500
C -5.332800 -21.160400 -26.958000
H -5.289900 -21.966800 -26.456400
O -5.198600 -17.041800 -24.218800
H -5.069200 -17.552200 -29.924700
C -4.846600 -20.056200 -28.853900
N -4.794500 -21.188300 -28.184400
Cl -4.200900 -20.093300 -30.458200
54
Fragment
H -10.636800 -11.093000 -14.175200
H -9.802700 -12.425500 -13.867600
C -9.724300 -11.474900 -14.132800
O -9.708300 -9.209000 -15.503100
O -9.704300 -10.351300 -12.097500
H -9.679500 -9.479400 -10.295400
C -9.176600 -10.154300 -16.071300
N -9.103900 -11.389900 -15.446700
C -9.020400 -9.765300 -10.962000
H -9.012700 -8.146100 -17.539500
C -8.918500 -10.731700 -13.096700
N -8.683600 -8.821800 -17.992000
C -8.580100 -10.040300 -17.409600
H -8.498600 -8.990500 -11.259000
C -8.482800 -12.484500 -16.010900
N -8.453100 -13.616100 -15.306300
H -8.420400 -10.429600 -10.563100
H -8.107200 -8.665000 -18.713300
C -7.983300 -11.119500 -17.994600
C -7.932300 -12.359500 -17.302300
C -7.866500 -14.650200 -15.894900
H -7.823600 -15.456500 -15.393300
O -7.732300 -10.531500 -13.155600
H -7.602900 -11.042000 -18.861600
C -7.380300 -13.546000 -17.790700
N -7.328200 -14.678100 -17.121200
Cl -6.734500 -13.583100 -19.395000
H -8.103100 -17.603300 -25.238300
H -7.269000 -18.935700 -24.930800
C -7.190600 -17.985100 -25.196000
O -7.174600 -15.719200 -26.566300
O -7.170600 -16.861500 -23.160700
H -7.145800 -15.989600 -21.358500
C -6.643000 -16.664500 -27.134500
N -6.570200 -17.900100 -26.509800
C -6.486700 -16.275500 -22.025200
H -6.479000 -14.656300 -28.602600
C -6.384800 -17.241900 -24.159800
N -6.149900 -15.332000 -29.055100
C -6.046400 -16.550500 -28.472800
H -5.964900 -15.500700 -22.322100
C -5.949100 -18.994700 -27.074100
N -5.919400 -20.126300 -26.369400
H -5.886700 -16.939800 -21.626200
H -5.573500 -15.175200 -29.776400
C -5.449600 -17.629700 -29.057800
C -5.398700 -18.869700 -28.365500
C -5.332800 -21.160400 -26.958000
H -5.289900 -21.966800 -26.456400
O -5.198600 -17.041800 -24.218800
H -5.069200 -17.552200 -29.924700
C -4.846600 -20.056200 -28.853900
N -4.794500 -21.188300 -28.184400
Cl -4.200900 -20.093300 -30.458200
