27
Fragment
H -10.636800 -11.093000 -14.175200
H -9.802700 -12.425500 -13.867600
C -9.724300 -11.474900 -14.132800
O -9.708300 -9.209000 -15.503100
O -9.704300 -10.351300 -12.097500
H -9.679500 -9.479400 -10.295400
C -9.176600 -10.154300 -16.071300
N -9.103900 -11.389900 -15.446700
C -9.020400 -9.765300 -10.962000
H -9.012700 -8.146100 -17.539500
C -8.918500 -10.731700 -13.096700
N -8.683600 -8.821800 -17.992000
C -8.580100 -10.040300 -17.409600
H -8.498600 -8.990500 -11.259000
C -8.482800 -12.484500 -16.010900
N -8.453100 -13.616100 -15.306300
H -8.420400 -10.429600 -10.563100
H -8.107200 -8.665000 -18.713300
C -7.983300 -11.119500 -17.994600
C -7.932300 -12.359500 -17.302300
C -7.866500 -14.650200 -15.894900
H -7.823600 -15.456500 -15.393300
O -7.732300 -10.531500 -13.155600
H -7.602900 -11.042000 -18.861600
C -7.380300 -13.546000 -17.790700
N -7.328200 -14.678100 -17.121200
Cl -6.734500 -13.583100 -19.395000
27
Fragment
Cl -12.392100 -14.497900 -13.794400
N -11.798500 -13.402900 -16.068200
C -11.746300 -14.535000 -15.398700
H -11.523700 -17.039000 -14.327900
O -11.394300 -17.549500 -20.033800
H -11.303100 -12.624500 -17.796200
C -11.260100 -13.430800 -17.294600
C -11.194300 -15.721500 -15.887100
C -11.143400 -16.961500 -15.194800
H -11.019400 -19.416000 -14.476100
H -10.706300 -17.651400 -22.626300
N -10.673600 -14.464900 -17.883100
C -10.643900 -15.596500 -17.178500
H -10.628000 -19.090500 -21.930500
C -10.546500 -18.040700 -15.779800
N -10.443000 -19.259200 -15.197400
C -10.208100 -17.349300 -20.092800
H -10.114000 -19.934900 -15.649900
C -10.106300 -18.315700 -22.227400
N -10.022700 -16.691100 -17.742700
C -9.950000 -17.926700 -17.118100
H -9.447200 -18.601600 -22.894100
O -9.422300 -17.729700 -21.091900
O -9.418300 -18.872000 -17.686300
C -9.402300 -16.606100 -19.056600
H -9.323900 -15.655500 -19.321800
H -8.489900 -16.988000 -19.014200
54
Fragment
H -10.636800 -11.093000 -14.175200
H -9.802700 -12.425500 -13.867600
C -9.724300 -11.474900 -14.132800
O -9.708300 -9.209000 -15.503100
O -9.704300 -10.351300 -12.097500
H -9.679500 -9.479400 -10.295400
C -9.176600 -10.154300 -16.071300
N -9.103900 -11.389900 -15.446700
C -9.020400 -9.765300 -10.962000
H -9.012700 -8.146100 -17.539500
C -8.918500 -10.731700 -13.096700
N -8.683600 -8.821800 -17.992000
C -8.580100 -10.040300 -17.409600
H -8.498600 -8.990500 -11.259000
C -8.482800 -12.484500 -16.010900
N -8.453100 -13.616100 -15.306300
H -8.420400 -10.429600 -10.563100
H -8.107200 -8.665000 -18.713300
C -7.983300 -11.119500 -17.994600
C -7.932300 -12.359500 -17.302300
C -7.866500 -14.650200 -15.894900
H -7.823600 -15.456500 -15.393300
O -7.732300 -10.531500 -13.155600
H -7.602900 -11.042000 -18.861600
C -7.380300 -13.546000 -17.790700
N -7.328200 -14.678100 -17.121200
Cl -6.734500 -13.583100 -19.395000
Cl -12.392100 -14.497900 -13.794400
N -11.798500 -13.402900 -16.068200
C -11.746300 -14.535000 -15.398700
H -11.523700 -17.039000 -14.327900
O -11.394300 -17.549500 -20.033800
H -11.303100 -12.624500 -17.796200
C -11.260100 -13.430800 -17.294600
C -11.194300 -15.721500 -15.887100
C -11.143400 -16.961500 -15.194800
H -11.019400 -19.416000 -14.476100
H -10.706300 -17.651400 -22.626300
N -10.673600 -14.464900 -17.883100
C -10.643900 -15.596500 -17.178500
H -10.628000 -19.090500 -21.930500
C -10.546500 -18.040700 -15.779800
N -10.443000 -19.259200 -15.197400
C -10.208100 -17.349300 -20.092800
H -10.114000 -19.934900 -15.649900
C -10.106300 -18.315700 -22.227400
N -10.022700 -16.691100 -17.742700
C -9.950000 -17.926700 -17.118100
H -9.447200 -18.601600 -22.894100
O -9.422300 -17.729700 -21.091900
O -9.418300 -18.872000 -17.686300
C -9.402300 -16.606100 -19.056600
H -9.323900 -15.655500 -19.321800
H -8.489900 -16.988000 -19.014200
