24
Fragment
H -20.725400 -20.074000 -17.115500
H -20.303100 -21.616100 -17.051900
O -20.213500 -18.588000 -15.441800
C -19.977600 -20.702700 -17.192000
H -19.915100 -17.637200 -12.746400
H -19.580600 -20.630800 -18.085000
C -19.232000 -19.299300 -15.305400
H -19.046300 -16.550000 -13.537100
C -19.020700 -17.249100 -12.851000
N -18.965400 -20.384100 -16.178900
H -18.731900 -16.860900 -11.998500
C -18.214300 -19.171100 -14.318300
N -18.077900 -18.296400 -13.255800
C -17.843300 -21.200000 -16.161300
O -17.693600 -22.102900 -16.990500
C -17.096000 -19.961500 -14.286900
C -16.918700 -18.613100 -12.660600
N -16.891700 -20.966800 -15.196900
H -16.587300 -18.164000 -11.892200
N -16.274000 -19.624100 -13.255000
H -15.846600 -22.650700 -15.560500
C -15.667000 -21.768500 -15.172900
H -15.363700 -21.873300 -14.246700
H -14.971400 -21.317900 -15.695400
24
Fragment
H -13.268400 -20.074000 -17.115500
H -12.846100 -21.616100 -17.051900
O -12.756500 -18.588000 -15.441800
C -12.520600 -20.702700 -17.192000
H -12.458100 -17.637200 -12.746400
H -12.123600 -20.630800 -18.085000
C -11.775000 -19.299300 -15.305400
H -11.589300 -16.550000 -13.537100
C -11.563700 -17.249100 -12.851000
N -11.508400 -20.384100 -16.178900
H -11.274900 -16.860900 -11.998500
C -10.757300 -19.171100 -14.318300
N -10.620900 -18.296400 -13.255800
C -10.386300 -21.200000 -16.161300
O -10.236600 -22.102900 -16.990500
C -9.639000 -19.961500 -14.286900
C -9.461700 -18.613100 -12.660600
N -9.434700 -20.966800 -15.196900
H -9.130300 -18.164000 -11.892200
N -8.817000 -19.624100 -13.255000
H -8.389600 -22.650700 -15.560500
C -8.210000 -21.768500 -15.172900
H -7.906700 -21.873300 -14.246700
H -7.514400 -21.317900 -15.695400
48
Fragment
H -20.725400 -20.074000 -17.115500
H -20.303100 -21.616100 -17.051900
O -20.213500 -18.588000 -15.441800
C -19.977600 -20.702700 -17.192000
H -19.915100 -17.637200 -12.746400
H -19.580600 -20.630800 -18.085000
C -19.232000 -19.299300 -15.305400
H -19.046300 -16.550000 -13.537100
C -19.020700 -17.249100 -12.851000
N -18.965400 -20.384100 -16.178900
H -18.731900 -16.860900 -11.998500
C -18.214300 -19.171100 -14.318300
N -18.077900 -18.296400 -13.255800
C -17.843300 -21.200000 -16.161300
O -17.693600 -22.102900 -16.990500
C -17.096000 -19.961500 -14.286900
C -16.918700 -18.613100 -12.660600
N -16.891700 -20.966800 -15.196900
H -16.587300 -18.164000 -11.892200
N -16.274000 -19.624100 -13.255000
H -15.846600 -22.650700 -15.560500
C -15.667000 -21.768500 -15.172900
H -15.363700 -21.873300 -14.246700
H -14.971400 -21.317900 -15.695400
H -13.268400 -20.074000 -17.115500
H -12.846100 -21.616100 -17.051900
O -12.756500 -18.588000 -15.441800
C -12.520600 -20.702700 -17.192000
H -12.458100 -17.637200 -12.746400
H -12.123600 -20.630800 -18.085000
C -11.775000 -19.299300 -15.305400
H -11.589300 -16.550000 -13.537100
C -11.563700 -17.249100 -12.851000
N -11.508400 -20.384100 -16.178900
H -11.274900 -16.860900 -11.998500
C -10.757300 -19.171100 -14.318300
N -10.620900 -18.296400 -13.255800
C -10.386300 -21.200000 -16.161300
O -10.236600 -22.102900 -16.990500
C -9.639000 -19.961500 -14.286900
C -9.461700 -18.613100 -12.660600
N -9.434700 -20.966800 -15.196900
H -9.130300 -18.164000 -11.892200
N -8.817000 -19.624100 -13.255000
H -8.389600 -22.650700 -15.560500
C -8.210000 -21.768500 -15.172900
H -7.906700 -21.873300 -14.246700
H -7.514400 -21.317900 -15.695400
