24
Fragment
H -20.725400 -20.074000 -17.115500
H -20.303100 -21.616100 -17.051900
O -20.213500 -18.588000 -15.441800
C -19.977600 -20.702700 -17.192000
H -19.915100 -17.637200 -12.746400
H -19.580600 -20.630800 -18.085000
C -19.232000 -19.299300 -15.305400
H -19.046300 -16.550000 -13.537100
C -19.020700 -17.249100 -12.851000
N -18.965400 -20.384100 -16.178900
H -18.731900 -16.860900 -11.998500
C -18.214300 -19.171100 -14.318300
N -18.077900 -18.296400 -13.255800
C -17.843300 -21.200000 -16.161300
O -17.693600 -22.102900 -16.990500
C -17.096000 -19.961500 -14.286900
C -16.918700 -18.613100 -12.660600
N -16.891700 -20.966800 -15.196900
H -16.587300 -18.164000 -11.892200
N -16.274000 -19.624100 -13.255000
H -15.846600 -22.650700 -15.560500
C -15.667000 -21.768500 -15.172900
H -15.363700 -21.873300 -14.246700
H -14.971400 -21.317900 -15.695400
24
Fragment
H -28.047300 -16.416700 -17.204400
H -27.655000 -15.861300 -18.653000
C -27.351800 -15.966100 -17.726800
H -27.172100 -15.083900 -17.339200
N -26.744800 -18.110400 -19.644800
H -26.431400 -19.570600 -21.007600
N -26.127100 -16.767800 -17.702800
C -26.100000 -19.121500 -20.239100
C -25.922800 -17.773000 -18.612800
O -25.325100 -15.631700 -15.909200
C -25.175400 -16.534600 -16.738400
N -24.940900 -19.438200 -19.643900
C -24.804500 -18.563500 -18.581400
H -24.286800 -20.873700 -20.901200
N -24.053400 -17.350500 -16.720800
C -23.998000 -20.485500 -20.048800
H -23.972400 -21.184600 -19.362600
C -23.786700 -18.435300 -17.594300
H -23.438100 -17.103800 -14.814700
H -23.103700 -20.097400 -20.153300
C -23.041200 -17.031900 -15.707800
O -22.805300 -19.146600 -17.457900
H -22.715600 -16.118500 -15.847800
H -22.293400 -17.660600 -15.784200
48
Fragment
H -20.725400 -20.074000 -17.115500
H -20.303100 -21.616100 -17.051900
O -20.213500 -18.588000 -15.441800
C -19.977600 -20.702700 -17.192000
H -19.915100 -17.637200 -12.746400
H -19.580600 -20.630800 -18.085000
C -19.232000 -19.299300 -15.305400
H -19.046300 -16.550000 -13.537100
C -19.020700 -17.249100 -12.851000
N -18.965400 -20.384100 -16.178900
H -18.731900 -16.860900 -11.998500
C -18.214300 -19.171100 -14.318300
N -18.077900 -18.296400 -13.255800
C -17.843300 -21.200000 -16.161300
O -17.693600 -22.102900 -16.990500
C -17.096000 -19.961500 -14.286900
C -16.918700 -18.613100 -12.660600
N -16.891700 -20.966800 -15.196900
H -16.587300 -18.164000 -11.892200
N -16.274000 -19.624100 -13.255000
H -15.846600 -22.650700 -15.560500
C -15.667000 -21.768500 -15.172900
H -15.363700 -21.873300 -14.246700
H -14.971400 -21.317900 -15.695400
H -28.047300 -16.416700 -17.204400
H -27.655000 -15.861300 -18.653000
C -27.351800 -15.966100 -17.726800
H -27.172100 -15.083900 -17.339200
N -26.744800 -18.110400 -19.644800
H -26.431400 -19.570600 -21.007600
N -26.127100 -16.767800 -17.702800
C -26.100000 -19.121500 -20.239100
C -25.922800 -17.773000 -18.612800
O -25.325100 -15.631700 -15.909200
C -25.175400 -16.534600 -16.738400
N -24.940900 -19.438200 -19.643900
C -24.804500 -18.563500 -18.581400
H -24.286800 -20.873700 -20.901200
N -24.053400 -17.350500 -16.720800
C -23.998000 -20.485500 -20.048800
H -23.972400 -21.184600 -19.362600
C -23.786700 -18.435300 -17.594300
H -23.438100 -17.103800 -14.814700
H -23.103700 -20.097400 -20.153300
C -23.041200 -17.031900 -15.707800
O -22.805300 -19.146600 -17.457900
H -22.715600 -16.118500 -15.847800
H -22.293400 -17.660600 -15.784200
