16
Fragment
N -12.646200 -20.989600 -21.297700
N -12.642200 -22.760500 -19.471100
H -12.450100 -20.393800 -21.899900
H -12.415300 -23.344300 -18.871200
C -12.216300 -21.473000 -19.163600
C -12.212700 -22.272000 -21.612200
N -12.175800 -20.544700 -20.030300
N -12.173100 -23.201300 -20.742000
O -11.935000 -21.685100 -23.862800
O -11.931900 -22.062400 -16.907200
C -11.799600 -22.531500 -23.024000
C -11.797300 -21.216300 -17.755300
O -11.319400 -23.717500 -23.193000
O -11.317100 -20.030900 -17.577000
H -11.101900 -23.828600 -24.031700
H -11.062900 -19.941200 -16.751100
16
Fragment
H -10.271900 -30.056200 -29.844500
H -10.232900 -26.168700 -22.563900
O -10.017700 -29.966500 -29.018600
O -10.015300 -26.279900 -23.402600
C -9.537500 -28.781100 -28.840300
C -9.535200 -27.465900 -23.571500
O -9.402900 -27.935000 -29.688400
O -9.399700 -28.312300 -22.732800
N -9.161600 -26.796000 -25.853600
N -9.158900 -29.452700 -26.565300
C -9.122100 -27.725400 -24.983400
C -9.118500 -28.524400 -27.432000
H -8.919500 -26.653100 -27.724400
H -8.884600 -29.603600 -24.695700
N -8.692500 -27.236900 -27.124500
N -8.688500 -29.007800 -25.297900
32
Fragment
N -12.646200 -20.989600 -21.297700
N -12.642200 -22.760500 -19.471100
H -12.450100 -20.393800 -21.899900
H -12.415300 -23.344300 -18.871200
C -12.216300 -21.473000 -19.163600
C -12.212700 -22.272000 -21.612200
N -12.175800 -20.544700 -20.030300
N -12.173100 -23.201300 -20.742000
O -11.935000 -21.685100 -23.862800
O -11.931900 -22.062400 -16.907200
C -11.799600 -22.531500 -23.024000
C -11.797300 -21.216300 -17.755300
O -11.319400 -23.717500 -23.193000
O -11.317100 -20.030900 -17.577000
H -11.101900 -23.828600 -24.031700
H -11.062900 -19.941200 -16.751100
H -10.271900 -30.056200 -29.844500
H -10.232900 -26.168700 -22.563900
O -10.017700 -29.966500 -29.018600
O -10.015300 -26.279900 -23.402600
C -9.537500 -28.781100 -28.840300
C -9.535200 -27.465900 -23.571500
O -9.402900 -27.935000 -29.688400
O -9.399700 -28.312300 -22.732800
N -9.161600 -26.796000 -25.853600
N -9.158900 -29.452700 -26.565300
C -9.122100 -27.725400 -24.983400
C -9.118500 -28.524400 -27.432000
H -8.919500 -26.653100 -27.724400
H -8.884600 -29.603600 -24.695700
N -8.692500 -27.236900 -27.124500
N -8.688500 -29.007800 -25.297900
