16
Fragment
N -12.646200 -20.989600 -21.297700
N -12.642200 -22.760500 -19.471100
H -12.450100 -20.393800 -21.899900
H -12.415300 -23.344300 -18.871200
C -12.216300 -21.473000 -19.163600
C -12.212700 -22.272000 -21.612200
N -12.175800 -20.544700 -20.030300
N -12.173100 -23.201300 -20.742000
O -11.935000 -21.685100 -23.862800
O -11.931900 -22.062400 -16.907200
C -11.799600 -22.531500 -23.024000
C -11.797300 -21.216300 -17.755300
O -11.319400 -23.717500 -23.193000
O -11.317100 -20.030900 -17.577000
H -11.101900 -23.828600 -24.031700
H -11.062900 -19.941200 -16.751100
3
Fragment
H -12.571300 -21.121700 -14.526200
O -12.112500 -21.321400 -13.854000
H -11.825300 -22.099600 -13.873800
19
Fragment
N -12.646200 -20.989600 -21.297700
N -12.642200 -22.760500 -19.471100
H -12.450100 -20.393800 -21.899900
H -12.415300 -23.344300 -18.871200
C -12.216300 -21.473000 -19.163600
C -12.212700 -22.272000 -21.612200
N -12.175800 -20.544700 -20.030300
N -12.173100 -23.201300 -20.742000
O -11.935000 -21.685100 -23.862800
O -11.931900 -22.062400 -16.907200
C -11.799600 -22.531500 -23.024000
C -11.797300 -21.216300 -17.755300
O -11.319400 -23.717500 -23.193000
O -11.317100 -20.030900 -17.577000
H -11.101900 -23.828600 -24.031700
H -11.062900 -19.941200 -16.751100
H -12.571300 -21.121700 -14.526200
O -12.112500 -21.321400 -13.854000
H -11.825300 -22.099600 -13.873800
