16
Fragment
N -12.646200 -20.989600 -21.297700
N -12.642200 -22.760500 -19.471100
H -12.450100 -20.393800 -21.899900
H -12.415300 -23.344300 -18.871200
C -12.216300 -21.473000 -19.163600
C -12.212700 -22.272000 -21.612200
N -12.175800 -20.544700 -20.030300
N -12.173100 -23.201300 -20.742000
O -11.935000 -21.685100 -23.862800
O -11.931900 -22.062400 -16.907200
C -11.799600 -22.531500 -23.024000
C -11.797300 -21.216300 -17.755300
O -11.319400 -23.717500 -23.193000
O -11.317100 -20.030900 -17.577000
H -11.101900 -23.828600 -24.031700
H -11.062900 -19.941200 -16.751100
16
Fragment
H -15.627400 -20.413300 -29.844500
H -15.588400 -16.525900 -22.563900
O -15.373200 -20.323600 -29.018600
O -15.370900 -16.637000 -23.402600
C -14.893000 -19.138200 -28.840300
C -14.890700 -17.823000 -23.571500
O -14.758400 -18.292100 -29.688400
O -14.755300 -18.669400 -22.732800
N -14.517200 -17.153200 -25.853600
N -14.514500 -19.809800 -26.565300
C -14.477600 -18.082500 -24.983400
C -14.474000 -18.881500 -27.432000
H -14.275000 -17.010200 -27.724400
H -14.240200 -19.960700 -24.695700
N -14.048100 -17.594000 -27.124500
N -14.044100 -19.364900 -25.297900
32
Fragment
N -12.646200 -20.989600 -21.297700
N -12.642200 -22.760500 -19.471100
H -12.450100 -20.393800 -21.899900
H -12.415300 -23.344300 -18.871200
C -12.216300 -21.473000 -19.163600
C -12.212700 -22.272000 -21.612200
N -12.175800 -20.544700 -20.030300
N -12.173100 -23.201300 -20.742000
O -11.935000 -21.685100 -23.862800
O -11.931900 -22.062400 -16.907200
C -11.799600 -22.531500 -23.024000
C -11.797300 -21.216300 -17.755300
O -11.319400 -23.717500 -23.193000
O -11.317100 -20.030900 -17.577000
H -11.101900 -23.828600 -24.031700
H -11.062900 -19.941200 -16.751100
H -15.627400 -20.413300 -29.844500
H -15.588400 -16.525900 -22.563900
O -15.373200 -20.323600 -29.018600
O -15.370900 -16.637000 -23.402600
C -14.893000 -19.138200 -28.840300
C -14.890700 -17.823000 -23.571500
O -14.758400 -18.292100 -29.688400
O -14.755300 -18.669400 -22.732800
N -14.517200 -17.153200 -25.853600
N -14.514500 -19.809800 -26.565300
C -14.477600 -18.082500 -24.983400
C -14.474000 -18.881500 -27.432000
H -14.275000 -17.010200 -27.724400
H -14.240200 -19.960700 -24.695700
N -14.048100 -17.594000 -27.124500
N -14.044100 -19.364900 -25.297900
