29
Fragment
H -7.544900 -12.219500 -44.507400
H -7.388800 -11.699900 -46.732500
C -7.231800 -11.383500 -44.768800
C -7.145800 -11.073900 -46.089100
H -6.919500 -10.696000 -42.921300
C -6.856500 -10.462300 -43.818400
C -6.696300 -9.828800 -46.469500
H -6.658200 -9.626300 -47.377900
C -6.381400 -9.186000 -44.151400
H -6.367900 -9.266900 -41.444400
C -6.295800 -8.856100 -45.547400
C -6.073200 -8.439400 -41.751000
C -6.014100 -8.207400 -43.155400
O -6.000600 -7.805000 -48.213000
C -5.817500 -7.542600 -45.930400
H -5.748000 -7.696200 -39.945000
H -5.741300 -5.101200 -47.410000
C -5.718700 -7.505500 -40.853900
C -5.649300 -7.093000 -47.312700
C -5.600900 -6.941100 -43.551600
C -5.500300 -6.637400 -44.953400
C -5.308900 -6.257800 -41.289900
C -5.237300 -5.971000 -42.602200
H -5.208200 -5.791300 -45.207400
C -5.133200 -5.785400 -47.702500
H -5.079200 -5.608300 -40.667400
H -5.043800 -5.748300 -48.658900
H -4.948100 -5.131600 -42.879600
H -4.275500 -5.645400 -47.294400
16
Fragment
N -7.259600 -11.858500 -53.991400
N -7.100500 -11.076500 -50.012000
C -6.912500 -10.827600 -53.604800
C -6.826800 -10.301200 -50.776400
C -6.492600 -9.554600 -53.118000
C -6.448700 -9.298200 -51.767900
H -6.164600 -8.777700 -54.932800
C -6.114300 -8.599700 -54.020900
C -6.013500 -8.047900 -51.302400
H -5.984500 -7.874200 -50.389500
C -5.649400 -7.353700 -53.574900
C -5.632700 -7.085400 -52.198500
C -5.202500 -6.354000 -54.507000
C -5.185900 -5.800600 -51.732600
N -4.862300 -4.784900 -51.356900
N -4.856900 -5.582100 -55.227200
45
Fragment
H -7.544900 -12.219500 -44.507400
H -7.388800 -11.699900 -46.732500
C -7.231800 -11.383500 -44.768800
C -7.145800 -11.073900 -46.089100
H -6.919500 -10.696000 -42.921300
C -6.856500 -10.462300 -43.818400
C -6.696300 -9.828800 -46.469500
H -6.658200 -9.626300 -47.377900
C -6.381400 -9.186000 -44.151400
H -6.367900 -9.266900 -41.444400
C -6.295800 -8.856100 -45.547400
C -6.073200 -8.439400 -41.751000
C -6.014100 -8.207400 -43.155400
O -6.000600 -7.805000 -48.213000
C -5.817500 -7.542600 -45.930400
H -5.748000 -7.696200 -39.945000
H -5.741300 -5.101200 -47.410000
C -5.718700 -7.505500 -40.853900
C -5.649300 -7.093000 -47.312700
C -5.600900 -6.941100 -43.551600
C -5.500300 -6.637400 -44.953400
C -5.308900 -6.257800 -41.289900
C -5.237300 -5.971000 -42.602200
H -5.208200 -5.791300 -45.207400
C -5.133200 -5.785400 -47.702500
H -5.079200 -5.608300 -40.667400
H -5.043800 -5.748300 -48.658900
H -4.948100 -5.131600 -42.879600
H -4.275500 -5.645400 -47.294400
N -7.259600 -11.858500 -53.991400
N -7.100500 -11.076500 -50.012000
C -6.912500 -10.827600 -53.604800
C -6.826800 -10.301200 -50.776400
C -6.492600 -9.554600 -53.118000
C -6.448700 -9.298200 -51.767900
H -6.164600 -8.777700 -54.932800
C -6.114300 -8.599700 -54.020900
C -6.013500 -8.047900 -51.302400
H -5.984500 -7.874200 -50.389500
C -5.649400 -7.353700 -53.574900
C -5.632700 -7.085400 -52.198500
C -5.202500 -6.354000 -54.507000
C -5.185900 -5.800600 -51.732600
N -4.862300 -4.784900 -51.356900
N -4.856900 -5.582100 -55.227200
