29
Fragment
H -7.544900 -12.219500 -44.507400
H -7.388800 -11.699900 -46.732500
C -7.231800 -11.383500 -44.768800
C -7.145800 -11.073900 -46.089100
H -6.919500 -10.696000 -42.921300
C -6.856500 -10.462300 -43.818400
C -6.696300 -9.828800 -46.469500
H -6.658200 -9.626300 -47.377900
C -6.381400 -9.186000 -44.151400
H -6.367900 -9.266900 -41.444400
C -6.295800 -8.856100 -45.547400
C -6.073200 -8.439400 -41.751000
C -6.014100 -8.207400 -43.155400
O -6.000600 -7.805000 -48.213000
C -5.817500 -7.542600 -45.930400
H -5.748000 -7.696200 -39.945000
H -5.741300 -5.101200 -47.410000
C -5.718700 -7.505500 -40.853900
C -5.649300 -7.093000 -47.312700
C -5.600900 -6.941100 -43.551600
C -5.500300 -6.637400 -44.953400
C -5.308900 -6.257800 -41.289900
C -5.237300 -5.971000 -42.602200
H -5.208200 -5.791300 -45.207400
C -5.133200 -5.785400 -47.702500
H -5.079200 -5.608300 -40.667400
H -5.043800 -5.748300 -48.658900
H -4.948100 -5.131600 -42.879600
H -4.275500 -5.645400 -47.294400
29
Fragment
H -7.544900 -3.783500 -44.507400
H -7.388800 -3.263900 -46.732500
C -7.231800 -2.947500 -44.768800
C -7.145800 -2.637900 -46.089100
H -6.919500 -2.260000 -42.921300
C -6.856500 -2.026300 -43.818400
C -6.696300 -1.392800 -46.469500
H -6.658200 -1.190300 -47.377900
C -6.381400 -0.750000 -44.151400
H -6.367900 -0.830900 -41.444400
C -6.295800 -0.420100 -45.547400
C -6.073200 -0.003400 -41.751000
C -6.014100 0.228600 -43.155400
O -6.000600 0.631000 -48.213000
C -5.817500 0.893400 -45.930400
H -5.748000 0.739800 -39.945000
H -5.741300 3.334800 -47.410000
C -5.718700 0.930500 -40.853900
C -5.649300 1.343000 -47.312700
C -5.600900 1.494900 -43.551600
C -5.500300 1.798600 -44.953400
C -5.308900 2.178200 -41.289900
C -5.237300 2.465000 -42.602200
H -5.208200 2.644700 -45.207400
C -5.133200 2.650600 -47.702500
H -5.079200 2.827700 -40.667400
H -5.043800 2.687700 -48.658900
H -4.948100 3.304400 -42.879600
H -4.275500 2.790600 -47.294400
58
Fragment
H -7.544900 -12.219500 -44.507400
H -7.388800 -11.699900 -46.732500
C -7.231800 -11.383500 -44.768800
C -7.145800 -11.073900 -46.089100
H -6.919500 -10.696000 -42.921300
C -6.856500 -10.462300 -43.818400
C -6.696300 -9.828800 -46.469500
H -6.658200 -9.626300 -47.377900
C -6.381400 -9.186000 -44.151400
H -6.367900 -9.266900 -41.444400
C -6.295800 -8.856100 -45.547400
C -6.073200 -8.439400 -41.751000
C -6.014100 -8.207400 -43.155400
O -6.000600 -7.805000 -48.213000
C -5.817500 -7.542600 -45.930400
H -5.748000 -7.696200 -39.945000
H -5.741300 -5.101200 -47.410000
C -5.718700 -7.505500 -40.853900
C -5.649300 -7.093000 -47.312700
C -5.600900 -6.941100 -43.551600
C -5.500300 -6.637400 -44.953400
C -5.308900 -6.257800 -41.289900
C -5.237300 -5.971000 -42.602200
H -5.208200 -5.791300 -45.207400
C -5.133200 -5.785400 -47.702500
H -5.079200 -5.608300 -40.667400
H -5.043800 -5.748300 -48.658900
H -4.948100 -5.131600 -42.879600
H -4.275500 -5.645400 -47.294400
H -7.544900 -3.783500 -44.507400
H -7.388800 -3.263900 -46.732500
C -7.231800 -2.947500 -44.768800
C -7.145800 -2.637900 -46.089100
H -6.919500 -2.260000 -42.921300
C -6.856500 -2.026300 -43.818400
C -6.696300 -1.392800 -46.469500
H -6.658200 -1.190300 -47.377900
C -6.381400 -0.750000 -44.151400
H -6.367900 -0.830900 -41.444400
C -6.295800 -0.420100 -45.547400
C -6.073200 -0.003400 -41.751000
C -6.014100 0.228600 -43.155400
O -6.000600 0.631000 -48.213000
C -5.817500 0.893400 -45.930400
H -5.748000 0.739800 -39.945000
H -5.741300 3.334800 -47.410000
C -5.718700 0.930500 -40.853900
C -5.649300 1.343000 -47.312700
C -5.600900 1.494900 -43.551600
C -5.500300 1.798600 -44.953400
C -5.308900 2.178200 -41.289900
C -5.237300 2.465000 -42.602200
H -5.208200 2.644700 -45.207400
C -5.133200 2.650600 -47.702500
H -5.079200 2.827700 -40.667400
H -5.043800 2.687700 -48.658900
H -4.948100 3.304400 -42.879600
H -4.275500 2.790600 -47.294400
