36
Fragment
O -14.951000 -10.243800 -20.898400
O -14.632100 -10.856700 -22.927100
N -14.284700 -10.812600 -21.748100
H -14.046300 -10.642300 -19.088400
N -13.286100 -11.067900 -18.964200
C -13.066200 -11.462400 -21.359900
H -12.965800 -11.167900 -18.150700
C -12.623700 -11.556200 -20.001100
H -12.603500 -11.986200 -23.258000
C -12.312000 -12.037600 -22.355500
N -11.468000 -12.193100 -19.718100
C -11.135600 -12.686400 -22.052600
O -10.790800 -13.145700 -24.273800
C -10.737200 -12.744100 -20.682800
N -10.392000 -13.276400 -23.116300
H -9.891700 -13.087600 -18.347200
N -9.601900 -13.347900 -20.287700
O -9.574800 -12.864100 -16.390500
O -9.360400 -13.909200 -22.834400
N -9.333300 -13.425300 -18.937300
H -9.043600 -13.685700 -20.877700
N -8.543200 -13.496900 -16.108600
C -8.198100 -14.029200 -18.542100
O -8.144400 -13.627600 -14.951100
C -7.799700 -14.086900 -17.172300
N -7.467200 -14.580200 -19.506800
C -6.623300 -14.735700 -16.869500
H -6.331800 -14.787100 -15.966900
C -6.311600 -15.217100 -19.223900
H -5.969500 -15.605400 -21.074200
C -5.869100 -15.310800 -17.865000
N -5.649200 -15.705400 -20.260700
H -4.889000 -16.131000 -20.136500
N -4.650600 -15.960700 -17.476800
O -4.303200 -15.916600 -16.297800
O -3.984200 -16.529500 -18.326500
36
Fragment
O -9.233400 -17.275800 -20.898400
O -8.914500 -17.888700 -22.927100
N -8.567100 -17.844600 -21.748100
H -8.328700 -17.674300 -19.088400
N -7.568500 -18.099900 -18.964200
C -7.348600 -18.494500 -21.359900
H -7.248200 -18.200000 -18.150700
C -6.906100 -18.588200 -20.001100
H -6.885900 -19.018200 -23.258000
C -6.594400 -19.069600 -22.355500
N -5.750500 -19.225200 -19.718100
C -5.418000 -19.718500 -22.052600
O -5.073200 -20.177800 -24.273800
C -5.019600 -19.776200 -20.682800
N -4.674500 -20.308400 -23.116300
H -4.174100 -20.119700 -18.347200
N -3.884300 -20.380000 -20.287700
O -3.857300 -19.896100 -16.390500
O -3.642800 -20.941300 -22.834400
N -3.615800 -20.457400 -18.937300
H -3.326000 -20.717700 -20.877700
N -2.825600 -20.529000 -16.108600
C -2.480500 -21.061200 -18.542100
O -2.426900 -20.659600 -14.951100
C -2.082100 -21.118900 -17.172300
N -1.749600 -21.612200 -19.506800
C -0.905700 -21.767700 -16.869500
H -0.614200 -21.819200 -15.966900
C -0.594000 -22.249100 -19.223900
H -0.251900 -22.637400 -21.074200
C -0.151500 -22.342900 -17.865000
N 0.068400 -22.737400 -20.260700
H 0.828600 -23.163000 -20.136500
N 1.067000 -22.992700 -17.476800
O 1.414400 -22.948700 -16.297800
O 1.733300 -23.561500 -18.326500
72
Fragment
O -14.951000 -10.243800 -20.898400
O -14.632100 -10.856700 -22.927100
N -14.284700 -10.812600 -21.748100
H -14.046300 -10.642300 -19.088400
N -13.286100 -11.067900 -18.964200
C -13.066200 -11.462400 -21.359900
H -12.965800 -11.167900 -18.150700
C -12.623700 -11.556200 -20.001100
H -12.603500 -11.986200 -23.258000
C -12.312000 -12.037600 -22.355500
N -11.468000 -12.193100 -19.718100
C -11.135600 -12.686400 -22.052600
O -10.790800 -13.145700 -24.273800
C -10.737200 -12.744100 -20.682800
N -10.392000 -13.276400 -23.116300
H -9.891700 -13.087600 -18.347200
N -9.601900 -13.347900 -20.287700
O -9.574800 -12.864100 -16.390500
O -9.360400 -13.909200 -22.834400
N -9.333300 -13.425300 -18.937300
H -9.043600 -13.685700 -20.877700
N -8.543200 -13.496900 -16.108600
C -8.198100 -14.029200 -18.542100
O -8.144400 -13.627600 -14.951100
C -7.799700 -14.086900 -17.172300
N -7.467200 -14.580200 -19.506800
C -6.623300 -14.735700 -16.869500
H -6.331800 -14.787100 -15.966900
C -6.311600 -15.217100 -19.223900
H -5.969500 -15.605400 -21.074200
C -5.869100 -15.310800 -17.865000
N -5.649200 -15.705400 -20.260700
H -4.889000 -16.131000 -20.136500
N -4.650600 -15.960700 -17.476800
O -4.303200 -15.916600 -16.297800
O -3.984200 -16.529500 -18.326500
O -9.233400 -17.275800 -20.898400
O -8.914500 -17.888700 -22.927100
N -8.567100 -17.844600 -21.748100
H -8.328700 -17.674300 -19.088400
N -7.568500 -18.099900 -18.964200
C -7.348600 -18.494500 -21.359900
H -7.248200 -18.200000 -18.150700
C -6.906100 -18.588200 -20.001100
H -6.885900 -19.018200 -23.258000
C -6.594400 -19.069600 -22.355500
N -5.750500 -19.225200 -19.718100
C -5.418000 -19.718500 -22.052600
O -5.073200 -20.177800 -24.273800
C -5.019600 -19.776200 -20.682800
N -4.674500 -20.308400 -23.116300
H -4.174100 -20.119700 -18.347200
N -3.884300 -20.380000 -20.287700
O -3.857300 -19.896100 -16.390500
O -3.642800 -20.941300 -22.834400
N -3.615800 -20.457400 -18.937300
H -3.326000 -20.717700 -20.877700
N -2.825600 -20.529000 -16.108600
C -2.480500 -21.061200 -18.542100
O -2.426900 -20.659600 -14.951100
C -2.082100 -21.118900 -17.172300
N -1.749600 -21.612200 -19.506800
C -0.905700 -21.767700 -16.869500
H -0.614200 -21.819200 -15.966900
C -0.594000 -22.249100 -19.223900
H -0.251900 -22.637400 -21.074200
C -0.151500 -22.342900 -17.865000
N 0.068400 -22.737400 -20.260700
H 0.828600 -23.163000 -20.136500
N 1.067000 -22.992700 -17.476800
O 1.414400 -22.948700 -16.297800
O 1.733300 -23.561500 -18.326500
