36
Fragment
O -14.951000 -10.243800 -20.898400
O -14.632100 -10.856700 -22.927100
N -14.284700 -10.812600 -21.748100
H -14.046300 -10.642300 -19.088400
N -13.286100 -11.067900 -18.964200
C -13.066200 -11.462400 -21.359900
H -12.965800 -11.167900 -18.150700
C -12.623700 -11.556200 -20.001100
H -12.603500 -11.986200 -23.258000
C -12.312000 -12.037600 -22.355500
N -11.468000 -12.193100 -19.718100
C -11.135600 -12.686400 -22.052600
O -10.790800 -13.145700 -24.273800
C -10.737200 -12.744100 -20.682800
N -10.392000 -13.276400 -23.116300
H -9.891700 -13.087600 -18.347200
N -9.601900 -13.347900 -20.287700
O -9.574800 -12.864100 -16.390500
O -9.360400 -13.909200 -22.834400
N -9.333300 -13.425300 -18.937300
H -9.043600 -13.685700 -20.877700
N -8.543200 -13.496900 -16.108600
C -8.198100 -14.029200 -18.542100
O -8.144400 -13.627600 -14.951100
C -7.799700 -14.086900 -17.172300
N -7.467200 -14.580200 -19.506800
C -6.623300 -14.735700 -16.869500
H -6.331800 -14.787100 -15.966900
C -6.311600 -15.217100 -19.223900
H -5.969500 -15.605400 -21.074200
C -5.869100 -15.310800 -17.865000
N -5.649200 -15.705400 -20.260700
H -4.889000 -16.131000 -20.136500
N -4.650600 -15.960700 -17.476800
O -4.303200 -15.916600 -16.297800
O -3.984200 -16.529500 -18.326500
12
Fragment
H -10.075400 -12.680300 -26.909100
H -9.723400 -12.358700 -28.436800
H -9.592500 -11.213000 -27.327100
C -9.486700 -12.171100 -27.504500
H -8.170200 -13.084900 -25.341000
N -8.108500 -12.557400 -27.268300
O -7.715200 -13.132500 -29.414900
H -7.700400 -11.573300 -25.576600
C -7.629400 -12.493700 -25.905300
C -7.353500 -13.009200 -28.261700
H -6.692600 -12.780200 -25.874900
H -6.459800 -13.256100 -28.054800
48
Fragment
O -14.951000 -10.243800 -20.898400
O -14.632100 -10.856700 -22.927100
N -14.284700 -10.812600 -21.748100
H -14.046300 -10.642300 -19.088400
N -13.286100 -11.067900 -18.964200
C -13.066200 -11.462400 -21.359900
H -12.965800 -11.167900 -18.150700
C -12.623700 -11.556200 -20.001100
H -12.603500 -11.986200 -23.258000
C -12.312000 -12.037600 -22.355500
N -11.468000 -12.193100 -19.718100
C -11.135600 -12.686400 -22.052600
O -10.790800 -13.145700 -24.273800
C -10.737200 -12.744100 -20.682800
N -10.392000 -13.276400 -23.116300
H -9.891700 -13.087600 -18.347200
N -9.601900 -13.347900 -20.287700
O -9.574800 -12.864100 -16.390500
O -9.360400 -13.909200 -22.834400
N -9.333300 -13.425300 -18.937300
H -9.043600 -13.685700 -20.877700
N -8.543200 -13.496900 -16.108600
C -8.198100 -14.029200 -18.542100
O -8.144400 -13.627600 -14.951100
C -7.799700 -14.086900 -17.172300
N -7.467200 -14.580200 -19.506800
C -6.623300 -14.735700 -16.869500
H -6.331800 -14.787100 -15.966900
C -6.311600 -15.217100 -19.223900
H -5.969500 -15.605400 -21.074200
C -5.869100 -15.310800 -17.865000
N -5.649200 -15.705400 -20.260700
H -4.889000 -16.131000 -20.136500
N -4.650600 -15.960700 -17.476800
O -4.303200 -15.916600 -16.297800
O -3.984200 -16.529500 -18.326500
H -10.075400 -12.680300 -26.909100
H -9.723400 -12.358700 -28.436800
H -9.592500 -11.213000 -27.327100
C -9.486700 -12.171100 -27.504500
H -8.170200 -13.084900 -25.341000
N -8.108500 -12.557400 -27.268300
O -7.715200 -13.132500 -29.414900
H -7.700400 -11.573300 -25.576600
C -7.629400 -12.493700 -25.905300
C -7.353500 -13.009200 -28.261700
H -6.692600 -12.780200 -25.874900
H -6.459800 -13.256100 -28.054800
