36
Fragment
O -14.951000 -10.243800 -20.898400
O -14.632100 -10.856700 -22.927100
N -14.284700 -10.812600 -21.748100
H -14.046300 -10.642300 -19.088400
N -13.286100 -11.067900 -18.964200
C -13.066200 -11.462400 -21.359900
H -12.965800 -11.167900 -18.150700
C -12.623700 -11.556200 -20.001100
H -12.603500 -11.986200 -23.258000
C -12.312000 -12.037600 -22.355500
N -11.468000 -12.193100 -19.718100
C -11.135600 -12.686400 -22.052600
O -10.790800 -13.145700 -24.273800
C -10.737200 -12.744100 -20.682800
N -10.392000 -13.276400 -23.116300
H -9.891700 -13.087600 -18.347200
N -9.601900 -13.347900 -20.287700
O -9.574800 -12.864100 -16.390500
O -9.360400 -13.909200 -22.834400
N -9.333300 -13.425300 -18.937300
H -9.043600 -13.685700 -20.877700
N -8.543200 -13.496900 -16.108600
C -8.198100 -14.029200 -18.542100
O -8.144400 -13.627600 -14.951100
C -7.799700 -14.086900 -17.172300
N -7.467200 -14.580200 -19.506800
C -6.623300 -14.735700 -16.869500
H -6.331800 -14.787100 -15.966900
C -6.311600 -15.217100 -19.223900
H -5.969500 -15.605400 -21.074200
C -5.869100 -15.310800 -17.865000
N -5.649200 -15.705400 -20.260700
H -4.889000 -16.131000 -20.136500
N -4.650600 -15.960700 -17.476800
O -4.303200 -15.916600 -16.297800
O -3.984200 -16.529500 -18.326500
36
Fragment
O -20.668600 -3.211800 -20.898400
O -20.349700 -3.824600 -22.927100
N -20.002200 -3.780600 -21.748100
H -19.763900 -3.610200 -19.088400
N -19.003700 -4.035800 -18.964200
C -18.783800 -4.430400 -21.359900
H -18.683300 -4.135900 -18.150700
C -18.341300 -4.524200 -20.001100
H -18.321100 -4.954100 -23.258000
C -18.029500 -5.005600 -22.355500
N -17.185600 -5.161100 -19.718100
C -16.853200 -5.654400 -22.052600
O -16.508400 -6.113700 -24.273800
C -16.454800 -5.712100 -20.682800
N -16.109600 -6.244300 -23.116300
H -15.609300 -6.055600 -18.347200
N -15.319500 -6.315900 -20.287700
O -15.292400 -5.832000 -16.390500
O -15.078000 -6.877200 -22.834400
N -15.050900 -6.393300 -18.937300
H -14.761200 -6.653600 -20.877700
N -14.260800 -6.464900 -16.108600
C -13.915600 -6.997100 -18.542100
O -13.862000 -6.595500 -14.951100
C -13.517300 -7.054800 -17.172300
N -13.184800 -7.548100 -19.506800
C -12.340900 -7.703700 -16.869500
H -12.049400 -7.755100 -15.966900
C -12.029200 -8.185100 -19.223900
H -11.687100 -8.573300 -21.074200
C -11.586700 -8.278800 -17.865000
N -11.366800 -8.673400 -20.260700
H -10.606600 -9.099000 -20.136500
N -10.368200 -8.928600 -17.476800
O -10.020700 -8.884600 -16.297800
O -9.701800 -9.497500 -18.326500
72
Fragment
O -14.951000 -10.243800 -20.898400
O -14.632100 -10.856700 -22.927100
N -14.284700 -10.812600 -21.748100
H -14.046300 -10.642300 -19.088400
N -13.286100 -11.067900 -18.964200
C -13.066200 -11.462400 -21.359900
H -12.965800 -11.167900 -18.150700
C -12.623700 -11.556200 -20.001100
H -12.603500 -11.986200 -23.258000
C -12.312000 -12.037600 -22.355500
N -11.468000 -12.193100 -19.718100
C -11.135600 -12.686400 -22.052600
O -10.790800 -13.145700 -24.273800
C -10.737200 -12.744100 -20.682800
N -10.392000 -13.276400 -23.116300
H -9.891700 -13.087600 -18.347200
N -9.601900 -13.347900 -20.287700
O -9.574800 -12.864100 -16.390500
O -9.360400 -13.909200 -22.834400
N -9.333300 -13.425300 -18.937300
H -9.043600 -13.685700 -20.877700
N -8.543200 -13.496900 -16.108600
C -8.198100 -14.029200 -18.542100
O -8.144400 -13.627600 -14.951100
C -7.799700 -14.086900 -17.172300
N -7.467200 -14.580200 -19.506800
C -6.623300 -14.735700 -16.869500
H -6.331800 -14.787100 -15.966900
C -6.311600 -15.217100 -19.223900
H -5.969500 -15.605400 -21.074200
C -5.869100 -15.310800 -17.865000
N -5.649200 -15.705400 -20.260700
H -4.889000 -16.131000 -20.136500
N -4.650600 -15.960700 -17.476800
O -4.303200 -15.916600 -16.297800
O -3.984200 -16.529500 -18.326500
O -20.668600 -3.211800 -20.898400
O -20.349700 -3.824600 -22.927100
N -20.002200 -3.780600 -21.748100
H -19.763900 -3.610200 -19.088400
N -19.003700 -4.035800 -18.964200
C -18.783800 -4.430400 -21.359900
H -18.683300 -4.135900 -18.150700
C -18.341300 -4.524200 -20.001100
H -18.321100 -4.954100 -23.258000
C -18.029500 -5.005600 -22.355500
N -17.185600 -5.161100 -19.718100
C -16.853200 -5.654400 -22.052600
O -16.508400 -6.113700 -24.273800
C -16.454800 -5.712100 -20.682800
N -16.109600 -6.244300 -23.116300
H -15.609300 -6.055600 -18.347200
N -15.319500 -6.315900 -20.287700
O -15.292400 -5.832000 -16.390500
O -15.078000 -6.877200 -22.834400
N -15.050900 -6.393300 -18.937300
H -14.761200 -6.653600 -20.877700
N -14.260800 -6.464900 -16.108600
C -13.915600 -6.997100 -18.542100
O -13.862000 -6.595500 -14.951100
C -13.517300 -7.054800 -17.172300
N -13.184800 -7.548100 -19.506800
C -12.340900 -7.703700 -16.869500
H -12.049400 -7.755100 -15.966900
C -12.029200 -8.185100 -19.223900
H -11.687100 -8.573300 -21.074200
C -11.586700 -8.278800 -17.865000
N -11.366800 -8.673400 -20.260700
H -10.606600 -9.099000 -20.136500
N -10.368200 -8.928600 -17.476800
O -10.020700 -8.884600 -16.297800
O -9.701800 -9.497500 -18.326500
