49
Fragment
H -26.069300 -20.550200 -29.073800
H -25.274600 -20.305500 -21.557100
C -25.255500 -21.056300 -29.085300
H -25.248700 -21.783300 -30.967700
H -24.866700 -20.576900 -27.096700
C -24.815100 -21.775100 -30.168500
H -24.805900 -21.113100 -20.324700
C -24.579400 -20.354000 -20.911500
C -24.565600 -21.065300 -27.881500
H -24.478500 -19.528900 -20.323200
N -24.118300 -22.381800 -22.595900
H -23.902100 -22.946900 -23.194200
O -23.776100 -20.457000 -25.091600
C -23.646300 -22.504200 -30.070900
C -23.397300 -21.805800 -27.795400
O -23.306800 -20.509900 -21.578700
H -23.257500 -22.988700 -30.875800
C -23.196600 -21.539400 -22.418000
C -22.932100 -22.515100 -28.888700
C -22.855800 -21.180600 -25.408000
N -22.642000 -21.835800 -26.584400
H -22.095600 -23.062800 -28.805500
N -22.060900 -18.004100 -23.865600
C -21.834400 -21.566900 -23.034900
H -21.782300 -23.741100 -21.458100
C -21.684700 -19.084400 -23.783900
C -21.657500 -21.557200 -24.547200
N -21.501400 -22.659800 -26.548200
C -21.124600 -20.413900 -23.663300
N -20.943700 -23.440000 -21.699200
C -20.923000 -22.515400 -25.406600
H -20.827900 -19.495000 -21.086500
C -20.694700 -22.306400 -22.343400
H -20.267400 -23.849100 -21.360600
H -19.903700 -23.891100 -24.273100
C -19.843400 -19.374300 -21.093700
C -19.732200 -23.378000 -25.119600
H -19.655400 -24.019600 -25.885800
C -19.639000 -20.510400 -23.205700
H -19.566600 -20.211700 -20.570000
N -19.528400 -21.765300 -22.499300
H -19.440700 -18.553500 -20.640300
O -19.274700 -19.415500 -22.406800
H -18.936400 -22.805200 -24.981900
O -18.874200 -20.429700 -24.359200
C -17.441000 -20.474000 -24.181300
H -17.216300 -21.261200 -23.789600
H -17.074700 -19.577800 -23.742300
H -16.983800 -20.532500 -25.080900
49
Fragment
H -30.555200 -26.279600 -17.961600
H -30.464300 -27.234300 -19.300300
H -30.322700 -25.550900 -19.252900
C -30.098000 -26.338200 -18.861200
O -28.664800 -26.382400 -18.683300
H -28.602600 -24.006900 -18.060600
O -28.264300 -27.396700 -20.635700
H -28.098200 -28.258600 -22.402200
N -28.010600 -25.046800 -20.543200
H -27.972400 -26.600400 -22.472500
C -27.899900 -26.301700 -19.836900
H -27.883600 -22.792600 -17.156800
C -27.806800 -23.434100 -17.922900
C -27.695500 -27.437900 -21.948800
H -27.635300 -22.921000 -18.769400
H -27.271600 -22.963000 -21.682000
C -26.844300 -24.505800 -20.699200
H -26.711100 -27.317200 -21.956000
C -26.616000 -24.296700 -17.636000
N -26.595300 -23.372100 -21.343400
C -26.414400 -26.398200 -19.379200
N -26.037600 -24.152300 -16.494300
C -25.881500 -25.255000 -18.495400
C -25.854200 -27.727700 -19.258700
H -25.756700 -23.071000 -21.584400
C -25.704600 -25.245300 -20.007600
N -25.478100 -28.808000 -19.176900
H -25.443400 -23.749300 -14.237000
N -24.897000 -24.976300 -16.458200
C -24.683200 -25.631500 -17.634500
C -24.606800 -24.297000 -14.153800
C -24.342400 -25.272700 -20.624500
H -24.281500 -23.823400 -12.166700
O -24.232200 -26.302200 -21.463900
C -24.141700 -25.006300 -15.247100
C -23.892700 -24.307900 -12.971600
O -23.762900 -26.355200 -17.950900
H -23.636900 -23.865300 -19.848300
N -23.420700 -24.430300 -20.446600
H -23.060500 -27.283200 -22.719300
C -22.973300 -25.746800 -15.161000
C -22.959600 -26.458200 -22.131000
H -22.733000 -25.699000 -22.717800
C -22.723900 -25.037100 -12.874000
H -22.672300 -26.235200 -15.945800
H -22.290300 -25.028800 -12.074900
C -22.283500 -25.755800 -13.957300
H -22.264400 -26.506600 -21.485400
H -21.469700 -26.261900 -13.968700
98
Fragment
H -26.069300 -20.550200 -29.073800
H -25.274600 -20.305500 -21.557100
C -25.255500 -21.056300 -29.085300
H -25.248700 -21.783300 -30.967700
H -24.866700 -20.576900 -27.096700
C -24.815100 -21.775100 -30.168500
H -24.805900 -21.113100 -20.324700
C -24.579400 -20.354000 -20.911500
C -24.565600 -21.065300 -27.881500
H -24.478500 -19.528900 -20.323200
N -24.118300 -22.381800 -22.595900
H -23.902100 -22.946900 -23.194200
O -23.776100 -20.457000 -25.091600
C -23.646300 -22.504200 -30.070900
C -23.397300 -21.805800 -27.795400
O -23.306800 -20.509900 -21.578700
H -23.257500 -22.988700 -30.875800
C -23.196600 -21.539400 -22.418000
C -22.932100 -22.515100 -28.888700
C -22.855800 -21.180600 -25.408000
N -22.642000 -21.835800 -26.584400
H -22.095600 -23.062800 -28.805500
N -22.060900 -18.004100 -23.865600
C -21.834400 -21.566900 -23.034900
H -21.782300 -23.741100 -21.458100
C -21.684700 -19.084400 -23.783900
C -21.657500 -21.557200 -24.547200
N -21.501400 -22.659800 -26.548200
C -21.124600 -20.413900 -23.663300
N -20.943700 -23.440000 -21.699200
C -20.923000 -22.515400 -25.406600
H -20.827900 -19.495000 -21.086500
C -20.694700 -22.306400 -22.343400
H -20.267400 -23.849100 -21.360600
H -19.903700 -23.891100 -24.273100
C -19.843400 -19.374300 -21.093700
C -19.732200 -23.378000 -25.119600
H -19.655400 -24.019600 -25.885800
C -19.639000 -20.510400 -23.205700
H -19.566600 -20.211700 -20.570000
N -19.528400 -21.765300 -22.499300
H -19.440700 -18.553500 -20.640300
O -19.274700 -19.415500 -22.406800
H -18.936400 -22.805200 -24.981900
O -18.874200 -20.429700 -24.359200
C -17.441000 -20.474000 -24.181300
H -17.216300 -21.261200 -23.789600
H -17.074700 -19.577800 -23.742300
H -16.983800 -20.532500 -25.080900
H -30.555200 -26.279600 -17.961600
H -30.464300 -27.234300 -19.300300
H -30.322700 -25.550900 -19.252900
C -30.098000 -26.338200 -18.861200
O -28.664800 -26.382400 -18.683300
H -28.602600 -24.006900 -18.060600
O -28.264300 -27.396700 -20.635700
H -28.098200 -28.258600 -22.402200
N -28.010600 -25.046800 -20.543200
H -27.972400 -26.600400 -22.472500
C -27.899900 -26.301700 -19.836900
H -27.883600 -22.792600 -17.156800
C -27.806800 -23.434100 -17.922900
C -27.695500 -27.437900 -21.948800
H -27.635300 -22.921000 -18.769400
H -27.271600 -22.963000 -21.682000
C -26.844300 -24.505800 -20.699200
H -26.711100 -27.317200 -21.956000
C -26.616000 -24.296700 -17.636000
N -26.595300 -23.372100 -21.343400
C -26.414400 -26.398200 -19.379200
N -26.037600 -24.152300 -16.494300
C -25.881500 -25.255000 -18.495400
C -25.854200 -27.727700 -19.258700
H -25.756700 -23.071000 -21.584400
C -25.704600 -25.245300 -20.007600
N -25.478100 -28.808000 -19.176900
H -25.443400 -23.749300 -14.237000
N -24.897000 -24.976300 -16.458200
C -24.683200 -25.631500 -17.634500
C -24.606800 -24.297000 -14.153800
C -24.342400 -25.272700 -20.624500
H -24.281500 -23.823400 -12.166700
O -24.232200 -26.302200 -21.463900
C -24.141700 -25.006300 -15.247100
C -23.892700 -24.307900 -12.971600
O -23.762900 -26.355200 -17.950900
H -23.636900 -23.865300 -19.848300
N -23.420700 -24.430300 -20.446600
H -23.060500 -27.283200 -22.719300
C -22.973300 -25.746800 -15.161000
C -22.959600 -26.458200 -22.131000
H -22.733000 -25.699000 -22.717800
C -22.723900 -25.037100 -12.874000
H -22.672300 -26.235200 -15.945800
H -22.290300 -25.028800 -12.074900
C -22.283500 -25.755800 -13.957300
H -22.264400 -26.506600 -21.485400
H -21.469700 -26.261900 -13.968700
