49
Fragment
H -26.069300 -20.550200 -29.073800
H -25.274600 -20.305500 -21.557100
C -25.255500 -21.056300 -29.085300
H -25.248700 -21.783300 -30.967700
H -24.866700 -20.576900 -27.096700
C -24.815100 -21.775100 -30.168500
H -24.805900 -21.113100 -20.324700
C -24.579400 -20.354000 -20.911500
C -24.565600 -21.065300 -27.881500
H -24.478500 -19.528900 -20.323200
N -24.118300 -22.381800 -22.595900
H -23.902100 -22.946900 -23.194200
O -23.776100 -20.457000 -25.091600
C -23.646300 -22.504200 -30.070900
C -23.397300 -21.805800 -27.795400
O -23.306800 -20.509900 -21.578700
H -23.257500 -22.988700 -30.875800
C -23.196600 -21.539400 -22.418000
C -22.932100 -22.515100 -28.888700
C -22.855800 -21.180600 -25.408000
N -22.642000 -21.835800 -26.584400
H -22.095600 -23.062800 -28.805500
N -22.060900 -18.004100 -23.865600
C -21.834400 -21.566900 -23.034900
H -21.782300 -23.741100 -21.458100
C -21.684700 -19.084400 -23.783900
C -21.657500 -21.557200 -24.547200
N -21.501400 -22.659800 -26.548200
C -21.124600 -20.413900 -23.663300
N -20.943700 -23.440000 -21.699200
C -20.923000 -22.515400 -25.406600
H -20.827900 -19.495000 -21.086500
C -20.694700 -22.306400 -22.343400
H -20.267400 -23.849100 -21.360600
H -19.903700 -23.891100 -24.273100
C -19.843400 -19.374300 -21.093700
C -19.732200 -23.378000 -25.119600
H -19.655400 -24.019600 -25.885800
C -19.639000 -20.510400 -23.205700
H -19.566600 -20.211700 -20.570000
N -19.528400 -21.765300 -22.499300
H -19.440700 -18.553500 -20.640300
O -19.274700 -19.415500 -22.406800
H -18.936400 -22.805200 -24.981900
O -18.874200 -20.429700 -24.359200
C -17.441000 -20.474000 -24.181300
H -17.216300 -21.261200 -23.789600
H -17.074700 -19.577800 -23.742300
H -16.983800 -20.532500 -25.080900
49
Fragment
H -27.700000 -15.571700 -17.961600
H -27.609100 -16.526400 -19.300300
H -27.467500 -14.843100 -19.252900
C -27.242800 -15.630300 -18.861200
O -25.809600 -15.674500 -18.683300
H -25.747400 -13.299000 -18.060600
O -25.409200 -16.688800 -20.635700
H -25.243100 -17.550700 -22.402200
N -25.155400 -14.338900 -20.543200
H -25.117200 -15.892500 -22.472500
C -25.044800 -15.593800 -19.836900
H -25.028500 -12.084700 -17.156800
C -24.951600 -12.726300 -17.922900
C -24.840400 -16.730000 -21.948800
H -24.780100 -12.213100 -18.769400
H -24.416400 -12.255100 -21.682000
C -23.989100 -13.797900 -20.699200
H -23.856000 -16.609300 -21.956000
C -23.760900 -13.588800 -17.636000
N -23.740200 -12.664200 -21.343400
C -23.559300 -15.690300 -19.379200
N -23.182400 -13.444500 -16.494300
C -23.026300 -14.547100 -18.495400
C -22.999100 -17.019800 -19.258700
H -22.901600 -12.363100 -21.584400
C -22.849500 -14.537400 -20.007600
N -22.623000 -18.100100 -19.176900
H -22.588300 -13.041400 -14.237000
N -22.041800 -14.268400 -16.458200
C -21.828000 -14.923600 -17.634500
C -21.751700 -13.589100 -14.153800
C -21.487300 -14.564800 -20.624500
H -21.426400 -13.115500 -12.166700
O -21.377100 -15.594300 -21.463900
C -21.286600 -14.298400 -15.247100
C -21.037600 -13.600100 -12.971600
O -20.907800 -15.647300 -17.950900
H -20.781700 -13.157400 -19.848300
N -20.565600 -13.722400 -20.446600
H -20.205300 -16.575300 -22.719300
C -20.118200 -15.038900 -15.161000
C -20.104400 -15.750300 -22.131000
H -19.877900 -14.991100 -22.717800
C -19.868700 -14.329200 -12.874000
H -19.817100 -15.527300 -15.945800
H -19.435200 -14.320900 -12.074900
C -19.428300 -15.047900 -13.957300
H -19.409200 -15.798700 -21.485400
H -18.614500 -15.554000 -13.968700
98
Fragment
H -26.069300 -20.550200 -29.073800
H -25.274600 -20.305500 -21.557100
C -25.255500 -21.056300 -29.085300
H -25.248700 -21.783300 -30.967700
H -24.866700 -20.576900 -27.096700
C -24.815100 -21.775100 -30.168500
H -24.805900 -21.113100 -20.324700
C -24.579400 -20.354000 -20.911500
C -24.565600 -21.065300 -27.881500
H -24.478500 -19.528900 -20.323200
N -24.118300 -22.381800 -22.595900
H -23.902100 -22.946900 -23.194200
O -23.776100 -20.457000 -25.091600
C -23.646300 -22.504200 -30.070900
C -23.397300 -21.805800 -27.795400
O -23.306800 -20.509900 -21.578700
H -23.257500 -22.988700 -30.875800
C -23.196600 -21.539400 -22.418000
C -22.932100 -22.515100 -28.888700
C -22.855800 -21.180600 -25.408000
N -22.642000 -21.835800 -26.584400
H -22.095600 -23.062800 -28.805500
N -22.060900 -18.004100 -23.865600
C -21.834400 -21.566900 -23.034900
H -21.782300 -23.741100 -21.458100
C -21.684700 -19.084400 -23.783900
C -21.657500 -21.557200 -24.547200
N -21.501400 -22.659800 -26.548200
C -21.124600 -20.413900 -23.663300
N -20.943700 -23.440000 -21.699200
C -20.923000 -22.515400 -25.406600
H -20.827900 -19.495000 -21.086500
C -20.694700 -22.306400 -22.343400
H -20.267400 -23.849100 -21.360600
H -19.903700 -23.891100 -24.273100
C -19.843400 -19.374300 -21.093700
C -19.732200 -23.378000 -25.119600
H -19.655400 -24.019600 -25.885800
C -19.639000 -20.510400 -23.205700
H -19.566600 -20.211700 -20.570000
N -19.528400 -21.765300 -22.499300
H -19.440700 -18.553500 -20.640300
O -19.274700 -19.415500 -22.406800
H -18.936400 -22.805200 -24.981900
O -18.874200 -20.429700 -24.359200
C -17.441000 -20.474000 -24.181300
H -17.216300 -21.261200 -23.789600
H -17.074700 -19.577800 -23.742300
H -16.983800 -20.532500 -25.080900
H -27.700000 -15.571700 -17.961600
H -27.609100 -16.526400 -19.300300
H -27.467500 -14.843100 -19.252900
C -27.242800 -15.630300 -18.861200
O -25.809600 -15.674500 -18.683300
H -25.747400 -13.299000 -18.060600
O -25.409200 -16.688800 -20.635700
H -25.243100 -17.550700 -22.402200
N -25.155400 -14.338900 -20.543200
H -25.117200 -15.892500 -22.472500
C -25.044800 -15.593800 -19.836900
H -25.028500 -12.084700 -17.156800
C -24.951600 -12.726300 -17.922900
C -24.840400 -16.730000 -21.948800
H -24.780100 -12.213100 -18.769400
H -24.416400 -12.255100 -21.682000
C -23.989100 -13.797900 -20.699200
H -23.856000 -16.609300 -21.956000
C -23.760900 -13.588800 -17.636000
N -23.740200 -12.664200 -21.343400
C -23.559300 -15.690300 -19.379200
N -23.182400 -13.444500 -16.494300
C -23.026300 -14.547100 -18.495400
C -22.999100 -17.019800 -19.258700
H -22.901600 -12.363100 -21.584400
C -22.849500 -14.537400 -20.007600
N -22.623000 -18.100100 -19.176900
H -22.588300 -13.041400 -14.237000
N -22.041800 -14.268400 -16.458200
C -21.828000 -14.923600 -17.634500
C -21.751700 -13.589100 -14.153800
C -21.487300 -14.564800 -20.624500
H -21.426400 -13.115500 -12.166700
O -21.377100 -15.594300 -21.463900
C -21.286600 -14.298400 -15.247100
C -21.037600 -13.600100 -12.971600
O -20.907800 -15.647300 -17.950900
H -20.781700 -13.157400 -19.848300
N -20.565600 -13.722400 -20.446600
H -20.205300 -16.575300 -22.719300
C -20.118200 -15.038900 -15.161000
C -20.104400 -15.750300 -22.131000
H -19.877900 -14.991100 -22.717800
C -19.868700 -14.329200 -12.874000
H -19.817100 -15.527300 -15.945800
H -19.435200 -14.320900 -12.074900
C -19.428300 -15.047900 -13.957300
H -19.409200 -15.798700 -21.485400
H -18.614500 -15.554000 -13.968700
