6
Fragment
H -8.554500 -31.406600 -15.959600
N -8.217700 -34.491200 -15.731000
C -8.056300 -33.371400 -15.729000
C -7.872600 -31.922900 -15.708400
H -7.519100 -31.706300 -14.816800
H -7.074800 -31.776300 -16.222100
6
Fragment
H -12.715500 -33.863700 -14.665400
H -12.271200 -33.933700 -16.070800
C -11.917700 -33.717100 -15.179200
C -11.734000 -32.268600 -15.158600
N -11.572600 -31.148800 -15.156500
H -11.235800 -34.233400 -14.927900
12
Fragment
H -8.554500 -31.406600 -15.959600
N -8.217700 -34.491200 -15.731000
C -8.056300 -33.371400 -15.729000
C -7.872600 -31.922900 -15.708400
H -7.519100 -31.706300 -14.816800
H -7.074800 -31.776300 -16.222100
H -12.715500 -33.863700 -14.665400
H -12.271200 -33.933700 -16.070800
C -11.917700 -33.717100 -15.179200
C -11.734000 -32.268600 -15.158600
N -11.572600 -31.148800 -15.156500
H -11.235800 -34.233400 -14.927900
