49
Fragment
H -26.069300 -20.550200 -29.073800
H -25.274600 -20.305500 -21.557100
C -25.255500 -21.056300 -29.085300
H -25.248700 -21.783300 -30.967700
H -24.866700 -20.576900 -27.096700
C -24.815100 -21.775100 -30.168500
H -24.805900 -21.113100 -20.324700
C -24.579400 -20.354000 -20.911500
C -24.565600 -21.065300 -27.881500
H -24.478500 -19.528900 -20.323200
N -24.118300 -22.381800 -22.595900
H -23.902100 -22.946900 -23.194200
O -23.776100 -20.457000 -25.091600
C -23.646300 -22.504200 -30.070900
C -23.397300 -21.805800 -27.795400
O -23.306800 -20.509900 -21.578700
H -23.257500 -22.988700 -30.875800
C -23.196600 -21.539400 -22.418000
C -22.932100 -22.515100 -28.888700
C -22.855800 -21.180600 -25.408000
N -22.642000 -21.835800 -26.584400
H -22.095600 -23.062800 -28.805500
N -22.060900 -18.004100 -23.865600
C -21.834400 -21.566900 -23.034900
H -21.782300 -23.741100 -21.458100
C -21.684700 -19.084400 -23.783900
C -21.657500 -21.557200 -24.547200
N -21.501400 -22.659800 -26.548200
C -21.124600 -20.413900 -23.663300
N -20.943700 -23.440000 -21.699200
C -20.923000 -22.515400 -25.406600
H -20.827900 -19.495000 -21.086500
C -20.694700 -22.306400 -22.343400
H -20.267400 -23.849100 -21.360600
H -19.903700 -23.891100 -24.273100
C -19.843400 -19.374300 -21.093700
C -19.732200 -23.378000 -25.119600
H -19.655400 -24.019600 -25.885800
C -19.639000 -20.510400 -23.205700
H -19.566600 -20.211700 -20.570000
N -19.528400 -21.765300 -22.499300
H -19.440700 -18.553500 -20.640300
O -19.274700 -19.415500 -22.406800
H -18.936400 -22.805200 -24.981900
O -18.874200 -20.429700 -24.359200
C -17.441000 -20.474000 -24.181300
H -17.216300 -21.261200 -23.789600
H -17.074700 -19.577800 -23.742300
H -16.983800 -20.532500 -25.080900
49
Fragment
H -28.163200 -20.467900 -32.309200
H -28.072300 -21.422600 -33.647800
H -27.930700 -19.739200 -33.600400
C -27.706000 -20.526400 -33.208700
O -26.272800 -20.570700 -33.030800
H -26.210600 -18.195200 -32.408200
O -25.872400 -21.584900 -34.983200
H -25.706300 -22.446900 -36.749700
N -25.618600 -19.235100 -34.890700
H -25.580400 -20.788700 -36.820000
C -25.508000 -20.489900 -34.184400
H -25.491700 -16.980800 -31.504300
C -25.414800 -17.622400 -32.270400
C -25.303600 -21.626100 -36.296300
H -25.243300 -17.109300 -33.116900
H -24.879600 -17.151200 -36.029500
C -24.452300 -18.694000 -35.046700
H -24.319200 -21.505400 -36.303500
C -24.224100 -18.485000 -31.983500
N -24.203400 -17.560400 -35.690900
C -24.022500 -20.586500 -33.726700
N -23.645600 -18.340600 -30.841800
C -23.489500 -19.443200 -32.842900
C -23.462300 -21.915900 -33.606200
H -23.364800 -17.259300 -35.931900
C -23.312600 -19.433500 -34.355100
N -23.086100 -22.996300 -33.524400
H -23.051500 -17.937600 -28.584500
N -22.505000 -19.164600 -30.805700
C -22.291200 -19.819800 -31.982000
C -22.214900 -18.485300 -28.501300
C -21.950400 -19.460900 -34.972100
H -21.889500 -18.011700 -26.514200
O -21.840200 -20.490500 -35.811400
C -21.749700 -19.194600 -29.594600
C -21.500700 -18.496200 -27.319100
O -21.370900 -20.543400 -32.298400
H -21.244900 -18.053500 -34.195900
N -21.028700 -18.618600 -34.794100
H -20.668500 -21.471400 -37.066800
C -20.581400 -19.935100 -29.508500
C -20.567600 -20.646400 -36.478500
H -20.341100 -19.887300 -37.065400
C -20.331900 -19.225300 -27.221500
H -20.280300 -20.423500 -30.293300
H -19.898400 -19.217100 -26.422400
C -19.891500 -19.944100 -28.304800
H -19.872400 -20.694900 -35.832900
H -19.077700 -20.450200 -28.316200
98
Fragment
H -26.069300 -20.550200 -29.073800
H -25.274600 -20.305500 -21.557100
C -25.255500 -21.056300 -29.085300
H -25.248700 -21.783300 -30.967700
H -24.866700 -20.576900 -27.096700
C -24.815100 -21.775100 -30.168500
H -24.805900 -21.113100 -20.324700
C -24.579400 -20.354000 -20.911500
C -24.565600 -21.065300 -27.881500
H -24.478500 -19.528900 -20.323200
N -24.118300 -22.381800 -22.595900
H -23.902100 -22.946900 -23.194200
O -23.776100 -20.457000 -25.091600
C -23.646300 -22.504200 -30.070900
C -23.397300 -21.805800 -27.795400
O -23.306800 -20.509900 -21.578700
H -23.257500 -22.988700 -30.875800
C -23.196600 -21.539400 -22.418000
C -22.932100 -22.515100 -28.888700
C -22.855800 -21.180600 -25.408000
N -22.642000 -21.835800 -26.584400
H -22.095600 -23.062800 -28.805500
N -22.060900 -18.004100 -23.865600
C -21.834400 -21.566900 -23.034900
H -21.782300 -23.741100 -21.458100
C -21.684700 -19.084400 -23.783900
C -21.657500 -21.557200 -24.547200
N -21.501400 -22.659800 -26.548200
C -21.124600 -20.413900 -23.663300
N -20.943700 -23.440000 -21.699200
C -20.923000 -22.515400 -25.406600
H -20.827900 -19.495000 -21.086500
C -20.694700 -22.306400 -22.343400
H -20.267400 -23.849100 -21.360600
H -19.903700 -23.891100 -24.273100
C -19.843400 -19.374300 -21.093700
C -19.732200 -23.378000 -25.119600
H -19.655400 -24.019600 -25.885800
C -19.639000 -20.510400 -23.205700
H -19.566600 -20.211700 -20.570000
N -19.528400 -21.765300 -22.499300
H -19.440700 -18.553500 -20.640300
O -19.274700 -19.415500 -22.406800
H -18.936400 -22.805200 -24.981900
O -18.874200 -20.429700 -24.359200
C -17.441000 -20.474000 -24.181300
H -17.216300 -21.261200 -23.789600
H -17.074700 -19.577800 -23.742300
H -16.983800 -20.532500 -25.080900
H -28.163200 -20.467900 -32.309200
H -28.072300 -21.422600 -33.647800
H -27.930700 -19.739200 -33.600400
C -27.706000 -20.526400 -33.208700
O -26.272800 -20.570700 -33.030800
H -26.210600 -18.195200 -32.408200
O -25.872400 -21.584900 -34.983200
H -25.706300 -22.446900 -36.749700
N -25.618600 -19.235100 -34.890700
H -25.580400 -20.788700 -36.820000
C -25.508000 -20.489900 -34.184400
H -25.491700 -16.980800 -31.504300
C -25.414800 -17.622400 -32.270400
C -25.303600 -21.626100 -36.296300
H -25.243300 -17.109300 -33.116900
H -24.879600 -17.151200 -36.029500
C -24.452300 -18.694000 -35.046700
H -24.319200 -21.505400 -36.303500
C -24.224100 -18.485000 -31.983500
N -24.203400 -17.560400 -35.690900
C -24.022500 -20.586500 -33.726700
N -23.645600 -18.340600 -30.841800
C -23.489500 -19.443200 -32.842900
C -23.462300 -21.915900 -33.606200
H -23.364800 -17.259300 -35.931900
C -23.312600 -19.433500 -34.355100
N -23.086100 -22.996300 -33.524400
H -23.051500 -17.937600 -28.584500
N -22.505000 -19.164600 -30.805700
C -22.291200 -19.819800 -31.982000
C -22.214900 -18.485300 -28.501300
C -21.950400 -19.460900 -34.972100
H -21.889500 -18.011700 -26.514200
O -21.840200 -20.490500 -35.811400
C -21.749700 -19.194600 -29.594600
C -21.500700 -18.496200 -27.319100
O -21.370900 -20.543400 -32.298400
H -21.244900 -18.053500 -34.195900
N -21.028700 -18.618600 -34.794100
H -20.668500 -21.471400 -37.066800
C -20.581400 -19.935100 -29.508500
C -20.567600 -20.646400 -36.478500
H -20.341100 -19.887300 -37.065400
C -20.331900 -19.225300 -27.221500
H -20.280300 -20.423500 -30.293300
H -19.898400 -19.217100 -26.422400
C -19.891500 -19.944100 -28.304800
H -19.872400 -20.694900 -35.832900
H -19.077700 -20.450200 -28.316200
