49
Fragment
H -26.069300 -20.550200 -29.073800
H -25.274600 -20.305500 -21.557100
C -25.255500 -21.056300 -29.085300
H -25.248700 -21.783300 -30.967700
H -24.866700 -20.576900 -27.096700
C -24.815100 -21.775100 -30.168500
H -24.805900 -21.113100 -20.324700
C -24.579400 -20.354000 -20.911500
C -24.565600 -21.065300 -27.881500
H -24.478500 -19.528900 -20.323200
N -24.118300 -22.381800 -22.595900
H -23.902100 -22.946900 -23.194200
O -23.776100 -20.457000 -25.091600
C -23.646300 -22.504200 -30.070900
C -23.397300 -21.805800 -27.795400
O -23.306800 -20.509900 -21.578700
H -23.257500 -22.988700 -30.875800
C -23.196600 -21.539400 -22.418000
C -22.932100 -22.515100 -28.888700
C -22.855800 -21.180600 -25.408000
N -22.642000 -21.835800 -26.584400
H -22.095600 -23.062800 -28.805500
N -22.060900 -18.004100 -23.865600
C -21.834400 -21.566900 -23.034900
H -21.782300 -23.741100 -21.458100
C -21.684700 -19.084400 -23.783900
C -21.657500 -21.557200 -24.547200
N -21.501400 -22.659800 -26.548200
C -21.124600 -20.413900 -23.663300
N -20.943700 -23.440000 -21.699200
C -20.923000 -22.515400 -25.406600
H -20.827900 -19.495000 -21.086500
C -20.694700 -22.306400 -22.343400
H -20.267400 -23.849100 -21.360600
H -19.903700 -23.891100 -24.273100
C -19.843400 -19.374300 -21.093700
C -19.732200 -23.378000 -25.119600
H -19.655400 -24.019600 -25.885800
C -19.639000 -20.510400 -23.205700
H -19.566600 -20.211700 -20.570000
N -19.528400 -21.765300 -22.499300
H -19.440700 -18.553500 -20.640300
O -19.274700 -19.415500 -22.406800
H -18.936400 -22.805200 -24.981900
O -18.874200 -20.429700 -24.359200
C -17.441000 -20.474000 -24.181300
H -17.216300 -21.261200 -23.789600
H -17.074700 -19.577800 -23.742300
H -16.983800 -20.532500 -25.080900
14
Fragment
H -20.247300 -19.178400 -16.509700
H -19.769500 -18.107800 -17.561400
C -19.527600 -18.631000 -16.920000
H -19.247400 -19.264100 -14.630200
H -18.955500 -20.195400 -18.196900
O -18.936500 -17.874300 -15.901300
C -18.563300 -19.604800 -17.458000
C -18.493600 -18.740900 -14.866900
H -18.143000 -18.241700 -14.138000
O -18.108400 -20.480000 -16.442200
H -17.718000 -19.022200 -17.815300
C -17.543000 -19.727100 -15.387700
H -17.276800 -20.351700 -14.707600
H -16.774800 -19.201800 -15.828200
63
Fragment
H -26.069300 -20.550200 -29.073800
H -25.274600 -20.305500 -21.557100
C -25.255500 -21.056300 -29.085300
H -25.248700 -21.783300 -30.967700
H -24.866700 -20.576900 -27.096700
C -24.815100 -21.775100 -30.168500
H -24.805900 -21.113100 -20.324700
C -24.579400 -20.354000 -20.911500
C -24.565600 -21.065300 -27.881500
H -24.478500 -19.528900 -20.323200
N -24.118300 -22.381800 -22.595900
H -23.902100 -22.946900 -23.194200
O -23.776100 -20.457000 -25.091600
C -23.646300 -22.504200 -30.070900
C -23.397300 -21.805800 -27.795400
O -23.306800 -20.509900 -21.578700
H -23.257500 -22.988700 -30.875800
C -23.196600 -21.539400 -22.418000
C -22.932100 -22.515100 -28.888700
C -22.855800 -21.180600 -25.408000
N -22.642000 -21.835800 -26.584400
H -22.095600 -23.062800 -28.805500
N -22.060900 -18.004100 -23.865600
C -21.834400 -21.566900 -23.034900
H -21.782300 -23.741100 -21.458100
C -21.684700 -19.084400 -23.783900
C -21.657500 -21.557200 -24.547200
N -21.501400 -22.659800 -26.548200
C -21.124600 -20.413900 -23.663300
N -20.943700 -23.440000 -21.699200
C -20.923000 -22.515400 -25.406600
H -20.827900 -19.495000 -21.086500
C -20.694700 -22.306400 -22.343400
H -20.267400 -23.849100 -21.360600
H -19.903700 -23.891100 -24.273100
C -19.843400 -19.374300 -21.093700
C -19.732200 -23.378000 -25.119600
H -19.655400 -24.019600 -25.885800
C -19.639000 -20.510400 -23.205700
H -19.566600 -20.211700 -20.570000
N -19.528400 -21.765300 -22.499300
H -19.440700 -18.553500 -20.640300
O -19.274700 -19.415500 -22.406800
H -18.936400 -22.805200 -24.981900
O -18.874200 -20.429700 -24.359200
C -17.441000 -20.474000 -24.181300
H -17.216300 -21.261200 -23.789600
H -17.074700 -19.577800 -23.742300
H -16.983800 -20.532500 -25.080900
H -20.247300 -19.178400 -16.509700
H -19.769500 -18.107800 -17.561400
C -19.527600 -18.631000 -16.920000
H -19.247400 -19.264100 -14.630200
H -18.955500 -20.195400 -18.196900
O -18.936500 -17.874300 -15.901300
C -18.563300 -19.604800 -17.458000
C -18.493600 -18.740900 -14.866900
H -18.143000 -18.241700 -14.138000
O -18.108400 -20.480000 -16.442200
H -17.718000 -19.022200 -17.815300
C -17.543000 -19.727100 -15.387700
H -17.276800 -20.351700 -14.707600
H -16.774800 -19.201800 -15.828200
