6
Fragment
H -8.554500 -31.406600 -15.959600
N -8.217700 -34.491200 -15.731000
C -8.056300 -33.371400 -15.729000
C -7.872600 -31.922900 -15.708400
H -7.519100 -31.706300 -14.816800
H -7.074800 -31.776300 -16.222100
33
Fragment
H -8.755300 -22.866800 -17.424700
C -7.819800 -22.739900 -17.316600
H -7.671400 -20.803500 -17.814900
H -7.534000 -24.639100 -16.734900
C -7.181100 -21.539800 -17.555400
C -7.096800 -23.833900 -16.857400
N -6.807900 -28.978100 -14.252500
O -6.262600 -26.679600 -16.679300
C -5.827400 -21.428600 -17.342300
C -5.781900 -28.556200 -14.527400
C -5.739800 -23.711100 -16.645300
H -5.341000 -20.597800 -17.435000
C -5.300700 -26.131500 -16.194300
C -5.088600 -22.509700 -16.890300
N -4.988400 -24.809300 -16.147000
N -4.567300 -29.008700 -18.357500
C -4.440700 -28.103100 -14.749800
C -4.250800 -28.627100 -17.322800
H -4.151700 -22.402900 -16.711200
C -4.127200 -26.797100 -15.504500
N -3.761000 -24.555700 -15.505500
C -3.700700 -28.165700 -16.074900
O -3.648700 -28.583200 -12.529000
C -3.424200 -28.491300 -13.706900
C -3.249700 -25.663900 -15.109200
C -2.322700 -28.667400 -15.725900
N -2.239600 -28.720300 -14.344200
H -1.963500 -26.126900 -13.547300
C -1.934400 -25.676200 -14.432700
H -1.619900 -24.759400 -14.337000
H -1.495300 -28.872800 -13.979700
O -1.480100 -28.994300 -16.518700
H -1.216200 -26.199100 -14.887800
39
Fragment
H -8.554500 -31.406600 -15.959600
N -8.217700 -34.491200 -15.731000
C -8.056300 -33.371400 -15.729000
C -7.872600 -31.922900 -15.708400
H -7.519100 -31.706300 -14.816800
H -7.074800 -31.776300 -16.222100
H -8.755300 -22.866800 -17.424700
C -7.819800 -22.739900 -17.316600
H -7.671400 -20.803500 -17.814900
H -7.534000 -24.639100 -16.734900
C -7.181100 -21.539800 -17.555400
C -7.096800 -23.833900 -16.857400
N -6.807900 -28.978100 -14.252500
O -6.262600 -26.679600 -16.679300
C -5.827400 -21.428600 -17.342300
C -5.781900 -28.556200 -14.527400
C -5.739800 -23.711100 -16.645300
H -5.341000 -20.597800 -17.435000
C -5.300700 -26.131500 -16.194300
C -5.088600 -22.509700 -16.890300
N -4.988400 -24.809300 -16.147000
N -4.567300 -29.008700 -18.357500
C -4.440700 -28.103100 -14.749800
C -4.250800 -28.627100 -17.322800
H -4.151700 -22.402900 -16.711200
C -4.127200 -26.797100 -15.504500
N -3.761000 -24.555700 -15.505500
C -3.700700 -28.165700 -16.074900
O -3.648700 -28.583200 -12.529000
C -3.424200 -28.491300 -13.706900
C -3.249700 -25.663900 -15.109200
C -2.322700 -28.667400 -15.725900
N -2.239600 -28.720300 -14.344200
H -1.963500 -26.126900 -13.547300
C -1.934400 -25.676200 -14.432700
H -1.619900 -24.759400 -14.337000
H -1.495300 -28.872800 -13.979700
O -1.480100 -28.994300 -16.518700
H -1.216200 -26.199100 -14.887800
