18
Fragment
O -13.394800 -21.360400 -29.096400
O -13.227100 -20.261400 -27.240900
O -12.871000 -19.429400 -24.277300
N -12.789100 -21.090800 -28.064300
O -12.235900 -18.938800 -22.260900
H -12.109000 -20.520900 -25.674300
N -12.047500 -19.488900 -23.342500
N -11.593800 -21.749900 -27.907500
N -11.316000 -20.901700 -25.673400
C -10.923600 -21.570100 -26.784000
N -10.843500 -20.175300 -23.422400
C -10.547500 -20.788100 -24.556700
N -9.707700 -22.158800 -26.745600
H -9.438300 -22.591200 -27.463200
N -9.332300 -21.371200 -24.595000
C -8.861700 -22.127500 -25.658700
H -8.803400 -21.265300 -23.899700
O -7.799700 -22.697200 -25.637700
14
Fragment
H -9.048700 -20.742400 -21.072200
H -8.981000 -22.326000 -20.830800
C -8.441800 -21.524600 -21.046000
H -7.845000 -21.240200 -19.106400
O -7.813500 -21.694100 -22.337000
C -7.404900 -21.318000 -19.989800
H -7.401000 -23.636200 -22.119400
H -6.917600 -20.475100 -20.165500
C -6.903000 -22.801300 -22.308700
O -6.474900 -22.411100 -19.964500
H -6.468100 -22.896900 -23.193200
C -5.852900 -22.590100 -21.251300
H -5.313100 -21.790900 -21.474000
H -5.247900 -23.373100 -21.222000
32
Fragment
O -13.394800 -21.360400 -29.096400
O -13.227100 -20.261400 -27.240900
O -12.871000 -19.429400 -24.277300
N -12.789100 -21.090800 -28.064300
O -12.235900 -18.938800 -22.260900
H -12.109000 -20.520900 -25.674300
N -12.047500 -19.488900 -23.342500
N -11.593800 -21.749900 -27.907500
N -11.316000 -20.901700 -25.673400
C -10.923600 -21.570100 -26.784000
N -10.843500 -20.175300 -23.422400
C -10.547500 -20.788100 -24.556700
N -9.707700 -22.158800 -26.745600
H -9.438300 -22.591200 -27.463200
N -9.332300 -21.371200 -24.595000
C -8.861700 -22.127500 -25.658700
H -8.803400 -21.265300 -23.899700
O -7.799700 -22.697200 -25.637700
H -9.048700 -20.742400 -21.072200
H -8.981000 -22.326000 -20.830800
C -8.441800 -21.524600 -21.046000
H -7.845000 -21.240200 -19.106400
O -7.813500 -21.694100 -22.337000
C -7.404900 -21.318000 -19.989800
H -7.401000 -23.636200 -22.119400
H -6.917600 -20.475100 -20.165500
C -6.903000 -22.801300 -22.308700
O -6.474900 -22.411100 -19.964500
H -6.468100 -22.896900 -23.193200
C -5.852900 -22.590100 -21.251300
H -5.313100 -21.790900 -21.474000
H -5.247900 -23.373100 -21.222000
