18
Fragment
O -13.394800 -21.360400 -29.096400
O -13.227100 -20.261400 -27.240900
O -12.871000 -19.429400 -24.277300
N -12.789100 -21.090800 -28.064300
O -12.235900 -18.938800 -22.260900
H -12.109000 -20.520900 -25.674300
N -12.047500 -19.488900 -23.342500
N -11.593800 -21.749900 -27.907500
N -11.316000 -20.901700 -25.673400
C -10.923600 -21.570100 -26.784000
N -10.843500 -20.175300 -23.422400
C -10.547500 -20.788100 -24.556700
N -9.707700 -22.158800 -26.745600
H -9.438300 -22.591200 -27.463200
N -9.332300 -21.371200 -24.595000
C -8.861700 -22.127500 -25.658700
H -8.803400 -21.265300 -23.899700
O -7.799700 -22.697200 -25.637700
18
Fragment
O -7.137000 -21.360400 -29.096400
O -6.969300 -20.261400 -27.240900
O -6.613200 -19.429400 -24.277300
N -6.531300 -21.090800 -28.064300
O -5.978100 -18.938800 -22.260900
H -5.851200 -20.520900 -25.674300
N -5.789700 -19.488900 -23.342500
N -5.336000 -21.749900 -27.907500
N -5.058200 -20.901700 -25.673400
C -4.665800 -21.570100 -26.784000
N -4.585700 -20.175300 -23.422400
C -4.289700 -20.788100 -24.556700
N -3.449900 -22.158800 -26.745600
H -3.180500 -22.591200 -27.463200
N -3.074500 -21.371200 -24.595000
C -2.603900 -22.127500 -25.658700
H -2.545600 -21.265300 -23.899700
O -1.541900 -22.697200 -25.637700
36
Fragment
O -13.394800 -21.360400 -29.096400
O -13.227100 -20.261400 -27.240900
O -12.871000 -19.429400 -24.277300
N -12.789100 -21.090800 -28.064300
O -12.235900 -18.938800 -22.260900
H -12.109000 -20.520900 -25.674300
N -12.047500 -19.488900 -23.342500
N -11.593800 -21.749900 -27.907500
N -11.316000 -20.901700 -25.673400
C -10.923600 -21.570100 -26.784000
N -10.843500 -20.175300 -23.422400
C -10.547500 -20.788100 -24.556700
N -9.707700 -22.158800 -26.745600
H -9.438300 -22.591200 -27.463200
N -9.332300 -21.371200 -24.595000
C -8.861700 -22.127500 -25.658700
H -8.803400 -21.265300 -23.899700
O -7.799700 -22.697200 -25.637700
O -7.137000 -21.360400 -29.096400
O -6.969300 -20.261400 -27.240900
O -6.613200 -19.429400 -24.277300
N -6.531300 -21.090800 -28.064300
O -5.978100 -18.938800 -22.260900
H -5.851200 -20.520900 -25.674300
N -5.789700 -19.488900 -23.342500
N -5.336000 -21.749900 -27.907500
N -5.058200 -20.901700 -25.673400
C -4.665800 -21.570100 -26.784000
N -4.585700 -20.175300 -23.422400
C -4.289700 -20.788100 -24.556700
N -3.449900 -22.158800 -26.745600
H -3.180500 -22.591200 -27.463200
N -3.074500 -21.371200 -24.595000
C -2.603900 -22.127500 -25.658700
H -2.545600 -21.265300 -23.899700
O -1.541900 -22.697200 -25.637700
