18
Fragment
O -13.394800 -21.360400 -29.096400
O -13.227100 -20.261400 -27.240900
O -12.871000 -19.429400 -24.277300
N -12.789100 -21.090800 -28.064300
O -12.235900 -18.938800 -22.260900
H -12.109000 -20.520900 -25.674300
N -12.047500 -19.488900 -23.342500
N -11.593800 -21.749900 -27.907500
N -11.316000 -20.901700 -25.673400
C -10.923600 -21.570100 -26.784000
N -10.843500 -20.175300 -23.422400
C -10.547500 -20.788100 -24.556700
N -9.707700 -22.158800 -26.745600
H -9.438300 -22.591200 -27.463200
N -9.332300 -21.371200 -24.595000
C -8.861700 -22.127500 -25.658700
H -8.803400 -21.265300 -23.899700
O -7.799700 -22.697200 -25.637700
14
Fragment
H -12.150900 -25.502500 -24.777200
H -12.043700 -24.473300 -26.001600
C -11.522500 -24.953800 -25.311300
H -10.982500 -26.497500 -26.550400
O -10.869200 -24.010200 -24.460100
H -10.719200 -25.259400 -22.916800
C -10.515000 -25.845000 -25.971000
C -10.109500 -24.714800 -23.475100
H -9.918900 -25.299600 -26.543100
O -9.730300 -26.547500 -24.998200
H -9.652200 -24.064600 -22.884800
C -9.089500 -25.609100 -24.119900
H -8.587800 -26.097900 -23.420500
H -8.445200 -25.060000 -24.634000
32
Fragment
O -13.394800 -21.360400 -29.096400
O -13.227100 -20.261400 -27.240900
O -12.871000 -19.429400 -24.277300
N -12.789100 -21.090800 -28.064300
O -12.235900 -18.938800 -22.260900
H -12.109000 -20.520900 -25.674300
N -12.047500 -19.488900 -23.342500
N -11.593800 -21.749900 -27.907500
N -11.316000 -20.901700 -25.673400
C -10.923600 -21.570100 -26.784000
N -10.843500 -20.175300 -23.422400
C -10.547500 -20.788100 -24.556700
N -9.707700 -22.158800 -26.745600
H -9.438300 -22.591200 -27.463200
N -9.332300 -21.371200 -24.595000
C -8.861700 -22.127500 -25.658700
H -8.803400 -21.265300 -23.899700
O -7.799700 -22.697200 -25.637700
H -12.150900 -25.502500 -24.777200
H -12.043700 -24.473300 -26.001600
C -11.522500 -24.953800 -25.311300
H -10.982500 -26.497500 -26.550400
O -10.869200 -24.010200 -24.460100
H -10.719200 -25.259400 -22.916800
C -10.515000 -25.845000 -25.971000
C -10.109500 -24.714800 -23.475100
H -9.918900 -25.299600 -26.543100
O -9.730300 -26.547500 -24.998200
H -9.652200 -24.064600 -22.884800
C -9.089500 -25.609100 -24.119900
H -8.587800 -26.097900 -23.420500
H -8.445200 -25.060000 -24.634000
