31
Fragment
H -11.098000 -18.548500 -12.489200
H -11.005700 -16.731300 -13.991400
C -10.308300 -18.382100 -12.990500
C -10.244300 -17.288300 -13.879700
H -9.261800 -19.940000 -12.263400
C -9.218300 -19.201000 -12.858700
C -9.101100 -17.017200 -14.584400
H -9.080400 -16.267600 -15.167600
C -8.027400 -18.970000 -13.590800
C -7.944500 -17.835900 -14.460400
H -7.289400 -15.800700 -16.058300
H -6.985100 -13.721400 -16.755300
H -6.979100 -20.594200 -12.887300
C -6.928200 -19.849200 -13.474500
C -6.711500 -17.584900 -15.152300
H -6.541000 -11.782400 -17.914500
C -6.518900 -16.334600 -15.904500
C -6.140700 -13.606100 -17.175200
C -5.863000 -12.446700 -17.874600
C -5.790200 -19.633600 -14.203000
C -5.682000 -18.505700 -15.033600
C -5.357300 -15.880400 -16.392200
C -5.168100 -14.608600 -17.090600
H -5.069500 -20.249900 -14.147000
H -4.881700 -18.370400 -15.527300
N -4.702700 -12.192300 -18.501900
H -4.591700 -16.430300 -16.274900
C -3.950400 -14.342100 -17.722200
C -3.774100 -13.150900 -18.409200
H -3.244400 -14.976400 -17.680900
H -2.940600 -13.006200 -18.841800
20
Fragment
N -12.957600 -21.937900 -14.538200
N -12.201000 -18.260200 -16.715000
C -12.199000 -21.270200 -15.086800
C -11.735200 -19.229400 -16.315900
C -11.232600 -20.464700 -15.784700
H -10.152300 -22.650200 -14.813900
C -9.935800 -20.903500 -15.931200
C -9.531100 -22.162400 -15.341800
H -9.181400 -19.298600 -17.039500
C -8.951400 -20.147000 -16.679200
C -8.297800 -22.653500 -15.525800
H -8.059000 -23.485600 -15.134600
C -7.709500 -20.641800 -16.866200
C -7.327200 -21.927400 -16.315400
H -7.076500 -20.140100 -17.366300
C -6.079000 -22.462300 -16.526200
C -5.685500 -23.741800 -15.998600
N -5.330700 -24.757900 -15.613500
C -5.049500 -21.803700 -17.272900
N -4.166300 -21.334700 -17.840000
51
Fragment
H -11.098000 -18.548500 -12.489200
H -11.005700 -16.731300 -13.991400
C -10.308300 -18.382100 -12.990500
C -10.244300 -17.288300 -13.879700
H -9.261800 -19.940000 -12.263400
C -9.218300 -19.201000 -12.858700
C -9.101100 -17.017200 -14.584400
H -9.080400 -16.267600 -15.167600
C -8.027400 -18.970000 -13.590800
C -7.944500 -17.835900 -14.460400
H -7.289400 -15.800700 -16.058300
H -6.985100 -13.721400 -16.755300
H -6.979100 -20.594200 -12.887300
C -6.928200 -19.849200 -13.474500
C -6.711500 -17.584900 -15.152300
H -6.541000 -11.782400 -17.914500
C -6.518900 -16.334600 -15.904500
C -6.140700 -13.606100 -17.175200
C -5.863000 -12.446700 -17.874600
C -5.790200 -19.633600 -14.203000
C -5.682000 -18.505700 -15.033600
C -5.357300 -15.880400 -16.392200
C -5.168100 -14.608600 -17.090600
H -5.069500 -20.249900 -14.147000
H -4.881700 -18.370400 -15.527300
N -4.702700 -12.192300 -18.501900
H -4.591700 -16.430300 -16.274900
C -3.950400 -14.342100 -17.722200
C -3.774100 -13.150900 -18.409200
H -3.244400 -14.976400 -17.680900
H -2.940600 -13.006200 -18.841800
N -12.957600 -21.937900 -14.538200
N -12.201000 -18.260200 -16.715000
C -12.199000 -21.270200 -15.086800
C -11.735200 -19.229400 -16.315900
C -11.232600 -20.464700 -15.784700
H -10.152300 -22.650200 -14.813900
C -9.935800 -20.903500 -15.931200
C -9.531100 -22.162400 -15.341800
H -9.181400 -19.298600 -17.039500
C -8.951400 -20.147000 -16.679200
C -8.297800 -22.653500 -15.525800
H -8.059000 -23.485600 -15.134600
C -7.709500 -20.641800 -16.866200
C -7.327200 -21.927400 -16.315400
H -7.076500 -20.140100 -17.366300
C -6.079000 -22.462300 -16.526200
C -5.685500 -23.741800 -15.998600
N -5.330700 -24.757900 -15.613500
C -5.049500 -21.803700 -17.272900
N -4.166300 -21.334700 -17.840000
