31
Fragment
H -11.098000 -18.548500 -12.489200
H -11.005700 -16.731300 -13.991400
C -10.308300 -18.382100 -12.990500
C -10.244300 -17.288300 -13.879700
H -9.261800 -19.940000 -12.263400
C -9.218300 -19.201000 -12.858700
C -9.101100 -17.017200 -14.584400
H -9.080400 -16.267600 -15.167600
C -8.027400 -18.970000 -13.590800
C -7.944500 -17.835900 -14.460400
H -7.289400 -15.800700 -16.058300
H -6.985100 -13.721400 -16.755300
H -6.979100 -20.594200 -12.887300
C -6.928200 -19.849200 -13.474500
C -6.711500 -17.584900 -15.152300
H -6.541000 -11.782400 -17.914500
C -6.518900 -16.334600 -15.904500
C -6.140700 -13.606100 -17.175200
C -5.863000 -12.446700 -17.874600
C -5.790200 -19.633600 -14.203000
C -5.682000 -18.505700 -15.033600
C -5.357300 -15.880400 -16.392200
C -5.168100 -14.608600 -17.090600
H -5.069500 -20.249900 -14.147000
H -4.881700 -18.370400 -15.527300
N -4.702700 -12.192300 -18.501900
H -4.591700 -16.430300 -16.274900
C -3.950400 -14.342100 -17.722200
C -3.774100 -13.150900 -18.409200
H -3.244400 -14.976400 -17.680900
H -2.940600 -13.006200 -18.841800
20
Fragment
N -16.087300 -20.066500 -6.599700
C -15.204100 -19.597500 -7.166800
N -14.922900 -16.643300 -8.826300
C -14.568100 -17.659400 -8.441100
C -14.174600 -18.938900 -7.913600
H -13.177100 -21.261100 -7.073500
C -12.926400 -19.473800 -8.124400
C -12.544100 -20.759400 -7.573500
H -12.194600 -17.915600 -9.305200
C -11.955800 -18.747700 -8.913900
C -11.302200 -21.254200 -7.760600
H -11.072200 -22.102600 -7.400200
C -10.722500 -19.238800 -9.097900
C -10.317800 -20.497700 -8.508600
H -10.101300 -18.751000 -9.625800
C -9.021000 -20.936500 -8.655100
C -8.518400 -22.171800 -8.123900
C -8.054600 -20.131000 -9.353000
N -8.052600 -23.141000 -7.724800
N -7.296000 -19.463300 -9.901500
51
Fragment
H -11.098000 -18.548500 -12.489200
H -11.005700 -16.731300 -13.991400
C -10.308300 -18.382100 -12.990500
C -10.244300 -17.288300 -13.879700
H -9.261800 -19.940000 -12.263400
C -9.218300 -19.201000 -12.858700
C -9.101100 -17.017200 -14.584400
H -9.080400 -16.267600 -15.167600
C -8.027400 -18.970000 -13.590800
C -7.944500 -17.835900 -14.460400
H -7.289400 -15.800700 -16.058300
H -6.985100 -13.721400 -16.755300
H -6.979100 -20.594200 -12.887300
C -6.928200 -19.849200 -13.474500
C -6.711500 -17.584900 -15.152300
H -6.541000 -11.782400 -17.914500
C -6.518900 -16.334600 -15.904500
C -6.140700 -13.606100 -17.175200
C -5.863000 -12.446700 -17.874600
C -5.790200 -19.633600 -14.203000
C -5.682000 -18.505700 -15.033600
C -5.357300 -15.880400 -16.392200
C -5.168100 -14.608600 -17.090600
H -5.069500 -20.249900 -14.147000
H -4.881700 -18.370400 -15.527300
N -4.702700 -12.192300 -18.501900
H -4.591700 -16.430300 -16.274900
C -3.950400 -14.342100 -17.722200
C -3.774100 -13.150900 -18.409200
H -3.244400 -14.976400 -17.680900
H -2.940600 -13.006200 -18.841800
N -16.087300 -20.066500 -6.599700
C -15.204100 -19.597500 -7.166800
N -14.922900 -16.643300 -8.826300
C -14.568100 -17.659400 -8.441100
C -14.174600 -18.938900 -7.913600
H -13.177100 -21.261100 -7.073500
C -12.926400 -19.473800 -8.124400
C -12.544100 -20.759400 -7.573500
H -12.194600 -17.915600 -9.305200
C -11.955800 -18.747700 -8.913900
C -11.302200 -21.254200 -7.760600
H -11.072200 -22.102600 -7.400200
C -10.722500 -19.238800 -9.097900
C -10.317800 -20.497700 -8.508600
H -10.101300 -18.751000 -9.625800
C -9.021000 -20.936500 -8.655100
C -8.518400 -22.171800 -8.123900
C -8.054600 -20.131000 -9.353000
N -8.052600 -23.141000 -7.724800
N -7.296000 -19.463300 -9.901500
