31
Fragment
H -11.098000 -18.548500 -12.489200
H -11.005700 -16.731300 -13.991400
C -10.308300 -18.382100 -12.990500
C -10.244300 -17.288300 -13.879700
H -9.261800 -19.940000 -12.263400
C -9.218300 -19.201000 -12.858700
C -9.101100 -17.017200 -14.584400
H -9.080400 -16.267600 -15.167600
C -8.027400 -18.970000 -13.590800
C -7.944500 -17.835900 -14.460400
H -7.289400 -15.800700 -16.058300
H -6.985100 -13.721400 -16.755300
H -6.979100 -20.594200 -12.887300
C -6.928200 -19.849200 -13.474500
C -6.711500 -17.584900 -15.152300
H -6.541000 -11.782400 -17.914500
C -6.518900 -16.334600 -15.904500
C -6.140700 -13.606100 -17.175200
C -5.863000 -12.446700 -17.874600
C -5.790200 -19.633600 -14.203000
C -5.682000 -18.505700 -15.033600
C -5.357300 -15.880400 -16.392200
C -5.168100 -14.608600 -17.090600
H -5.069500 -20.249900 -14.147000
H -4.881700 -18.370400 -15.527300
N -4.702700 -12.192300 -18.501900
H -4.591700 -16.430300 -16.274900
C -3.950400 -14.342100 -17.722200
C -3.774100 -13.150900 -18.409200
H -3.244400 -14.976400 -17.680900
H -2.940600 -13.006200 -18.841800
20
Fragment
N -7.298300 -26.702300 -10.442500
N -6.542400 -23.115800 -12.768500
C -6.539700 -26.087500 -11.046500
C -6.115800 -24.097700 -12.361100
C -5.604200 -25.321300 -11.817600
H -4.407500 -27.463500 -10.845000
C -4.308000 -25.739800 -12.011300
C -3.824900 -26.958100 -11.399700
H -3.691500 -24.166100 -13.241800
C -3.398400 -24.975100 -12.839300
C -2.569100 -27.388800 -11.600500
H -2.276100 -28.197800 -11.197900
C -2.142600 -25.405800 -13.040100
C -1.659500 -26.624100 -12.428500
H -1.560000 -24.900400 -13.594700
C -0.363400 -27.042700 -12.622200
C 0.148300 -28.266200 -12.078600
C 0.572100 -26.276400 -13.393200
N 0.574900 -29.248100 -11.671200
N 1.330800 -25.661700 -13.997300
51
Fragment
H -11.098000 -18.548500 -12.489200
H -11.005700 -16.731300 -13.991400
C -10.308300 -18.382100 -12.990500
C -10.244300 -17.288300 -13.879700
H -9.261800 -19.940000 -12.263400
C -9.218300 -19.201000 -12.858700
C -9.101100 -17.017200 -14.584400
H -9.080400 -16.267600 -15.167600
C -8.027400 -18.970000 -13.590800
C -7.944500 -17.835900 -14.460400
H -7.289400 -15.800700 -16.058300
H -6.985100 -13.721400 -16.755300
H -6.979100 -20.594200 -12.887300
C -6.928200 -19.849200 -13.474500
C -6.711500 -17.584900 -15.152300
H -6.541000 -11.782400 -17.914500
C -6.518900 -16.334600 -15.904500
C -6.140700 -13.606100 -17.175200
C -5.863000 -12.446700 -17.874600
C -5.790200 -19.633600 -14.203000
C -5.682000 -18.505700 -15.033600
C -5.357300 -15.880400 -16.392200
C -5.168100 -14.608600 -17.090600
H -5.069500 -20.249900 -14.147000
H -4.881700 -18.370400 -15.527300
N -4.702700 -12.192300 -18.501900
H -4.591700 -16.430300 -16.274900
C -3.950400 -14.342100 -17.722200
C -3.774100 -13.150900 -18.409200
H -3.244400 -14.976400 -17.680900
H -2.940600 -13.006200 -18.841800
N -7.298300 -26.702300 -10.442500
N -6.542400 -23.115800 -12.768500
C -6.539700 -26.087500 -11.046500
C -6.115800 -24.097700 -12.361100
C -5.604200 -25.321300 -11.817600
H -4.407500 -27.463500 -10.845000
C -4.308000 -25.739800 -12.011300
C -3.824900 -26.958100 -11.399700
H -3.691500 -24.166100 -13.241800
C -3.398400 -24.975100 -12.839300
C -2.569100 -27.388800 -11.600500
H -2.276100 -28.197800 -11.197900
C -2.142600 -25.405800 -13.040100
C -1.659500 -26.624100 -12.428500
H -1.560000 -24.900400 -13.594700
C -0.363400 -27.042700 -12.622200
C 0.148300 -28.266200 -12.078600
C 0.572100 -26.276400 -13.393200
N 0.574900 -29.248100 -11.671200
N 1.330800 -25.661700 -13.997300
