31
Fragment
H -11.098000 -18.548500 -12.489200
H -11.005700 -16.731300 -13.991400
C -10.308300 -18.382100 -12.990500
C -10.244300 -17.288300 -13.879700
H -9.261800 -19.940000 -12.263400
C -9.218300 -19.201000 -12.858700
C -9.101100 -17.017200 -14.584400
H -9.080400 -16.267600 -15.167600
C -8.027400 -18.970000 -13.590800
C -7.944500 -17.835900 -14.460400
H -7.289400 -15.800700 -16.058300
H -6.985100 -13.721400 -16.755300
H -6.979100 -20.594200 -12.887300
C -6.928200 -19.849200 -13.474500
C -6.711500 -17.584900 -15.152300
H -6.541000 -11.782400 -17.914500
C -6.518900 -16.334600 -15.904500
C -6.140700 -13.606100 -17.175200
C -5.863000 -12.446700 -17.874600
C -5.790200 -19.633600 -14.203000
C -5.682000 -18.505700 -15.033600
C -5.357300 -15.880400 -16.392200
C -5.168100 -14.608600 -17.090600
H -5.069500 -20.249900 -14.147000
H -4.881700 -18.370400 -15.527300
N -4.702700 -12.192300 -18.501900
H -4.591700 -16.430300 -16.274900
C -3.950400 -14.342100 -17.722200
C -3.774100 -13.150900 -18.409200
H -3.244400 -14.976400 -17.680900
H -2.940600 -13.006200 -18.841800
31
Fragment
H -10.980800 -16.207500 -17.817800
H -10.677000 -14.237300 -18.978700
C -10.147400 -16.062700 -18.250400
C -9.971000 -14.871500 -18.937400
H -9.329700 -12.783300 -20.384700
N -9.218700 -17.021400 -18.157800
H -9.039700 -10.843300 -21.132300
H -8.851900 -8.963700 -22.512700
C -8.753300 -14.605100 -19.569000
C -8.564100 -13.333200 -20.267400
C -8.239400 -10.708000 -21.626000
C -8.131200 -9.580100 -22.456600
C -8.058400 -16.767000 -18.785000
C -7.780700 -15.607500 -19.484500
C -7.402500 -12.879100 -20.755100
H -7.380500 -17.431300 -18.745200
C -7.210000 -11.628800 -21.507300
C -6.993300 -9.364400 -23.185100
H -6.942300 -8.619400 -23.772300
H -6.936300 -15.492200 -19.904300
H -6.632000 -13.413000 -20.601400
C -5.977000 -11.377800 -22.199200
C -5.894000 -10.243700 -23.068800
H -4.841000 -12.946100 -21.492100
C -4.820400 -12.196400 -22.075200
C -4.703100 -10.012700 -23.800900
H -4.659600 -9.273600 -24.396200
C -3.677100 -11.925400 -22.779900
C -3.613100 -10.831500 -23.669200
H -2.915700 -12.482400 -22.668200
H -2.823400 -10.665200 -24.170400
62
Fragment
H -11.098000 -18.548500 -12.489200
H -11.005700 -16.731300 -13.991400
C -10.308300 -18.382100 -12.990500
C -10.244300 -17.288300 -13.879700
H -9.261800 -19.940000 -12.263400
C -9.218300 -19.201000 -12.858700
C -9.101100 -17.017200 -14.584400
H -9.080400 -16.267600 -15.167600
C -8.027400 -18.970000 -13.590800
C -7.944500 -17.835900 -14.460400
H -7.289400 -15.800700 -16.058300
H -6.985100 -13.721400 -16.755300
H -6.979100 -20.594200 -12.887300
C -6.928200 -19.849200 -13.474500
C -6.711500 -17.584900 -15.152300
H -6.541000 -11.782400 -17.914500
C -6.518900 -16.334600 -15.904500
C -6.140700 -13.606100 -17.175200
C -5.863000 -12.446700 -17.874600
C -5.790200 -19.633600 -14.203000
C -5.682000 -18.505700 -15.033600
C -5.357300 -15.880400 -16.392200
C -5.168100 -14.608600 -17.090600
H -5.069500 -20.249900 -14.147000
H -4.881700 -18.370400 -15.527300
N -4.702700 -12.192300 -18.501900
H -4.591700 -16.430300 -16.274900
C -3.950400 -14.342100 -17.722200
C -3.774100 -13.150900 -18.409200
H -3.244400 -14.976400 -17.680900
H -2.940600 -13.006200 -18.841800
H -10.980800 -16.207500 -17.817800
H -10.677000 -14.237300 -18.978700
C -10.147400 -16.062700 -18.250400
C -9.971000 -14.871500 -18.937400
H -9.329700 -12.783300 -20.384700
N -9.218700 -17.021400 -18.157800
H -9.039700 -10.843300 -21.132300
H -8.851900 -8.963700 -22.512700
C -8.753300 -14.605100 -19.569000
C -8.564100 -13.333200 -20.267400
C -8.239400 -10.708000 -21.626000
C -8.131200 -9.580100 -22.456600
C -8.058400 -16.767000 -18.785000
C -7.780700 -15.607500 -19.484500
C -7.402500 -12.879100 -20.755100
H -7.380500 -17.431300 -18.745200
C -7.210000 -11.628800 -21.507300
C -6.993300 -9.364400 -23.185100
H -6.942300 -8.619400 -23.772300
H -6.936300 -15.492200 -19.904300
H -6.632000 -13.413000 -20.601400
C -5.977000 -11.377800 -22.199200
C -5.894000 -10.243700 -23.068800
H -4.841000 -12.946100 -21.492100
C -4.820400 -12.196400 -22.075200
C -4.703100 -10.012700 -23.800900
H -4.659600 -9.273600 -24.396200
C -3.677100 -11.925400 -22.779900
C -3.613100 -10.831500 -23.669200
H -2.915700 -12.482400 -22.668200
H -2.823400 -10.665200 -24.170400
