6
Fragment
H -12.229000 -21.838000 -9.950500
O -11.772500 -22.245100 -10.519400
C -10.549600 -21.643000 -10.086700
H -10.513800 -20.734200 -10.394500
H -10.507000 -21.657700 -9.127800
H -9.806400 -22.132100 -10.447500
24
Fragment
O -13.975900 -27.179200 -8.878600
H -12.892900 -31.727900 -8.544500
O -12.888500 -31.591700 -9.372200
N -12.868900 -27.600100 -9.143100
N -12.807100 -28.993100 -9.204700
O -11.940100 -26.863400 -9.299700
N -11.698600 -30.923000 -9.605500
C -11.664100 -29.553300 -9.580900
H -11.506600 -33.323500 -9.793300
N -10.757700 -32.961400 -10.009200
C -10.631800 -31.664400 -9.990400
N -10.520500 -28.949700 -9.915000
H -10.091100 -33.454200 -10.238600
O -9.894100 -24.939600 -10.144000
H -9.763600 -27.233800 -10.127500
C -9.506200 -29.743700 -10.254200
N -9.470600 -31.063900 -10.323700
N -9.005100 -26.903700 -10.361400
N -8.881900 -25.523100 -10.417900
N -8.315500 -29.121500 -10.588300
C -7.986100 -27.768800 -10.657800
O -7.855900 -25.023200 -10.757800
H -7.672700 -29.658100 -10.785000
O -6.865800 -27.450000 -10.970200
30
Fragment
H -12.229000 -21.838000 -9.950500
O -11.772500 -22.245100 -10.519400
C -10.549600 -21.643000 -10.086700
H -10.513800 -20.734200 -10.394500
H -10.507000 -21.657700 -9.127800
H -9.806400 -22.132100 -10.447500
O -13.975900 -27.179200 -8.878600
H -12.892900 -31.727900 -8.544500
O -12.888500 -31.591700 -9.372200
N -12.868900 -27.600100 -9.143100
N -12.807100 -28.993100 -9.204700
O -11.940100 -26.863400 -9.299700
N -11.698600 -30.923000 -9.605500
C -11.664100 -29.553300 -9.580900
H -11.506600 -33.323500 -9.793300
N -10.757700 -32.961400 -10.009200
C -10.631800 -31.664400 -9.990400
N -10.520500 -28.949700 -9.915000
H -10.091100 -33.454200 -10.238600
O -9.894100 -24.939600 -10.144000
H -9.763600 -27.233800 -10.127500
C -9.506200 -29.743700 -10.254200
N -9.470600 -31.063900 -10.323700
N -9.005100 -26.903700 -10.361400
N -8.881900 -25.523100 -10.417900
N -8.315500 -29.121500 -10.588300
C -7.986100 -27.768800 -10.657800
O -7.855900 -25.023200 -10.757800
H -7.672700 -29.658100 -10.785000
O -6.865800 -27.450000 -10.970200
