6
Fragment
H -12.229000 -21.838000 -9.950500
O -11.772500 -22.245100 -10.519400
C -10.549600 -21.643000 -10.086700
H -10.513800 -20.734200 -10.394500
H -10.507000 -21.657700 -9.127800
H -9.806400 -22.132100 -10.447500
24
Fragment
O -14.905600 -26.990300 -5.255000
H -13.822600 -22.441600 -4.920900
O -13.818300 -22.577800 -5.748500
N -13.798600 -26.569400 -5.519500
N -13.736800 -25.176400 -5.581100
O -12.869900 -27.306100 -5.676100
N -12.628300 -23.246500 -5.981900
C -12.593900 -24.616200 -5.957300
H -12.436300 -20.846000 -6.169700
N -11.687400 -21.208100 -6.385600
C -11.561500 -22.505100 -6.366700
N -11.450200 -25.219800 -6.291300
H -11.020800 -20.715300 -6.614900
O -10.823800 -29.229900 -6.520400
H -10.693400 -26.935700 -6.503900
C -10.435900 -24.425800 -6.630500
N -10.400300 -23.105600 -6.700100
N -9.934800 -27.265800 -6.737800
N -9.811600 -28.646400 -6.794300
N -9.245200 -25.048000 -6.964600
C -8.915800 -26.400700 -7.034200
O -8.785600 -29.146300 -7.134200
H -8.602400 -24.511400 -7.161400
O -7.795500 -26.719500 -7.346600
30
Fragment
H -12.229000 -21.838000 -9.950500
O -11.772500 -22.245100 -10.519400
C -10.549600 -21.643000 -10.086700
H -10.513800 -20.734200 -10.394500
H -10.507000 -21.657700 -9.127800
H -9.806400 -22.132100 -10.447500
O -14.905600 -26.990300 -5.255000
H -13.822600 -22.441600 -4.920900
O -13.818300 -22.577800 -5.748500
N -13.798600 -26.569400 -5.519500
N -13.736800 -25.176400 -5.581100
O -12.869900 -27.306100 -5.676100
N -12.628300 -23.246500 -5.981900
C -12.593900 -24.616200 -5.957300
H -12.436300 -20.846000 -6.169700
N -11.687400 -21.208100 -6.385600
C -11.561500 -22.505100 -6.366700
N -11.450200 -25.219800 -6.291300
H -11.020800 -20.715300 -6.614900
O -10.823800 -29.229900 -6.520400
H -10.693400 -26.935700 -6.503900
C -10.435900 -24.425800 -6.630500
N -10.400300 -23.105600 -6.700100
N -9.934800 -27.265800 -6.737800
N -9.811600 -28.646400 -6.794300
N -9.245200 -25.048000 -6.964600
C -8.915800 -26.400700 -7.034200
O -8.785600 -29.146300 -7.134200
H -8.602400 -24.511400 -7.161400
O -7.795500 -26.719500 -7.346600
