6
Fragment
H -12.229000 -21.838000 -9.950500
O -11.772500 -22.245100 -10.519400
C -10.549600 -21.643000 -10.086700
H -10.513800 -20.734200 -10.394500
H -10.507000 -21.657700 -9.127800
H -9.806400 -22.132100 -10.447500
24
Fragment
O -13.046200 -26.990300 -12.502300
H -11.963100 -22.441600 -12.168200
O -11.958800 -22.577800 -12.995800
N -11.939200 -26.569400 -12.766800
N -11.877400 -25.176400 -12.828400
O -11.010400 -27.306100 -12.923300
N -10.768900 -23.246500 -13.229200
C -10.734400 -24.616200 -13.204500
H -10.576800 -20.846000 -13.416900
N -9.827900 -21.208100 -13.632800
C -9.702100 -22.505100 -13.614000
N -9.590800 -25.219800 -13.538600
H -9.161400 -20.715300 -13.862200
O -8.964300 -29.229900 -13.767600
H -8.833900 -26.935700 -13.751200
C -8.576500 -24.425800 -13.877800
N -8.540800 -23.105600 -13.947400
N -8.075400 -27.265800 -13.985000
N -7.952200 -28.646400 -14.041600
N -7.385800 -25.048000 -14.211900
C -7.056400 -26.400700 -14.281500
O -6.926200 -29.146300 -14.381500
H -6.743000 -24.511400 -14.408600
O -5.936100 -26.719500 -14.593800
30
Fragment
H -12.229000 -21.838000 -9.950500
O -11.772500 -22.245100 -10.519400
C -10.549600 -21.643000 -10.086700
H -10.513800 -20.734200 -10.394500
H -10.507000 -21.657700 -9.127800
H -9.806400 -22.132100 -10.447500
O -13.046200 -26.990300 -12.502300
H -11.963100 -22.441600 -12.168200
O -11.958800 -22.577800 -12.995800
N -11.939200 -26.569400 -12.766800
N -11.877400 -25.176400 -12.828400
O -11.010400 -27.306100 -12.923300
N -10.768900 -23.246500 -13.229200
C -10.734400 -24.616200 -13.204500
H -10.576800 -20.846000 -13.416900
N -9.827900 -21.208100 -13.632800
C -9.702100 -22.505100 -13.614000
N -9.590800 -25.219800 -13.538600
H -9.161400 -20.715300 -13.862200
O -8.964300 -29.229900 -13.767600
H -8.833900 -26.935700 -13.751200
C -8.576500 -24.425800 -13.877800
N -8.540800 -23.105600 -13.947400
N -8.075400 -27.265800 -13.985000
N -7.952200 -28.646400 -14.041600
N -7.385800 -25.048000 -14.211900
C -7.056400 -26.400700 -14.281500
O -6.926200 -29.146300 -14.381500
H -6.743000 -24.511400 -14.408600
O -5.936100 -26.719500 -14.593800
