6
Fragment
H -12.229000 -21.838000 -9.950500
O -11.772500 -22.245100 -10.519400
C -10.549600 -21.643000 -10.086700
H -10.513800 -20.734200 -10.394500
H -10.507000 -21.657700 -9.127800
H -9.806400 -22.132100 -10.447500
24
Fragment
O -8.463900 -18.981000 -10.771600
H -7.657000 -16.772900 -10.956800
O -7.473800 -21.407800 -10.984000
C -7.343600 -18.662200 -11.084000
N -7.014200 -17.309500 -11.153500
N -6.447800 -20.907900 -11.323800
N -6.324600 -19.527300 -11.380400
N -5.859100 -15.367100 -11.418100
C -5.823500 -16.687300 -11.487600
H -5.566100 -19.197200 -11.614200
O -5.435600 -21.491400 -11.597800
H -5.238600 -12.976800 -11.503200
N -4.809200 -17.481300 -11.826800
C -4.697900 -14.766600 -11.751400
N -4.572100 -13.469600 -11.732600
H -3.823100 -13.107500 -11.948500
C -3.665600 -16.877700 -12.160900
N -3.631100 -15.508000 -12.136300
O -3.389600 -19.567600 -12.442100
N -2.522600 -17.437900 -12.537000
N -2.460800 -18.830900 -12.598600
O -2.441200 -14.839300 -12.369600
H -2.436900 -14.703200 -13.197300
O -1.353800 -19.251800 -12.863200
30
Fragment
H -12.229000 -21.838000 -9.950500
O -11.772500 -22.245100 -10.519400
C -10.549600 -21.643000 -10.086700
H -10.513800 -20.734200 -10.394500
H -10.507000 -21.657700 -9.127800
H -9.806400 -22.132100 -10.447500
O -8.463900 -18.981000 -10.771600
H -7.657000 -16.772900 -10.956800
O -7.473800 -21.407800 -10.984000
C -7.343600 -18.662200 -11.084000
N -7.014200 -17.309500 -11.153500
N -6.447800 -20.907900 -11.323800
N -6.324600 -19.527300 -11.380400
N -5.859100 -15.367100 -11.418100
C -5.823500 -16.687300 -11.487600
H -5.566100 -19.197200 -11.614200
O -5.435600 -21.491400 -11.597800
H -5.238600 -12.976800 -11.503200
N -4.809200 -17.481300 -11.826800
C -4.697900 -14.766600 -11.751400
N -4.572100 -13.469600 -11.732600
H -3.823100 -13.107500 -11.948500
C -3.665600 -16.877700 -12.160900
N -3.631100 -15.508000 -12.136300
O -3.389600 -19.567600 -12.442100
N -2.522600 -17.437900 -12.537000
N -2.460800 -18.830900 -12.598600
O -2.441200 -14.839300 -12.369600
H -2.436900 -14.703200 -13.197300
O -1.353800 -19.251800 -12.863200
