26
Fragment
H -14.996000 -19.841500 -33.669100
H -14.928700 -19.775900 -35.234000
H -14.843400 -21.160700 -34.501700
C -14.604700 -20.232500 -34.453100
N -13.163100 -20.107800 -34.385700
O -12.957200 -17.817100 -34.493000
H -12.792100 -21.889600 -39.264200
H -12.666900 -23.504600 -37.322100
H -12.587800 -23.022000 -35.136000
C -12.500900 -18.945500 -34.397500
H -12.447700 -21.697800 -33.401000
N -12.356200 -22.212500 -35.310800
N -12.340500 -22.741000 -37.547100
C -12.271600 -21.251000 -34.255800
H -12.133100 -23.302900 -39.423300
C -12.110400 -22.478700 -38.932300
C -12.072100 -21.853700 -36.590700
O -11.565700 -20.737600 -36.825400
H -11.250300 -22.065300 -39.039700
N -11.137600 -19.217400 -34.241600
C -10.908300 -20.561900 -34.187600
H -10.467700 -17.350300 -34.275000
C -10.088900 -18.229000 -34.350200
O -9.829800 -21.094000 -34.076000
H -9.653000 -18.316800 -35.201300
H -9.448700 -18.362600 -33.647300
26
Fragment
H -17.943400 -12.174900 -33.647300
H -17.739100 -12.129100 -35.201300
O -17.562200 -14.906300 -34.076000
C -17.303200 -12.041300 -34.350200
H -16.924400 -11.162600 -34.275000
C -16.483800 -14.374200 -34.187600
N -16.254400 -13.029700 -34.241600
H -16.141700 -15.877600 -39.039700
O -15.826300 -14.549900 -36.825400
C -15.320000 -15.666000 -36.590700
C -15.281600 -16.291000 -38.932300
H -15.258900 -17.115200 -39.423300
C -15.120400 -15.063300 -34.255800
N -15.051500 -16.553300 -37.547100
N -15.035900 -16.024800 -35.310800
H -14.944300 -15.510100 -33.401000
C -14.891100 -12.757800 -34.397500
H -14.804200 -16.834300 -35.136000
H -14.725200 -17.316900 -37.322100
H -14.600000 -15.701900 -39.264200
O -14.434800 -11.629400 -34.493000
N -14.229000 -13.920100 -34.385700
C -12.787400 -14.044800 -34.453100
H -12.548700 -14.973000 -34.501700
H -12.463400 -13.588200 -35.234000
H -12.396100 -13.653800 -33.669100
52
Fragment
H -14.996000 -19.841500 -33.669100
H -14.928700 -19.775900 -35.234000
H -14.843400 -21.160700 -34.501700
C -14.604700 -20.232500 -34.453100
N -13.163100 -20.107800 -34.385700
O -12.957200 -17.817100 -34.493000
H -12.792100 -21.889600 -39.264200
H -12.666900 -23.504600 -37.322100
H -12.587800 -23.022000 -35.136000
C -12.500900 -18.945500 -34.397500
H -12.447700 -21.697800 -33.401000
N -12.356200 -22.212500 -35.310800
N -12.340500 -22.741000 -37.547100
C -12.271600 -21.251000 -34.255800
H -12.133100 -23.302900 -39.423300
C -12.110400 -22.478700 -38.932300
C -12.072100 -21.853700 -36.590700
O -11.565700 -20.737600 -36.825400
H -11.250300 -22.065300 -39.039700
N -11.137600 -19.217400 -34.241600
C -10.908300 -20.561900 -34.187600
H -10.467700 -17.350300 -34.275000
C -10.088900 -18.229000 -34.350200
O -9.829800 -21.094000 -34.076000
H -9.653000 -18.316800 -35.201300
H -9.448700 -18.362600 -33.647300
H -17.943400 -12.174900 -33.647300
H -17.739100 -12.129100 -35.201300
O -17.562200 -14.906300 -34.076000
C -17.303200 -12.041300 -34.350200
H -16.924400 -11.162600 -34.275000
C -16.483800 -14.374200 -34.187600
N -16.254400 -13.029700 -34.241600
H -16.141700 -15.877600 -39.039700
O -15.826300 -14.549900 -36.825400
C -15.320000 -15.666000 -36.590700
C -15.281600 -16.291000 -38.932300
H -15.258900 -17.115200 -39.423300
C -15.120400 -15.063300 -34.255800
N -15.051500 -16.553300 -37.547100
N -15.035900 -16.024800 -35.310800
H -14.944300 -15.510100 -33.401000
C -14.891100 -12.757800 -34.397500
H -14.804200 -16.834300 -35.136000
H -14.725200 -17.316900 -37.322100
H -14.600000 -15.701900 -39.264200
O -14.434800 -11.629400 -34.493000
N -14.229000 -13.920100 -34.385700
C -12.787400 -14.044800 -34.453100
H -12.548700 -14.973000 -34.501700
H -12.463400 -13.588200 -35.234000
H -12.396100 -13.653800 -33.669100
