26
Fragment
H -14.996000 -19.841500 -33.669100
H -14.928700 -19.775900 -35.234000
H -14.843400 -21.160700 -34.501700
C -14.604700 -20.232500 -34.453100
N -13.163100 -20.107800 -34.385700
O -12.957200 -17.817100 -34.493000
H -12.792100 -21.889600 -39.264200
H -12.666900 -23.504600 -37.322100
H -12.587800 -23.022000 -35.136000
C -12.500900 -18.945500 -34.397500
H -12.447700 -21.697800 -33.401000
N -12.356200 -22.212500 -35.310800
N -12.340500 -22.741000 -37.547100
C -12.271600 -21.251000 -34.255800
H -12.133100 -23.302900 -39.423300
C -12.110400 -22.478700 -38.932300
C -12.072100 -21.853700 -36.590700
O -11.565700 -20.737600 -36.825400
H -11.250300 -22.065300 -39.039700
N -11.137600 -19.217400 -34.241600
C -10.908300 -20.561900 -34.187600
H -10.467700 -17.350300 -34.275000
C -10.088900 -18.229000 -34.350200
O -9.829800 -21.094000 -34.076000
H -9.653000 -18.316800 -35.201300
H -9.448700 -18.362600 -33.647300
26
Fragment
H -10.117100 -24.550300 -33.647300
H -9.912800 -24.504500 -35.201300
O -9.735900 -27.281700 -34.076000
C -9.476900 -24.416700 -34.350200
H -9.098100 -23.538000 -34.275000
C -8.657500 -26.749600 -34.187600
N -8.428100 -25.405100 -34.241600
H -8.315400 -28.253000 -39.039700
O -8.000000 -26.925300 -36.825400
C -7.493700 -28.041400 -36.590700
C -7.455300 -28.666400 -38.932300
H -7.432600 -29.490600 -39.423300
C -7.294100 -27.438700 -34.255800
N -7.225200 -28.928700 -37.547100
N -7.209600 -28.400200 -35.310800
H -7.118000 -27.885500 -33.401000
C -7.064800 -25.133200 -34.397500
H -6.977900 -29.209700 -35.136000
H -6.898900 -29.692300 -37.322100
H -6.773700 -28.077300 -39.264200
O -6.608500 -24.004800 -34.493000
N -6.402700 -26.295500 -34.385700
C -4.961100 -26.420200 -34.453100
H -4.722400 -27.348400 -34.501700
H -4.637100 -25.963600 -35.234000
H -4.569800 -26.029200 -33.669100
52
Fragment
H -14.996000 -19.841500 -33.669100
H -14.928700 -19.775900 -35.234000
H -14.843400 -21.160700 -34.501700
C -14.604700 -20.232500 -34.453100
N -13.163100 -20.107800 -34.385700
O -12.957200 -17.817100 -34.493000
H -12.792100 -21.889600 -39.264200
H -12.666900 -23.504600 -37.322100
H -12.587800 -23.022000 -35.136000
C -12.500900 -18.945500 -34.397500
H -12.447700 -21.697800 -33.401000
N -12.356200 -22.212500 -35.310800
N -12.340500 -22.741000 -37.547100
C -12.271600 -21.251000 -34.255800
H -12.133100 -23.302900 -39.423300
C -12.110400 -22.478700 -38.932300
C -12.072100 -21.853700 -36.590700
O -11.565700 -20.737600 -36.825400
H -11.250300 -22.065300 -39.039700
N -11.137600 -19.217400 -34.241600
C -10.908300 -20.561900 -34.187600
H -10.467700 -17.350300 -34.275000
C -10.088900 -18.229000 -34.350200
O -9.829800 -21.094000 -34.076000
H -9.653000 -18.316800 -35.201300
H -9.448700 -18.362600 -33.647300
H -10.117100 -24.550300 -33.647300
H -9.912800 -24.504500 -35.201300
O -9.735900 -27.281700 -34.076000
C -9.476900 -24.416700 -34.350200
H -9.098100 -23.538000 -34.275000
C -8.657500 -26.749600 -34.187600
N -8.428100 -25.405100 -34.241600
H -8.315400 -28.253000 -39.039700
O -8.000000 -26.925300 -36.825400
C -7.493700 -28.041400 -36.590700
C -7.455300 -28.666400 -38.932300
H -7.432600 -29.490600 -39.423300
C -7.294100 -27.438700 -34.255800
N -7.225200 -28.928700 -37.547100
N -7.209600 -28.400200 -35.310800
H -7.118000 -27.885500 -33.401000
C -7.064800 -25.133200 -34.397500
H -6.977900 -29.209700 -35.136000
H -6.898900 -29.692300 -37.322100
H -6.773700 -28.077300 -39.264200
O -6.608500 -24.004800 -34.493000
N -6.402700 -26.295500 -34.385700
C -4.961100 -26.420200 -34.453100
H -4.722400 -27.348400 -34.501700
H -4.637100 -25.963600 -35.234000
H -4.569800 -26.029200 -33.669100
