26
Fragment
H -14.996000 -19.841500 -33.669100
H -14.928700 -19.775900 -35.234000
H -14.843400 -21.160700 -34.501700
C -14.604700 -20.232500 -34.453100
N -13.163100 -20.107800 -34.385700
O -12.957200 -17.817100 -34.493000
H -12.792100 -21.889600 -39.264200
H -12.666900 -23.504600 -37.322100
H -12.587800 -23.022000 -35.136000
C -12.500900 -18.945500 -34.397500
H -12.447700 -21.697800 -33.401000
N -12.356200 -22.212500 -35.310800
N -12.340500 -22.741000 -37.547100
C -12.271600 -21.251000 -34.255800
H -12.133100 -23.302900 -39.423300
C -12.110400 -22.478700 -38.932300
C -12.072100 -21.853700 -36.590700
O -11.565700 -20.737600 -36.825400
H -11.250300 -22.065300 -39.039700
N -11.137600 -19.217400 -34.241600
C -10.908300 -20.561900 -34.187600
H -10.467700 -17.350300 -34.275000
C -10.088900 -18.229000 -34.350200
O -9.829800 -21.094000 -34.076000
H -9.653000 -18.316800 -35.201300
H -9.448700 -18.362600 -33.647300
26
Fragment
H -18.909100 -23.472400 -31.720400
H -18.841800 -23.538000 -30.155500
H -18.756500 -22.153200 -30.887800
C -18.517800 -23.081400 -30.936400
N -17.076200 -23.206100 -31.003800
O -16.870400 -25.496800 -30.896500
H -16.705200 -21.424300 -26.125300
H -16.580000 -19.809300 -28.067400
H -16.501000 -20.291900 -30.253500
C -16.414100 -24.368400 -30.992000
H -16.360900 -21.616100 -31.988500
N -16.269300 -21.101400 -30.078700
N -16.253700 -20.572900 -27.842400
C -16.184800 -22.062900 -31.133700
H -16.046300 -20.011000 -25.966200
C -16.023600 -20.835200 -26.457200
C -15.985200 -21.460200 -28.798800
O -15.478900 -22.576300 -28.564100
H -15.163500 -21.248600 -26.349800
N -15.050800 -24.096500 -31.147900
C -14.821400 -22.752000 -31.201900
H -14.380800 -25.963600 -31.114500
C -14.002000 -25.084900 -31.039300
O -13.743000 -22.219900 -31.313500
H -13.566100 -24.997100 -30.188200
H -13.361800 -24.951300 -31.742200
52
Fragment
H -14.996000 -19.841500 -33.669100
H -14.928700 -19.775900 -35.234000
H -14.843400 -21.160700 -34.501700
C -14.604700 -20.232500 -34.453100
N -13.163100 -20.107800 -34.385700
O -12.957200 -17.817100 -34.493000
H -12.792100 -21.889600 -39.264200
H -12.666900 -23.504600 -37.322100
H -12.587800 -23.022000 -35.136000
C -12.500900 -18.945500 -34.397500
H -12.447700 -21.697800 -33.401000
N -12.356200 -22.212500 -35.310800
N -12.340500 -22.741000 -37.547100
C -12.271600 -21.251000 -34.255800
H -12.133100 -23.302900 -39.423300
C -12.110400 -22.478700 -38.932300
C -12.072100 -21.853700 -36.590700
O -11.565700 -20.737600 -36.825400
H -11.250300 -22.065300 -39.039700
N -11.137600 -19.217400 -34.241600
C -10.908300 -20.561900 -34.187600
H -10.467700 -17.350300 -34.275000
C -10.088900 -18.229000 -34.350200
O -9.829800 -21.094000 -34.076000
H -9.653000 -18.316800 -35.201300
H -9.448700 -18.362600 -33.647300
H -18.909100 -23.472400 -31.720400
H -18.841800 -23.538000 -30.155500
H -18.756500 -22.153200 -30.887800
C -18.517800 -23.081400 -30.936400
N -17.076200 -23.206100 -31.003800
O -16.870400 -25.496800 -30.896500
H -16.705200 -21.424300 -26.125300
H -16.580000 -19.809300 -28.067400
H -16.501000 -20.291900 -30.253500
C -16.414100 -24.368400 -30.992000
H -16.360900 -21.616100 -31.988500
N -16.269300 -21.101400 -30.078700
N -16.253700 -20.572900 -27.842400
C -16.184800 -22.062900 -31.133700
H -16.046300 -20.011000 -25.966200
C -16.023600 -20.835200 -26.457200
C -15.985200 -21.460200 -28.798800
O -15.478900 -22.576300 -28.564100
H -15.163500 -21.248600 -26.349800
N -15.050800 -24.096500 -31.147900
C -14.821400 -22.752000 -31.201900
H -14.380800 -25.963600 -31.114500
C -14.002000 -25.084900 -31.039300
O -13.743000 -22.219900 -31.313500
H -13.566100 -24.997100 -30.188200
H -13.361800 -24.951300 -31.742200
