26
Fragment
H -14.996000 -19.841500 -33.669100
H -14.928700 -19.775900 -35.234000
H -14.843400 -21.160700 -34.501700
C -14.604700 -20.232500 -34.453100
N -13.163100 -20.107800 -34.385700
O -12.957200 -17.817100 -34.493000
H -12.792100 -21.889600 -39.264200
H -12.666900 -23.504600 -37.322100
H -12.587800 -23.022000 -35.136000
C -12.500900 -18.945500 -34.397500
H -12.447700 -21.697800 -33.401000
N -12.356200 -22.212500 -35.310800
N -12.340500 -22.741000 -37.547100
C -12.271600 -21.251000 -34.255800
H -12.133100 -23.302900 -39.423300
C -12.110400 -22.478700 -38.932300
C -12.072100 -21.853700 -36.590700
O -11.565700 -20.737600 -36.825400
H -11.250300 -22.065300 -39.039700
N -11.137600 -19.217400 -34.241600
C -10.908300 -20.561900 -34.187600
H -10.467700 -17.350300 -34.275000
C -10.088900 -18.229000 -34.350200
O -9.829800 -21.094000 -34.076000
H -9.653000 -18.316800 -35.201300
H -9.448700 -18.362600 -33.647300
26
Fragment
H -22.822300 -19.841500 -33.669100
H -22.755000 -19.775900 -35.234000
H -22.669700 -21.160700 -34.501700
C -22.431000 -20.232500 -34.453100
N -20.989400 -20.107800 -34.385700
O -20.783500 -17.817100 -34.493000
H -20.618400 -21.889600 -39.264200
H -20.493200 -23.504600 -37.322100
H -20.414100 -23.022000 -35.136000
C -20.327200 -18.945500 -34.397500
H -20.274000 -21.697800 -33.401000
N -20.182500 -22.212500 -35.310800
N -20.166800 -22.741000 -37.547100
C -20.097900 -21.251000 -34.255800
H -19.959400 -23.302900 -39.423300
C -19.936700 -22.478700 -38.932300
C -19.898400 -21.853700 -36.590700
O -19.392000 -20.737600 -36.825400
H -19.076600 -22.065300 -39.039700
N -18.963900 -19.217400 -34.241600
C -18.734600 -20.561900 -34.187600
H -18.294000 -17.350300 -34.275000
C -17.915200 -18.229000 -34.350200
O -17.656100 -21.094000 -34.076000
H -17.479300 -18.316800 -35.201300
H -17.275000 -18.362600 -33.647300
52
Fragment
H -14.996000 -19.841500 -33.669100
H -14.928700 -19.775900 -35.234000
H -14.843400 -21.160700 -34.501700
C -14.604700 -20.232500 -34.453100
N -13.163100 -20.107800 -34.385700
O -12.957200 -17.817100 -34.493000
H -12.792100 -21.889600 -39.264200
H -12.666900 -23.504600 -37.322100
H -12.587800 -23.022000 -35.136000
C -12.500900 -18.945500 -34.397500
H -12.447700 -21.697800 -33.401000
N -12.356200 -22.212500 -35.310800
N -12.340500 -22.741000 -37.547100
C -12.271600 -21.251000 -34.255800
H -12.133100 -23.302900 -39.423300
C -12.110400 -22.478700 -38.932300
C -12.072100 -21.853700 -36.590700
O -11.565700 -20.737600 -36.825400
H -11.250300 -22.065300 -39.039700
N -11.137600 -19.217400 -34.241600
C -10.908300 -20.561900 -34.187600
H -10.467700 -17.350300 -34.275000
C -10.088900 -18.229000 -34.350200
O -9.829800 -21.094000 -34.076000
H -9.653000 -18.316800 -35.201300
H -9.448700 -18.362600 -33.647300
H -22.822300 -19.841500 -33.669100
H -22.755000 -19.775900 -35.234000
H -22.669700 -21.160700 -34.501700
C -22.431000 -20.232500 -34.453100
N -20.989400 -20.107800 -34.385700
O -20.783500 -17.817100 -34.493000
H -20.618400 -21.889600 -39.264200
H -20.493200 -23.504600 -37.322100
H -20.414100 -23.022000 -35.136000
C -20.327200 -18.945500 -34.397500
H -20.274000 -21.697800 -33.401000
N -20.182500 -22.212500 -35.310800
N -20.166800 -22.741000 -37.547100
C -20.097900 -21.251000 -34.255800
H -19.959400 -23.302900 -39.423300
C -19.936700 -22.478700 -38.932300
C -19.898400 -21.853700 -36.590700
O -19.392000 -20.737600 -36.825400
H -19.076600 -22.065300 -39.039700
N -18.963900 -19.217400 -34.241600
C -18.734600 -20.561900 -34.187600
H -18.294000 -17.350300 -34.275000
C -17.915200 -18.229000 -34.350200
O -17.656100 -21.094000 -34.076000
H -17.479300 -18.316800 -35.201300
H -17.275000 -18.362600 -33.647300
