50
Fragment
H -20.484000 -7.692300 -26.203300
H -19.789200 -6.733100 -27.230400
C -19.700400 -7.554500 -26.741000
H -19.602500 -8.284400 -27.355800
N -18.533700 -7.483500 -25.884300
H -18.286800 -6.720700 -25.571600
H -18.112300 -11.258600 -22.988600
O -18.090500 -9.701400 -25.988600
H -17.954300 -9.700000 -22.933900
C -17.831400 -8.578200 -25.569200
C -17.494600 -10.538300 -22.843900
H -17.123600 -10.606400 -21.961500
O -16.860400 -12.795500 -24.409200
N -16.776800 -8.378100 -24.696300
H -16.687000 -7.631500 -24.279300
N -16.418700 -10.612700 -23.832000
C -16.350700 -11.709200 -24.632000
H -16.167900 -12.459500 -27.347800
C -15.837200 -9.440100 -24.503000
H -15.759100 -6.286900 -20.818600
N -15.592600 -11.410100 -25.752000
O -15.478000 -8.842400 -21.423000
C -15.388700 -10.069300 -25.854400
C -15.363000 -12.358400 -26.835200
H -15.312100 -5.110900 -21.752500
H -15.108700 -13.207600 -26.468500
C -15.057700 -5.960100 -21.385900
C -15.032000 -8.249200 -22.366700
O -14.942700 -9.476100 -26.798000
N -14.828100 -6.908400 -22.469100
H -14.661700 -12.031600 -27.402400
C -14.583500 -8.878400 -23.718000
H -14.252900 -5.859000 -20.873300
C -14.070000 -6.609300 -23.589100
N -14.002100 -7.705800 -24.389100
H -13.733700 -10.687000 -23.941800
N -13.644000 -9.940400 -23.524800
O -13.560300 -5.523000 -23.811900
H -13.297100 -7.712100 -26.259600
C -12.926200 -7.780200 -25.377100
C -12.589300 -9.740300 -22.651800
H -12.466400 -8.618500 -25.287100
O -12.330300 -8.617100 -22.232500
H -12.308400 -7.059900 -25.232500
H -12.133900 -11.597800 -22.649400
N -11.887000 -10.835000 -22.336800
H -10.818200 -10.034100 -20.865300
C -10.720300 -10.764000 -21.480100
H -10.631500 -11.585400 -20.990600
H -9.936700 -10.626200 -22.017700
50
Fragment
H -22.126500 -14.289900 -18.166500
H -21.431600 -15.249100 -19.193600
C -21.342900 -14.427700 -18.704100
H -21.244900 -13.697800 -19.319000
N -20.176100 -14.498700 -17.847400
H -19.929300 -15.261500 -17.534800
H -19.754700 -10.723600 -14.951700
O -19.732900 -12.280800 -17.951700
H -19.596700 -12.282200 -14.897100
C -19.473800 -13.404000 -17.532400
C -19.137000 -11.443900 -14.807100
H -18.766000 -11.375800 -13.924600
O -18.502800 -9.186700 -16.372300
N -18.419200 -13.604100 -16.659400
H -18.329400 -14.350700 -16.242500
N -18.061100 -11.369500 -15.795100
C -17.993100 -10.273000 -16.595100
H -17.810300 -9.522700 -19.310900
C -17.479600 -12.542100 -16.466200
H -17.401500 -15.695300 -12.781800
N -17.235000 -10.572100 -17.715100
O -17.120400 -13.139800 -13.386200
C -17.031100 -11.912900 -17.817500
C -17.005500 -9.623800 -18.798300
H -16.954500 -16.871300 -13.715700
H -16.751100 -8.774600 -18.431700
C -16.700100 -16.022100 -13.349000
C -16.674500 -13.733000 -14.329900
O -16.585200 -12.506100 -18.761200
N -16.470500 -15.073800 -14.432200
H -16.304100 -9.950600 -19.365600
C -16.225900 -13.103800 -15.681200
H -15.895300 -16.123200 -12.836400
C -15.712400 -15.372900 -15.552300
N -15.644500 -14.276400 -16.352200
H -15.376100 -11.295200 -15.904900
N -15.286400 -12.041800 -15.488000
O -15.202800 -16.459200 -15.775000
H -14.939500 -14.270100 -18.222700
C -14.568600 -14.202000 -17.340300
C -14.231700 -12.241900 -14.615000
H -14.108800 -13.363700 -17.250300
O -13.972700 -13.365100 -14.195600
H -13.950800 -14.922300 -17.195600
H -13.776300 -10.384400 -14.612600
N -13.529400 -11.147200 -14.300000
H -12.460600 -11.948100 -12.828400
C -12.362700 -11.218200 -13.443200
H -12.273900 -10.396800 -12.953800
H -11.579100 -11.356000 -13.980900
100
Fragment
H -20.484000 -7.692300 -26.203300
H -19.789200 -6.733100 -27.230400
C -19.700400 -7.554500 -26.741000
H -19.602500 -8.284400 -27.355800
N -18.533700 -7.483500 -25.884300
H -18.286800 -6.720700 -25.571600
H -18.112300 -11.258600 -22.988600
O -18.090500 -9.701400 -25.988600
H -17.954300 -9.700000 -22.933900
C -17.831400 -8.578200 -25.569200
C -17.494600 -10.538300 -22.843900
H -17.123600 -10.606400 -21.961500
O -16.860400 -12.795500 -24.409200
N -16.776800 -8.378100 -24.696300
H -16.687000 -7.631500 -24.279300
N -16.418700 -10.612700 -23.832000
C -16.350700 -11.709200 -24.632000
H -16.167900 -12.459500 -27.347800
C -15.837200 -9.440100 -24.503000
H -15.759100 -6.286900 -20.818600
N -15.592600 -11.410100 -25.752000
O -15.478000 -8.842400 -21.423000
C -15.388700 -10.069300 -25.854400
C -15.363000 -12.358400 -26.835200
H -15.312100 -5.110900 -21.752500
H -15.108700 -13.207600 -26.468500
C -15.057700 -5.960100 -21.385900
C -15.032000 -8.249200 -22.366700
O -14.942700 -9.476100 -26.798000
N -14.828100 -6.908400 -22.469100
H -14.661700 -12.031600 -27.402400
C -14.583500 -8.878400 -23.718000
H -14.252900 -5.859000 -20.873300
C -14.070000 -6.609300 -23.589100
N -14.002100 -7.705800 -24.389100
H -13.733700 -10.687000 -23.941800
N -13.644000 -9.940400 -23.524800
O -13.560300 -5.523000 -23.811900
H -13.297100 -7.712100 -26.259600
C -12.926200 -7.780200 -25.377100
C -12.589300 -9.740300 -22.651800
H -12.466400 -8.618500 -25.287100
O -12.330300 -8.617100 -22.232500
H -12.308400 -7.059900 -25.232500
H -12.133900 -11.597800 -22.649400
N -11.887000 -10.835000 -22.336800
H -10.818200 -10.034100 -20.865300
C -10.720300 -10.764000 -21.480100
H -10.631500 -11.585400 -20.990600
H -9.936700 -10.626200 -22.017700
H -22.126500 -14.289900 -18.166500
H -21.431600 -15.249100 -19.193600
C -21.342900 -14.427700 -18.704100
H -21.244900 -13.697800 -19.319000
N -20.176100 -14.498700 -17.847400
H -19.929300 -15.261500 -17.534800
H -19.754700 -10.723600 -14.951700
O -19.732900 -12.280800 -17.951700
H -19.596700 -12.282200 -14.897100
C -19.473800 -13.404000 -17.532400
C -19.137000 -11.443900 -14.807100
H -18.766000 -11.375800 -13.924600
O -18.502800 -9.186700 -16.372300
N -18.419200 -13.604100 -16.659400
H -18.329400 -14.350700 -16.242500
N -18.061100 -11.369500 -15.795100
C -17.993100 -10.273000 -16.595100
H -17.810300 -9.522700 -19.310900
C -17.479600 -12.542100 -16.466200
H -17.401500 -15.695300 -12.781800
N -17.235000 -10.572100 -17.715100
O -17.120400 -13.139800 -13.386200
C -17.031100 -11.912900 -17.817500
C -17.005500 -9.623800 -18.798300
H -16.954500 -16.871300 -13.715700
H -16.751100 -8.774600 -18.431700
C -16.700100 -16.022100 -13.349000
C -16.674500 -13.733000 -14.329900
O -16.585200 -12.506100 -18.761200
N -16.470500 -15.073800 -14.432200
H -16.304100 -9.950600 -19.365600
C -16.225900 -13.103800 -15.681200
H -15.895300 -16.123200 -12.836400
C -15.712400 -15.372900 -15.552300
N -15.644500 -14.276400 -16.352200
H -15.376100 -11.295200 -15.904900
N -15.286400 -12.041800 -15.488000
O -15.202800 -16.459200 -15.775000
H -14.939500 -14.270100 -18.222700
C -14.568600 -14.202000 -17.340300
C -14.231700 -12.241900 -14.615000
H -14.108800 -13.363700 -17.250300
O -13.972700 -13.365100 -14.195600
H -13.950800 -14.922300 -17.195600
H -13.776300 -10.384400 -14.612600
N -13.529400 -11.147200 -14.300000
H -12.460600 -11.948100 -12.828400
C -12.362700 -11.218200 -13.443200
H -12.273900 -10.396800 -12.953800
H -11.579100 -11.356000 -13.980900
