50
Fragment
H -20.484000 -7.692300 -26.203300
H -19.789200 -6.733100 -27.230400
C -19.700400 -7.554500 -26.741000
H -19.602500 -8.284400 -27.355800
N -18.533700 -7.483500 -25.884300
H -18.286800 -6.720700 -25.571600
H -18.112300 -11.258600 -22.988600
O -18.090500 -9.701400 -25.988600
H -17.954300 -9.700000 -22.933900
C -17.831400 -8.578200 -25.569200
C -17.494600 -10.538300 -22.843900
H -17.123600 -10.606400 -21.961500
O -16.860400 -12.795500 -24.409200
N -16.776800 -8.378100 -24.696300
H -16.687000 -7.631500 -24.279300
N -16.418700 -10.612700 -23.832000
C -16.350700 -11.709200 -24.632000
H -16.167900 -12.459500 -27.347800
C -15.837200 -9.440100 -24.503000
H -15.759100 -6.286900 -20.818600
N -15.592600 -11.410100 -25.752000
O -15.478000 -8.842400 -21.423000
C -15.388700 -10.069300 -25.854400
C -15.363000 -12.358400 -26.835200
H -15.312100 -5.110900 -21.752500
H -15.108700 -13.207600 -26.468500
C -15.057700 -5.960100 -21.385900
C -15.032000 -8.249200 -22.366700
O -14.942700 -9.476100 -26.798000
N -14.828100 -6.908400 -22.469100
H -14.661700 -12.031600 -27.402400
C -14.583500 -8.878400 -23.718000
H -14.252900 -5.859000 -20.873300
C -14.070000 -6.609300 -23.589100
N -14.002100 -7.705800 -24.389100
H -13.733700 -10.687000 -23.941800
N -13.644000 -9.940400 -23.524800
O -13.560300 -5.523000 -23.811900
H -13.297100 -7.712100 -26.259600
C -12.926200 -7.780200 -25.377100
C -12.589300 -9.740300 -22.651800
H -12.466400 -8.618500 -25.287100
O -12.330300 -8.617100 -22.232500
H -12.308400 -7.059900 -25.232500
H -12.133900 -11.597800 -22.649400
N -11.887000 -10.835000 -22.336800
H -10.818200 -10.034100 -20.865300
C -10.720300 -10.764000 -21.480100
H -10.631500 -11.585400 -20.990600
H -9.936700 -10.626200 -22.017700
50
Fragment
H -20.484000 -15.019700 -26.203300
H -19.789200 -14.060500 -27.230400
C -19.700400 -14.881900 -26.741000
H -19.602500 -15.611800 -27.355800
N -18.533700 -14.810900 -25.884300
H -18.286800 -14.048100 -25.571600
H -18.112300 -18.586000 -22.988600
O -18.090500 -17.028800 -25.988600
H -17.954300 -17.027400 -22.933900
C -17.831400 -15.905600 -25.569200
C -17.494600 -17.865700 -22.843900
H -17.123600 -17.933800 -21.961500
O -16.860400 -20.122900 -24.409200
N -16.776800 -15.705500 -24.696300
H -16.687000 -14.958900 -24.279300
N -16.418700 -17.940100 -23.832000
C -16.350700 -19.036600 -24.632000
H -16.167900 -19.786900 -27.347800
C -15.837200 -16.767500 -24.503000
H -15.759100 -13.614300 -20.818600
N -15.592600 -18.737500 -25.752000
O -15.478000 -16.169800 -21.423000
C -15.388700 -17.396700 -25.854400
C -15.363000 -19.685800 -26.835200
H -15.312100 -12.438300 -21.752500
H -15.108700 -20.535000 -26.468500
C -15.057700 -13.287500 -21.385900
C -15.032000 -15.576600 -22.366700
O -14.942700 -16.803500 -26.798000
N -14.828100 -14.235800 -22.469100
H -14.661700 -19.359000 -27.402400
C -14.583500 -16.205800 -23.718000
H -14.252900 -13.186400 -20.873300
C -14.070000 -13.936700 -23.589100
N -14.002100 -15.033200 -24.389100
H -13.733700 -18.014400 -23.941800
N -13.644000 -17.267800 -23.524800
O -13.560300 -12.850400 -23.811900
H -13.297100 -15.039500 -26.259600
C -12.926200 -15.107600 -25.377100
C -12.589300 -17.067700 -22.651800
H -12.466400 -15.945900 -25.287100
O -12.330300 -15.944500 -22.232500
H -12.308400 -14.387300 -25.232500
H -12.133900 -18.925200 -22.649400
N -11.887000 -18.162400 -22.336800
H -10.818200 -17.361500 -20.865300
C -10.720300 -18.091400 -21.480100
H -10.631500 -18.912800 -20.990600
H -9.936700 -17.953600 -22.017700
100
Fragment
H -20.484000 -7.692300 -26.203300
H -19.789200 -6.733100 -27.230400
C -19.700400 -7.554500 -26.741000
H -19.602500 -8.284400 -27.355800
N -18.533700 -7.483500 -25.884300
H -18.286800 -6.720700 -25.571600
H -18.112300 -11.258600 -22.988600
O -18.090500 -9.701400 -25.988600
H -17.954300 -9.700000 -22.933900
C -17.831400 -8.578200 -25.569200
C -17.494600 -10.538300 -22.843900
H -17.123600 -10.606400 -21.961500
O -16.860400 -12.795500 -24.409200
N -16.776800 -8.378100 -24.696300
H -16.687000 -7.631500 -24.279300
N -16.418700 -10.612700 -23.832000
C -16.350700 -11.709200 -24.632000
H -16.167900 -12.459500 -27.347800
C -15.837200 -9.440100 -24.503000
H -15.759100 -6.286900 -20.818600
N -15.592600 -11.410100 -25.752000
O -15.478000 -8.842400 -21.423000
C -15.388700 -10.069300 -25.854400
C -15.363000 -12.358400 -26.835200
H -15.312100 -5.110900 -21.752500
H -15.108700 -13.207600 -26.468500
C -15.057700 -5.960100 -21.385900
C -15.032000 -8.249200 -22.366700
O -14.942700 -9.476100 -26.798000
N -14.828100 -6.908400 -22.469100
H -14.661700 -12.031600 -27.402400
C -14.583500 -8.878400 -23.718000
H -14.252900 -5.859000 -20.873300
C -14.070000 -6.609300 -23.589100
N -14.002100 -7.705800 -24.389100
H -13.733700 -10.687000 -23.941800
N -13.644000 -9.940400 -23.524800
O -13.560300 -5.523000 -23.811900
H -13.297100 -7.712100 -26.259600
C -12.926200 -7.780200 -25.377100
C -12.589300 -9.740300 -22.651800
H -12.466400 -8.618500 -25.287100
O -12.330300 -8.617100 -22.232500
H -12.308400 -7.059900 -25.232500
H -12.133900 -11.597800 -22.649400
N -11.887000 -10.835000 -22.336800
H -10.818200 -10.034100 -20.865300
C -10.720300 -10.764000 -21.480100
H -10.631500 -11.585400 -20.990600
H -9.936700 -10.626200 -22.017700
H -20.484000 -15.019700 -26.203300
H -19.789200 -14.060500 -27.230400
C -19.700400 -14.881900 -26.741000
H -19.602500 -15.611800 -27.355800
N -18.533700 -14.810900 -25.884300
H -18.286800 -14.048100 -25.571600
H -18.112300 -18.586000 -22.988600
O -18.090500 -17.028800 -25.988600
H -17.954300 -17.027400 -22.933900
C -17.831400 -15.905600 -25.569200
C -17.494600 -17.865700 -22.843900
H -17.123600 -17.933800 -21.961500
O -16.860400 -20.122900 -24.409200
N -16.776800 -15.705500 -24.696300
H -16.687000 -14.958900 -24.279300
N -16.418700 -17.940100 -23.832000
C -16.350700 -19.036600 -24.632000
H -16.167900 -19.786900 -27.347800
C -15.837200 -16.767500 -24.503000
H -15.759100 -13.614300 -20.818600
N -15.592600 -18.737500 -25.752000
O -15.478000 -16.169800 -21.423000
C -15.388700 -17.396700 -25.854400
C -15.363000 -19.685800 -26.835200
H -15.312100 -12.438300 -21.752500
H -15.108700 -20.535000 -26.468500
C -15.057700 -13.287500 -21.385900
C -15.032000 -15.576600 -22.366700
O -14.942700 -16.803500 -26.798000
N -14.828100 -14.235800 -22.469100
H -14.661700 -19.359000 -27.402400
C -14.583500 -16.205800 -23.718000
H -14.252900 -13.186400 -20.873300
C -14.070000 -13.936700 -23.589100
N -14.002100 -15.033200 -24.389100
H -13.733700 -18.014400 -23.941800
N -13.644000 -17.267800 -23.524800
O -13.560300 -12.850400 -23.811900
H -13.297100 -15.039500 -26.259600
C -12.926200 -15.107600 -25.377100
C -12.589300 -17.067700 -22.651800
H -12.466400 -15.945900 -25.287100
O -12.330300 -15.944500 -22.232500
H -12.308400 -14.387300 -25.232500
H -12.133900 -18.925200 -22.649400
N -11.887000 -18.162400 -22.336800
H -10.818200 -17.361500 -20.865300
C -10.720300 -18.091400 -21.480100
H -10.631500 -18.912800 -20.990600
H -9.936700 -17.953600 -22.017700
