50
Fragment
H -20.484000 -7.692300 -26.203300
H -19.789200 -6.733100 -27.230400
C -19.700400 -7.554500 -26.741000
H -19.602500 -8.284400 -27.355800
N -18.533700 -7.483500 -25.884300
H -18.286800 -6.720700 -25.571600
H -18.112300 -11.258600 -22.988600
O -18.090500 -9.701400 -25.988600
H -17.954300 -9.700000 -22.933900
C -17.831400 -8.578200 -25.569200
C -17.494600 -10.538300 -22.843900
H -17.123600 -10.606400 -21.961500
O -16.860400 -12.795500 -24.409200
N -16.776800 -8.378100 -24.696300
H -16.687000 -7.631500 -24.279300
N -16.418700 -10.612700 -23.832000
C -16.350700 -11.709200 -24.632000
H -16.167900 -12.459500 -27.347800
C -15.837200 -9.440100 -24.503000
H -15.759100 -6.286900 -20.818600
N -15.592600 -11.410100 -25.752000
O -15.478000 -8.842400 -21.423000
C -15.388700 -10.069300 -25.854400
C -15.363000 -12.358400 -26.835200
H -15.312100 -5.110900 -21.752500
H -15.108700 -13.207600 -26.468500
C -15.057700 -5.960100 -21.385900
C -15.032000 -8.249200 -22.366700
O -14.942700 -9.476100 -26.798000
N -14.828100 -6.908400 -22.469100
H -14.661700 -12.031600 -27.402400
C -14.583500 -8.878400 -23.718000
H -14.252900 -5.859000 -20.873300
C -14.070000 -6.609300 -23.589100
N -14.002100 -7.705800 -24.389100
H -13.733700 -10.687000 -23.941800
N -13.644000 -9.940400 -23.524800
O -13.560300 -5.523000 -23.811900
H -13.297100 -7.712100 -26.259600
C -12.926200 -7.780200 -25.377100
C -12.589300 -9.740300 -22.651800
H -12.466400 -8.618500 -25.287100
O -12.330300 -8.617100 -22.232500
H -12.308400 -7.059900 -25.232500
H -12.133900 -11.597800 -22.649400
N -11.887000 -10.835000 -22.336800
H -10.818200 -10.034100 -20.865300
C -10.720300 -10.764000 -21.480100
H -10.631500 -11.585400 -20.990600
H -9.936700 -10.626200 -22.017700
50
Fragment
H -18.841600 -14.289900 -34.240200
H -18.146800 -15.249100 -35.267300
C -18.058000 -14.427700 -34.777800
H -17.960100 -13.697800 -35.392600
N -16.891300 -14.498700 -33.921100
H -16.644400 -15.261500 -33.608500
H -16.469900 -10.723600 -31.025400
O -16.448100 -12.280800 -34.025400
H -16.311900 -12.282200 -30.970800
C -16.189000 -13.404000 -33.606100
C -15.852200 -11.443900 -30.880800
H -15.481200 -11.375800 -29.998300
O -15.218000 -9.186700 -32.446000
N -15.134300 -13.604100 -32.733100
H -15.044600 -14.350700 -32.316100
N -14.776300 -11.369500 -31.868800
C -14.708300 -10.273000 -32.668800
H -14.525400 -9.522700 -35.384600
C -14.194800 -12.542100 -32.539900
H -14.116600 -15.695300 -28.855500
N -13.950200 -10.572100 -33.788800
O -13.835600 -13.139800 -29.459900
C -13.746300 -11.912900 -33.891200
C -13.720600 -9.623800 -34.872000
H -13.669600 -16.871300 -29.789400
H -13.466300 -8.774600 -34.505400
C -13.415300 -16.022100 -29.422700
C -13.389600 -13.733000 -30.403500
O -13.300300 -12.506100 -34.834900
N -13.185700 -15.073800 -30.505900
H -13.019300 -9.950600 -35.439300
C -12.941100 -13.103800 -31.754900
H -12.610400 -16.123200 -28.910100
C -12.427600 -15.372900 -31.625900
N -12.359600 -14.276400 -32.425900
H -12.091300 -11.295200 -31.978600
N -12.001600 -12.041800 -31.561600
O -11.917900 -16.459200 -31.848700
H -11.654700 -14.270100 -34.296400
C -11.283700 -14.202000 -33.414000
C -10.946900 -12.241900 -30.688700
H -10.824000 -13.363700 -33.324000
O -10.687800 -13.365100 -30.269300
H -10.666000 -14.922300 -33.269300
H -10.491500 -10.384400 -30.686300
N -10.244600 -11.147200 -30.373600
H -9.175800 -11.948100 -28.902100
C -9.077900 -11.218200 -29.516900
H -8.989100 -10.396800 -29.027500
H -8.294300 -11.356000 -30.054600
100
Fragment
H -20.484000 -7.692300 -26.203300
H -19.789200 -6.733100 -27.230400
C -19.700400 -7.554500 -26.741000
H -19.602500 -8.284400 -27.355800
N -18.533700 -7.483500 -25.884300
H -18.286800 -6.720700 -25.571600
H -18.112300 -11.258600 -22.988600
O -18.090500 -9.701400 -25.988600
H -17.954300 -9.700000 -22.933900
C -17.831400 -8.578200 -25.569200
C -17.494600 -10.538300 -22.843900
H -17.123600 -10.606400 -21.961500
O -16.860400 -12.795500 -24.409200
N -16.776800 -8.378100 -24.696300
H -16.687000 -7.631500 -24.279300
N -16.418700 -10.612700 -23.832000
C -16.350700 -11.709200 -24.632000
H -16.167900 -12.459500 -27.347800
C -15.837200 -9.440100 -24.503000
H -15.759100 -6.286900 -20.818600
N -15.592600 -11.410100 -25.752000
O -15.478000 -8.842400 -21.423000
C -15.388700 -10.069300 -25.854400
C -15.363000 -12.358400 -26.835200
H -15.312100 -5.110900 -21.752500
H -15.108700 -13.207600 -26.468500
C -15.057700 -5.960100 -21.385900
C -15.032000 -8.249200 -22.366700
O -14.942700 -9.476100 -26.798000
N -14.828100 -6.908400 -22.469100
H -14.661700 -12.031600 -27.402400
C -14.583500 -8.878400 -23.718000
H -14.252900 -5.859000 -20.873300
C -14.070000 -6.609300 -23.589100
N -14.002100 -7.705800 -24.389100
H -13.733700 -10.687000 -23.941800
N -13.644000 -9.940400 -23.524800
O -13.560300 -5.523000 -23.811900
H -13.297100 -7.712100 -26.259600
C -12.926200 -7.780200 -25.377100
C -12.589300 -9.740300 -22.651800
H -12.466400 -8.618500 -25.287100
O -12.330300 -8.617100 -22.232500
H -12.308400 -7.059900 -25.232500
H -12.133900 -11.597800 -22.649400
N -11.887000 -10.835000 -22.336800
H -10.818200 -10.034100 -20.865300
C -10.720300 -10.764000 -21.480100
H -10.631500 -11.585400 -20.990600
H -9.936700 -10.626200 -22.017700
H -18.841600 -14.289900 -34.240200
H -18.146800 -15.249100 -35.267300
C -18.058000 -14.427700 -34.777800
H -17.960100 -13.697800 -35.392600
N -16.891300 -14.498700 -33.921100
H -16.644400 -15.261500 -33.608500
H -16.469900 -10.723600 -31.025400
O -16.448100 -12.280800 -34.025400
H -16.311900 -12.282200 -30.970800
C -16.189000 -13.404000 -33.606100
C -15.852200 -11.443900 -30.880800
H -15.481200 -11.375800 -29.998300
O -15.218000 -9.186700 -32.446000
N -15.134300 -13.604100 -32.733100
H -15.044600 -14.350700 -32.316100
N -14.776300 -11.369500 -31.868800
C -14.708300 -10.273000 -32.668800
H -14.525400 -9.522700 -35.384600
C -14.194800 -12.542100 -32.539900
H -14.116600 -15.695300 -28.855500
N -13.950200 -10.572100 -33.788800
O -13.835600 -13.139800 -29.459900
C -13.746300 -11.912900 -33.891200
C -13.720600 -9.623800 -34.872000
H -13.669600 -16.871300 -29.789400
H -13.466300 -8.774600 -34.505400
C -13.415300 -16.022100 -29.422700
C -13.389600 -13.733000 -30.403500
O -13.300300 -12.506100 -34.834900
N -13.185700 -15.073800 -30.505900
H -13.019300 -9.950600 -35.439300
C -12.941100 -13.103800 -31.754900
H -12.610400 -16.123200 -28.910100
C -12.427600 -15.372900 -31.625900
N -12.359600 -14.276400 -32.425900
H -12.091300 -11.295200 -31.978600
N -12.001600 -12.041800 -31.561600
O -11.917900 -16.459200 -31.848700
H -11.654700 -14.270100 -34.296400
C -11.283700 -14.202000 -33.414000
C -10.946900 -12.241900 -30.688700
H -10.824000 -13.363700 -33.324000
O -10.687800 -13.365100 -30.269300
H -10.666000 -14.922300 -33.269300
H -10.491500 -10.384400 -30.686300
N -10.244600 -11.147200 -30.373600
H -9.175800 -11.948100 -28.902100
C -9.077900 -11.218200 -29.516900
H -8.989100 -10.396800 -29.027500
H -8.294300 -11.356000 -30.054600
