50
Fragment
H -20.484000 -7.692300 -26.203300
H -19.789200 -6.733100 -27.230400
C -19.700400 -7.554500 -26.741000
H -19.602500 -8.284400 -27.355800
N -18.533700 -7.483500 -25.884300
H -18.286800 -6.720700 -25.571600
H -18.112300 -11.258600 -22.988600
O -18.090500 -9.701400 -25.988600
H -17.954300 -9.700000 -22.933900
C -17.831400 -8.578200 -25.569200
C -17.494600 -10.538300 -22.843900
H -17.123600 -10.606400 -21.961500
O -16.860400 -12.795500 -24.409200
N -16.776800 -8.378100 -24.696300
H -16.687000 -7.631500 -24.279300
N -16.418700 -10.612700 -23.832000
C -16.350700 -11.709200 -24.632000
H -16.167900 -12.459500 -27.347800
C -15.837200 -9.440100 -24.503000
H -15.759100 -6.286900 -20.818600
N -15.592600 -11.410100 -25.752000
O -15.478000 -8.842400 -21.423000
C -15.388700 -10.069300 -25.854400
C -15.363000 -12.358400 -26.835200
H -15.312100 -5.110900 -21.752500
H -15.108700 -13.207600 -26.468500
C -15.057700 -5.960100 -21.385900
C -15.032000 -8.249200 -22.366700
O -14.942700 -9.476100 -26.798000
N -14.828100 -6.908400 -22.469100
H -14.661700 -12.031600 -27.402400
C -14.583500 -8.878400 -23.718000
H -14.252900 -5.859000 -20.873300
C -14.070000 -6.609300 -23.589100
N -14.002100 -7.705800 -24.389100
H -13.733700 -10.687000 -23.941800
N -13.644000 -9.940400 -23.524800
O -13.560300 -5.523000 -23.811900
H -13.297100 -7.712100 -26.259600
C -12.926200 -7.780200 -25.377100
C -12.589300 -9.740300 -22.651800
H -12.466400 -8.618500 -25.287100
O -12.330300 -8.617100 -22.232500
H -12.308400 -7.059900 -25.232500
H -12.133900 -11.597800 -22.649400
N -11.887000 -10.835000 -22.336800
H -10.818200 -10.034100 -20.865300
C -10.720300 -10.764000 -21.480100
H -10.631500 -11.585400 -20.990600
H -9.936700 -10.626200 -22.017700
50
Fragment
H -14.071400 -10.626200 -18.166500
H -13.376600 -11.585400 -19.193600
C -13.287800 -10.764000 -18.704100
H -13.189900 -10.034100 -19.319000
N -12.121100 -10.835000 -17.847400
H -11.874200 -11.597800 -17.534800
H -11.699700 -7.059900 -14.951700
O -11.677800 -8.617100 -17.951700
H -11.541700 -8.618500 -14.897100
C -11.418800 -9.740300 -17.532400
C -11.081900 -7.780200 -14.807100
H -10.711000 -7.712100 -13.924600
O -10.447800 -5.523000 -16.372300
N -10.364100 -9.940400 -16.659400
H -10.274400 -10.687000 -16.242500
N -10.006100 -7.705800 -15.795100
C -9.938100 -6.609300 -16.595100
H -9.755200 -5.859000 -19.310900
C -9.424600 -8.878400 -16.466200
H -9.346400 -12.031600 -12.781800
N -9.180000 -6.908400 -17.715100
O -9.065400 -9.476100 -13.386200
C -8.976100 -8.249200 -17.817500
C -8.950400 -5.960100 -18.798300
H -8.899400 -13.207600 -13.715700
H -8.696000 -5.110900 -18.431700
C -8.645100 -12.358400 -13.349000
C -8.619400 -10.069300 -14.329900
O -8.530100 -8.842400 -18.761200
N -8.415500 -11.410100 -14.432200
H -8.249000 -6.286900 -19.365600
C -8.170900 -9.440100 -15.681200
H -7.840200 -12.459500 -12.836400
C -7.657400 -11.709200 -15.552300
N -7.589400 -10.612700 -16.352200
H -7.321100 -7.631500 -15.904900
N -7.231400 -8.378100 -15.488000
O -7.147700 -12.795500 -15.775000
H -6.884500 -10.606400 -18.222700
C -6.513500 -10.538300 -17.340300
C -6.176700 -8.578200 -14.615000
H -6.053800 -9.700000 -17.250300
O -5.917600 -9.701400 -14.195600
H -5.895800 -11.258600 -17.195600
H -5.721300 -6.720700 -14.612600
N -5.474400 -7.483500 -14.300000
H -4.405600 -8.284400 -12.828400
C -4.307700 -7.554500 -13.443200
H -4.218900 -6.733100 -12.953800
H -3.524100 -7.692300 -13.980900
100
Fragment
H -20.484000 -7.692300 -26.203300
H -19.789200 -6.733100 -27.230400
C -19.700400 -7.554500 -26.741000
H -19.602500 -8.284400 -27.355800
N -18.533700 -7.483500 -25.884300
H -18.286800 -6.720700 -25.571600
H -18.112300 -11.258600 -22.988600
O -18.090500 -9.701400 -25.988600
H -17.954300 -9.700000 -22.933900
C -17.831400 -8.578200 -25.569200
C -17.494600 -10.538300 -22.843900
H -17.123600 -10.606400 -21.961500
O -16.860400 -12.795500 -24.409200
N -16.776800 -8.378100 -24.696300
H -16.687000 -7.631500 -24.279300
N -16.418700 -10.612700 -23.832000
C -16.350700 -11.709200 -24.632000
H -16.167900 -12.459500 -27.347800
C -15.837200 -9.440100 -24.503000
H -15.759100 -6.286900 -20.818600
N -15.592600 -11.410100 -25.752000
O -15.478000 -8.842400 -21.423000
C -15.388700 -10.069300 -25.854400
C -15.363000 -12.358400 -26.835200
H -15.312100 -5.110900 -21.752500
H -15.108700 -13.207600 -26.468500
C -15.057700 -5.960100 -21.385900
C -15.032000 -8.249200 -22.366700
O -14.942700 -9.476100 -26.798000
N -14.828100 -6.908400 -22.469100
H -14.661700 -12.031600 -27.402400
C -14.583500 -8.878400 -23.718000
H -14.252900 -5.859000 -20.873300
C -14.070000 -6.609300 -23.589100
N -14.002100 -7.705800 -24.389100
H -13.733700 -10.687000 -23.941800
N -13.644000 -9.940400 -23.524800
O -13.560300 -5.523000 -23.811900
H -13.297100 -7.712100 -26.259600
C -12.926200 -7.780200 -25.377100
C -12.589300 -9.740300 -22.651800
H -12.466400 -8.618500 -25.287100
O -12.330300 -8.617100 -22.232500
H -12.308400 -7.059900 -25.232500
H -12.133900 -11.597800 -22.649400
N -11.887000 -10.835000 -22.336800
H -10.818200 -10.034100 -20.865300
C -10.720300 -10.764000 -21.480100
H -10.631500 -11.585400 -20.990600
H -9.936700 -10.626200 -22.017700
H -14.071400 -10.626200 -18.166500
H -13.376600 -11.585400 -19.193600
C -13.287800 -10.764000 -18.704100
H -13.189900 -10.034100 -19.319000
N -12.121100 -10.835000 -17.847400
H -11.874200 -11.597800 -17.534800
H -11.699700 -7.059900 -14.951700
O -11.677800 -8.617100 -17.951700
H -11.541700 -8.618500 -14.897100
C -11.418800 -9.740300 -17.532400
C -11.081900 -7.780200 -14.807100
H -10.711000 -7.712100 -13.924600
O -10.447800 -5.523000 -16.372300
N -10.364100 -9.940400 -16.659400
H -10.274400 -10.687000 -16.242500
N -10.006100 -7.705800 -15.795100
C -9.938100 -6.609300 -16.595100
H -9.755200 -5.859000 -19.310900
C -9.424600 -8.878400 -16.466200
H -9.346400 -12.031600 -12.781800
N -9.180000 -6.908400 -17.715100
O -9.065400 -9.476100 -13.386200
C -8.976100 -8.249200 -17.817500
C -8.950400 -5.960100 -18.798300
H -8.899400 -13.207600 -13.715700
H -8.696000 -5.110900 -18.431700
C -8.645100 -12.358400 -13.349000
C -8.619400 -10.069300 -14.329900
O -8.530100 -8.842400 -18.761200
N -8.415500 -11.410100 -14.432200
H -8.249000 -6.286900 -19.365600
C -8.170900 -9.440100 -15.681200
H -7.840200 -12.459500 -12.836400
C -7.657400 -11.709200 -15.552300
N -7.589400 -10.612700 -16.352200
H -7.321100 -7.631500 -15.904900
N -7.231400 -8.378100 -15.488000
O -7.147700 -12.795500 -15.775000
H -6.884500 -10.606400 -18.222700
C -6.513500 -10.538300 -17.340300
C -6.176700 -8.578200 -14.615000
H -6.053800 -9.700000 -17.250300
O -5.917600 -9.701400 -14.195600
H -5.895800 -11.258600 -17.195600
H -5.721300 -6.720700 -14.612600
N -5.474400 -7.483500 -14.300000
H -4.405600 -8.284400 -12.828400
C -4.307700 -7.554500 -13.443200
H -4.218900 -6.733100 -12.953800
H -3.524100 -7.692300 -13.980900
