50
Fragment
H -20.484000 -7.692300 -26.203300
H -19.789200 -6.733100 -27.230400
C -19.700400 -7.554500 -26.741000
H -19.602500 -8.284400 -27.355800
N -18.533700 -7.483500 -25.884300
H -18.286800 -6.720700 -25.571600
H -18.112300 -11.258600 -22.988600
O -18.090500 -9.701400 -25.988600
H -17.954300 -9.700000 -22.933900
C -17.831400 -8.578200 -25.569200
C -17.494600 -10.538300 -22.843900
H -17.123600 -10.606400 -21.961500
O -16.860400 -12.795500 -24.409200
N -16.776800 -8.378100 -24.696300
H -16.687000 -7.631500 -24.279300
N -16.418700 -10.612700 -23.832000
C -16.350700 -11.709200 -24.632000
H -16.167900 -12.459500 -27.347800
C -15.837200 -9.440100 -24.503000
H -15.759100 -6.286900 -20.818600
N -15.592600 -11.410100 -25.752000
O -15.478000 -8.842400 -21.423000
C -15.388700 -10.069300 -25.854400
C -15.363000 -12.358400 -26.835200
H -15.312100 -5.110900 -21.752500
H -15.108700 -13.207600 -26.468500
C -15.057700 -5.960100 -21.385900
C -15.032000 -8.249200 -22.366700
O -14.942700 -9.476100 -26.798000
N -14.828100 -6.908400 -22.469100
H -14.661700 -12.031600 -27.402400
C -14.583500 -8.878400 -23.718000
H -14.252900 -5.859000 -20.873300
C -14.070000 -6.609300 -23.589100
N -14.002100 -7.705800 -24.389100
H -13.733700 -10.687000 -23.941800
N -13.644000 -9.940400 -23.524800
O -13.560300 -5.523000 -23.811900
H -13.297100 -7.712100 -26.259600
C -12.926200 -7.780200 -25.377100
C -12.589300 -9.740300 -22.651800
H -12.466400 -8.618500 -25.287100
O -12.330300 -8.617100 -22.232500
H -12.308400 -7.059900 -25.232500
H -12.133900 -11.597800 -22.649400
N -11.887000 -10.835000 -22.336800
H -10.818200 -10.034100 -20.865300
C -10.720300 -10.764000 -21.480100
H -10.631500 -11.585400 -20.990600
H -9.936700 -10.626200 -22.017700
50
Fragment
H -12.429000 -11.356000 -26.203300
H -11.734200 -10.396800 -27.230400
C -11.645400 -11.218200 -26.741000
H -11.547500 -11.948100 -27.355800
N -10.478700 -11.147200 -25.884300
H -10.231800 -10.384400 -25.571600
H -10.057300 -14.922300 -22.988600
O -10.035400 -13.365100 -25.988600
H -9.899300 -13.363700 -22.933900
C -9.776400 -12.241900 -25.569200
C -9.439500 -14.202000 -22.843900
H -9.068600 -14.270100 -21.961500
O -8.805300 -16.459200 -24.409200
N -8.721700 -12.041800 -24.696300
H -8.632000 -11.295200 -24.279300
N -8.363600 -14.276400 -23.832000
C -8.295700 -15.372900 -24.632000
H -8.112800 -16.123200 -27.347800
C -7.782200 -13.103800 -24.503000
H -7.704000 -9.950600 -20.818600
N -7.537600 -15.073800 -25.752000
O -7.422900 -12.506100 -21.423000
C -7.333600 -13.733000 -25.854400
C -7.308000 -16.022100 -26.835200
H -7.257000 -8.774600 -21.752500
H -7.053600 -16.871300 -26.468500
C -7.002600 -9.623800 -21.385900
C -6.977000 -11.912900 -22.366700
O -6.887700 -13.139800 -26.798000
N -6.773100 -10.572100 -22.469100
H -6.606600 -15.695300 -27.402400
C -6.528500 -12.542100 -23.718000
H -6.197800 -9.522700 -20.873300
C -6.015000 -10.273000 -23.589100
N -5.947000 -11.369500 -24.389100
H -5.678700 -14.350700 -23.941800
N -5.588900 -13.604100 -23.524800
O -5.505300 -9.186700 -23.811900
H -5.242100 -11.375800 -26.259600
C -4.871100 -11.443900 -25.377100
C -4.534300 -13.404000 -22.651800
H -4.411400 -12.282200 -25.287100
O -4.275200 -12.280800 -22.232500
H -4.253400 -10.723600 -25.232500
H -4.078800 -15.261500 -22.649400
N -3.832000 -14.498700 -22.336800
H -2.763200 -13.697800 -20.865300
C -2.665200 -14.427700 -21.480100
H -2.576500 -15.249100 -20.990600
H -1.881600 -14.289900 -22.017700
100
Fragment
H -20.484000 -7.692300 -26.203300
H -19.789200 -6.733100 -27.230400
C -19.700400 -7.554500 -26.741000
H -19.602500 -8.284400 -27.355800
N -18.533700 -7.483500 -25.884300
H -18.286800 -6.720700 -25.571600
H -18.112300 -11.258600 -22.988600
O -18.090500 -9.701400 -25.988600
H -17.954300 -9.700000 -22.933900
C -17.831400 -8.578200 -25.569200
C -17.494600 -10.538300 -22.843900
H -17.123600 -10.606400 -21.961500
O -16.860400 -12.795500 -24.409200
N -16.776800 -8.378100 -24.696300
H -16.687000 -7.631500 -24.279300
N -16.418700 -10.612700 -23.832000
C -16.350700 -11.709200 -24.632000
H -16.167900 -12.459500 -27.347800
C -15.837200 -9.440100 -24.503000
H -15.759100 -6.286900 -20.818600
N -15.592600 -11.410100 -25.752000
O -15.478000 -8.842400 -21.423000
C -15.388700 -10.069300 -25.854400
C -15.363000 -12.358400 -26.835200
H -15.312100 -5.110900 -21.752500
H -15.108700 -13.207600 -26.468500
C -15.057700 -5.960100 -21.385900
C -15.032000 -8.249200 -22.366700
O -14.942700 -9.476100 -26.798000
N -14.828100 -6.908400 -22.469100
H -14.661700 -12.031600 -27.402400
C -14.583500 -8.878400 -23.718000
H -14.252900 -5.859000 -20.873300
C -14.070000 -6.609300 -23.589100
N -14.002100 -7.705800 -24.389100
H -13.733700 -10.687000 -23.941800
N -13.644000 -9.940400 -23.524800
O -13.560300 -5.523000 -23.811900
H -13.297100 -7.712100 -26.259600
C -12.926200 -7.780200 -25.377100
C -12.589300 -9.740300 -22.651800
H -12.466400 -8.618500 -25.287100
O -12.330300 -8.617100 -22.232500
H -12.308400 -7.059900 -25.232500
H -12.133900 -11.597800 -22.649400
N -11.887000 -10.835000 -22.336800
H -10.818200 -10.034100 -20.865300
C -10.720300 -10.764000 -21.480100
H -10.631500 -11.585400 -20.990600
H -9.936700 -10.626200 -22.017700
H -12.429000 -11.356000 -26.203300
H -11.734200 -10.396800 -27.230400
C -11.645400 -11.218200 -26.741000
H -11.547500 -11.948100 -27.355800
N -10.478700 -11.147200 -25.884300
H -10.231800 -10.384400 -25.571600
H -10.057300 -14.922300 -22.988600
O -10.035400 -13.365100 -25.988600
H -9.899300 -13.363700 -22.933900
C -9.776400 -12.241900 -25.569200
C -9.439500 -14.202000 -22.843900
H -9.068600 -14.270100 -21.961500
O -8.805300 -16.459200 -24.409200
N -8.721700 -12.041800 -24.696300
H -8.632000 -11.295200 -24.279300
N -8.363600 -14.276400 -23.832000
C -8.295700 -15.372900 -24.632000
H -8.112800 -16.123200 -27.347800
C -7.782200 -13.103800 -24.503000
H -7.704000 -9.950600 -20.818600
N -7.537600 -15.073800 -25.752000
O -7.422900 -12.506100 -21.423000
C -7.333600 -13.733000 -25.854400
C -7.308000 -16.022100 -26.835200
H -7.257000 -8.774600 -21.752500
H -7.053600 -16.871300 -26.468500
C -7.002600 -9.623800 -21.385900
C -6.977000 -11.912900 -22.366700
O -6.887700 -13.139800 -26.798000
N -6.773100 -10.572100 -22.469100
H -6.606600 -15.695300 -27.402400
C -6.528500 -12.542100 -23.718000
H -6.197800 -9.522700 -20.873300
C -6.015000 -10.273000 -23.589100
N -5.947000 -11.369500 -24.389100
H -5.678700 -14.350700 -23.941800
N -5.588900 -13.604100 -23.524800
O -5.505300 -9.186700 -23.811900
H -5.242100 -11.375800 -26.259600
C -4.871100 -11.443900 -25.377100
C -4.534300 -13.404000 -22.651800
H -4.411400 -12.282200 -25.287100
O -4.275200 -12.280800 -22.232500
H -4.253400 -10.723600 -25.232500
H -4.078800 -15.261500 -22.649400
N -3.832000 -14.498700 -22.336800
H -2.763200 -13.697800 -20.865300
C -2.665200 -14.427700 -21.480100
H -2.576500 -15.249100 -20.990600
H -1.881600 -14.289900 -22.017700
