43
Fragment
O -11.614800 -14.949700 -43.425700
N -11.317800 -13.773400 -43.235900
O -11.282300 -12.928900 -44.127700
H -11.178300 -15.203900 -41.048200
O -11.090500 -14.704100 -37.461800
C -10.975000 -13.357200 -41.871000
C -10.966600 -14.316400 -40.870300
H -10.653700 -11.408000 -42.315600
C -10.644800 -12.031000 -41.625900
C -10.631600 -13.900400 -39.599000
N -10.594100 -14.937100 -38.557100
H -10.409500 -10.252700 -31.619900
C -10.303500 -11.649000 -40.346200
C -10.293100 -12.571000 -39.300600
O -10.084700 -16.011000 -38.873700
H -10.077000 -10.763000 -40.178000
H -10.010900 -9.032400 -30.716600
H -10.004200 -11.625800 -30.064400
O -9.964800 -10.759000 -29.766900
N -9.902000 -12.266100 -37.965300
C -9.795900 -9.954100 -30.930700
N -9.686600 -11.032000 -37.804500
H -9.537600 -12.427200 -35.496000
C -9.329300 -10.666800 -36.497000
C -9.321800 -11.529600 -35.383600
H -9.026100 -11.647500 -33.422600
C -9.001000 -11.062300 -34.145500
H -8.999400 -8.764900 -37.053400
C -8.987700 -9.342000 -36.323400
C -8.626300 -9.698300 -33.921800
C -8.626000 -8.858800 -35.075100
C -8.370800 -10.028600 -31.458900
N -8.276100 -9.272900 -32.700200
O -8.262500 -6.798100 -36.039500
N -8.243700 -7.462800 -35.008700
H -8.146000 -10.965300 -31.637400
H -8.090700 -8.457000 -32.642000
H -8.081900 -7.741100 -29.842500
O -7.919300 -6.962700 -33.923500
H -7.467500 -9.827800 -29.620500
O -7.441500 -8.030500 -30.424600
C -7.338800 -9.446500 -30.503800
H -6.449200 -9.687300 -30.806100
43
Fragment
H -12.956700 -8.422200 -27.597800
C -12.067100 -8.663000 -27.900100
O -11.964400 -10.079000 -27.979400
H -11.938400 -8.281700 -28.783400
O -11.486600 -11.146800 -24.480400
H -11.324100 -10.368400 -28.561500
H -11.315200 -9.652500 -25.762000
H -11.260000 -7.144100 -26.766500
N -11.162200 -10.646700 -23.395300
O -11.143400 -11.311400 -22.364400
N -11.129800 -8.836500 -25.703800
C -11.035100 -8.080900 -26.945000
C -10.779900 -9.250700 -23.328900
C -10.779600 -8.411200 -24.482200
C -10.418200 -8.767500 -22.080600
H -10.406500 -9.344600 -21.350500
C -10.404900 -7.047200 -24.258500
H -10.379800 -6.461900 -24.981300
C -10.084100 -6.579900 -23.020300
C -10.076600 -7.442600 -21.906900
H -9.868300 -5.682300 -22.908000
N -9.719300 -7.077500 -20.599500
C -9.610000 -8.155400 -27.473200
N -9.503900 -5.843400 -20.438700
O -9.441100 -7.350500 -28.637000
H -9.401700 -6.483700 -28.339500
H -9.395000 -9.077100 -27.687400
H -9.328900 -7.346500 -18.225900
O -9.321200 -2.098400 -19.530300
C -9.112900 -5.538500 -19.103300
C -9.102500 -6.460400 -18.057700
H -8.996400 -7.856800 -26.784000
N -8.811800 -3.172400 -19.846800
C -8.774300 -4.209100 -18.804900
C -8.761100 -6.078500 -16.778100
H -8.752300 -6.701500 -16.088300
C -8.439300 -3.793000 -17.533600
C -8.430900 -4.752300 -16.533000
O -8.315400 -3.405400 -20.942100
H -8.227600 -2.905600 -17.355700
O -8.123600 -5.180600 -14.276300
N -8.088200 -4.336100 -15.168100
O -7.791100 -3.159800 -14.978300
86
Fragment
O -11.614800 -14.949700 -43.425700
N -11.317800 -13.773400 -43.235900
O -11.282300 -12.928900 -44.127700
H -11.178300 -15.203900 -41.048200
O -11.090500 -14.704100 -37.461800
C -10.975000 -13.357200 -41.871000
C -10.966600 -14.316400 -40.870300
H -10.653700 -11.408000 -42.315600
C -10.644800 -12.031000 -41.625900
C -10.631600 -13.900400 -39.599000
N -10.594100 -14.937100 -38.557100
H -10.409500 -10.252700 -31.619900
C -10.303500 -11.649000 -40.346200
C -10.293100 -12.571000 -39.300600
O -10.084700 -16.011000 -38.873700
H -10.077000 -10.763000 -40.178000
H -10.010900 -9.032400 -30.716600
H -10.004200 -11.625800 -30.064400
O -9.964800 -10.759000 -29.766900
N -9.902000 -12.266100 -37.965300
C -9.795900 -9.954100 -30.930700
N -9.686600 -11.032000 -37.804500
H -9.537600 -12.427200 -35.496000
C -9.329300 -10.666800 -36.497000
C -9.321800 -11.529600 -35.383600
H -9.026100 -11.647500 -33.422600
C -9.001000 -11.062300 -34.145500
H -8.999400 -8.764900 -37.053400
C -8.987700 -9.342000 -36.323400
C -8.626300 -9.698300 -33.921800
C -8.626000 -8.858800 -35.075100
C -8.370800 -10.028600 -31.458900
N -8.276100 -9.272900 -32.700200
O -8.262500 -6.798100 -36.039500
N -8.243700 -7.462800 -35.008700
H -8.146000 -10.965300 -31.637400
H -8.090700 -8.457000 -32.642000
H -8.081900 -7.741100 -29.842500
O -7.919300 -6.962700 -33.923500
H -7.467500 -9.827800 -29.620500
O -7.441500 -8.030500 -30.424600
C -7.338800 -9.446500 -30.503800
H -6.449200 -9.687300 -30.806100
H -12.956700 -8.422200 -27.597800
C -12.067100 -8.663000 -27.900100
O -11.964400 -10.079000 -27.979400
H -11.938400 -8.281700 -28.783400
O -11.486600 -11.146800 -24.480400
H -11.324100 -10.368400 -28.561500
H -11.315200 -9.652500 -25.762000
H -11.260000 -7.144100 -26.766500
N -11.162200 -10.646700 -23.395300
O -11.143400 -11.311400 -22.364400
N -11.129800 -8.836500 -25.703800
C -11.035100 -8.080900 -26.945000
C -10.779900 -9.250700 -23.328900
C -10.779600 -8.411200 -24.482200
C -10.418200 -8.767500 -22.080600
H -10.406500 -9.344600 -21.350500
C -10.404900 -7.047200 -24.258500
H -10.379800 -6.461900 -24.981300
C -10.084100 -6.579900 -23.020300
C -10.076600 -7.442600 -21.906900
H -9.868300 -5.682300 -22.908000
N -9.719300 -7.077500 -20.599500
C -9.610000 -8.155400 -27.473200
N -9.503900 -5.843400 -20.438700
O -9.441100 -7.350500 -28.637000
H -9.401700 -6.483700 -28.339500
H -9.395000 -9.077100 -27.687400
H -9.328900 -7.346500 -18.225900
O -9.321200 -2.098400 -19.530300
C -9.112900 -5.538500 -19.103300
C -9.102500 -6.460400 -18.057700
H -8.996400 -7.856800 -26.784000
N -8.811800 -3.172400 -19.846800
C -8.774300 -4.209100 -18.804900
C -8.761100 -6.078500 -16.778100
H -8.752300 -6.701500 -16.088300
C -8.439300 -3.793000 -17.533600
C -8.430900 -4.752300 -16.533000
O -8.315400 -3.405400 -20.942100
H -8.227600 -2.905600 -17.355700
O -8.123600 -5.180600 -14.276300
N -8.088200 -4.336100 -15.168100
O -7.791100 -3.159800 -14.978300
