43
Fragment
O -11.614800 -14.949700 -43.425700
N -11.317800 -13.773400 -43.235900
O -11.282300 -12.928900 -44.127700
H -11.178300 -15.203900 -41.048200
O -11.090500 -14.704100 -37.461800
C -10.975000 -13.357200 -41.871000
C -10.966600 -14.316400 -40.870300
H -10.653700 -11.408000 -42.315600
C -10.644800 -12.031000 -41.625900
C -10.631600 -13.900400 -39.599000
N -10.594100 -14.937100 -38.557100
H -10.409500 -10.252700 -31.619900
C -10.303500 -11.649000 -40.346200
C -10.293100 -12.571000 -39.300600
O -10.084700 -16.011000 -38.873700
H -10.077000 -10.763000 -40.178000
H -10.010900 -9.032400 -30.716600
H -10.004200 -11.625800 -30.064400
O -9.964800 -10.759000 -29.766900
N -9.902000 -12.266100 -37.965300
C -9.795900 -9.954100 -30.930700
N -9.686600 -11.032000 -37.804500
H -9.537600 -12.427200 -35.496000
C -9.329300 -10.666800 -36.497000
C -9.321800 -11.529600 -35.383600
H -9.026100 -11.647500 -33.422600
C -9.001000 -11.062300 -34.145500
H -8.999400 -8.764900 -37.053400
C -8.987700 -9.342000 -36.323400
C -8.626300 -9.698300 -33.921800
C -8.626000 -8.858800 -35.075100
C -8.370800 -10.028600 -31.458900
N -8.276100 -9.272900 -32.700200
O -8.262500 -6.798100 -36.039500
N -8.243700 -7.462800 -35.008700
H -8.146000 -10.965300 -31.637400
H -8.090700 -8.457000 -32.642000
H -8.081900 -7.741100 -29.842500
O -7.919300 -6.962700 -33.923500
H -7.467500 -9.827800 -29.620500
O -7.441500 -8.030500 -30.424600
C -7.338800 -9.446500 -30.503800
H -6.449200 -9.687300 -30.806100
43
Fragment
H -10.081400 -22.550000 -47.065800
C -9.191800 -22.790800 -47.368100
O -9.089100 -24.206800 -47.447400
H -9.063200 -22.409500 -48.251400
O -8.611400 -25.274600 -43.948400
H -8.448800 -24.496200 -48.029500
H -8.439900 -23.780300 -45.230000
H -8.384700 -21.271900 -46.234500
N -8.286900 -24.774500 -42.863200
O -8.268100 -25.439200 -41.832400
N -8.254500 -22.964300 -45.171800
C -8.159900 -22.208700 -46.413000
C -7.904600 -23.378400 -42.796900
C -7.904400 -22.539000 -43.950100
C -7.542900 -22.895300 -41.548600
H -7.531200 -23.472400 -40.818500
C -7.529600 -21.175000 -43.726400
H -7.504600 -20.589700 -44.449300
C -7.208800 -20.707700 -42.488300
C -7.201400 -21.570400 -41.374900
H -6.993000 -19.810100 -42.376000
N -6.844000 -21.205300 -40.067400
C -6.734700 -22.283200 -46.941200
N -6.628600 -19.971200 -39.906600
O -6.565800 -21.478300 -48.105000
H -6.526400 -20.611500 -47.807500
H -6.519700 -23.204800 -47.155300
H -6.453700 -21.474300 -37.693900
O -6.445900 -16.226200 -38.998300
C -6.237600 -19.666300 -38.571300
C -6.227200 -20.588200 -37.525700
H -6.121100 -21.984500 -46.252000
N -5.936600 -17.300200 -39.314800
C -5.899000 -18.336900 -38.272900
C -5.885800 -20.206300 -36.246100
H -5.877000 -20.829300 -35.556300
C -5.564000 -17.920800 -37.001600
C -5.555600 -18.880100 -36.001000
O -5.440200 -17.533200 -40.410100
H -5.352300 -17.033400 -36.823700
O -5.248400 -19.308400 -33.744200
N -5.212900 -18.463900 -34.636100
O -4.915800 -17.287600 -34.446300
86
Fragment
O -11.614800 -14.949700 -43.425700
N -11.317800 -13.773400 -43.235900
O -11.282300 -12.928900 -44.127700
H -11.178300 -15.203900 -41.048200
O -11.090500 -14.704100 -37.461800
C -10.975000 -13.357200 -41.871000
C -10.966600 -14.316400 -40.870300
H -10.653700 -11.408000 -42.315600
C -10.644800 -12.031000 -41.625900
C -10.631600 -13.900400 -39.599000
N -10.594100 -14.937100 -38.557100
H -10.409500 -10.252700 -31.619900
C -10.303500 -11.649000 -40.346200
C -10.293100 -12.571000 -39.300600
O -10.084700 -16.011000 -38.873700
H -10.077000 -10.763000 -40.178000
H -10.010900 -9.032400 -30.716600
H -10.004200 -11.625800 -30.064400
O -9.964800 -10.759000 -29.766900
N -9.902000 -12.266100 -37.965300
C -9.795900 -9.954100 -30.930700
N -9.686600 -11.032000 -37.804500
H -9.537600 -12.427200 -35.496000
C -9.329300 -10.666800 -36.497000
C -9.321800 -11.529600 -35.383600
H -9.026100 -11.647500 -33.422600
C -9.001000 -11.062300 -34.145500
H -8.999400 -8.764900 -37.053400
C -8.987700 -9.342000 -36.323400
C -8.626300 -9.698300 -33.921800
C -8.626000 -8.858800 -35.075100
C -8.370800 -10.028600 -31.458900
N -8.276100 -9.272900 -32.700200
O -8.262500 -6.798100 -36.039500
N -8.243700 -7.462800 -35.008700
H -8.146000 -10.965300 -31.637400
H -8.090700 -8.457000 -32.642000
H -8.081900 -7.741100 -29.842500
O -7.919300 -6.962700 -33.923500
H -7.467500 -9.827800 -29.620500
O -7.441500 -8.030500 -30.424600
C -7.338800 -9.446500 -30.503800
H -6.449200 -9.687300 -30.806100
H -10.081400 -22.550000 -47.065800
C -9.191800 -22.790800 -47.368100
O -9.089100 -24.206800 -47.447400
H -9.063200 -22.409500 -48.251400
O -8.611400 -25.274600 -43.948400
H -8.448800 -24.496200 -48.029500
H -8.439900 -23.780300 -45.230000
H -8.384700 -21.271900 -46.234500
N -8.286900 -24.774500 -42.863200
O -8.268100 -25.439200 -41.832400
N -8.254500 -22.964300 -45.171800
C -8.159900 -22.208700 -46.413000
C -7.904600 -23.378400 -42.796900
C -7.904400 -22.539000 -43.950100
C -7.542900 -22.895300 -41.548600
H -7.531200 -23.472400 -40.818500
C -7.529600 -21.175000 -43.726400
H -7.504600 -20.589700 -44.449300
C -7.208800 -20.707700 -42.488300
C -7.201400 -21.570400 -41.374900
H -6.993000 -19.810100 -42.376000
N -6.844000 -21.205300 -40.067400
C -6.734700 -22.283200 -46.941200
N -6.628600 -19.971200 -39.906600
O -6.565800 -21.478300 -48.105000
H -6.526400 -20.611500 -47.807500
H -6.519700 -23.204800 -47.155300
H -6.453700 -21.474300 -37.693900
O -6.445900 -16.226200 -38.998300
C -6.237600 -19.666300 -38.571300
C -6.227200 -20.588200 -37.525700
H -6.121100 -21.984500 -46.252000
N -5.936600 -17.300200 -39.314800
C -5.899000 -18.336900 -38.272900
C -5.885800 -20.206300 -36.246100
H -5.877000 -20.829300 -35.556300
C -5.564000 -17.920800 -37.001600
C -5.555600 -18.880100 -36.001000
O -5.440200 -17.533200 -40.410100
H -5.352300 -17.033400 -36.823700
O -5.248400 -19.308400 -33.744200
N -5.212900 -18.463900 -34.636100
O -4.915800 -17.287600 -34.446300
