14
Fragment
H -26.737200 -15.659000 -16.610100
C -25.777500 -15.894000 -16.806200
H -25.677600 -16.664000 -17.271500
H -25.307400 -16.800800 -15.053100
O -25.281100 -14.828800 -17.605900
H -25.100100 -15.174300 -14.943200
C -24.995700 -16.026800 -15.548000
C -23.898000 -15.028900 -17.887900
H -23.804900 -15.859400 -18.400800
O -23.599400 -16.226500 -15.827500
H -23.589100 -14.278400 -18.458600
H -23.129200 -14.339500 -16.077200
C -23.104600 -15.149100 -16.648000
H -22.210200 -15.414200 -16.903200
17
Fragment
H -23.392000 -21.254900 -16.575300
H -23.192100 -17.816400 -16.182900
O -23.068100 -18.715500 -16.346000
N -22.616800 -21.323600 -17.054500
N -22.186500 -22.531200 -17.458800
C -22.152100 -18.877900 -17.283000
C -21.878200 -20.307600 -17.540000
O -21.578700 -18.002500 -17.867000
C -21.122700 -22.275700 -18.230300
C -20.903200 -20.894100 -18.300700
O -20.835100 -24.523200 -18.821000
H -20.310200 -25.114700 -19.263000
C -20.300500 -23.325700 -18.866500
O -20.039100 -20.115000 -20.264000
N -19.884000 -20.197500 -19.060600
O -19.246600 -23.061500 -19.383700
O -18.947200 -19.726000 -18.460000
31
Fragment
H -26.737200 -15.659000 -16.610100
C -25.777500 -15.894000 -16.806200
H -25.677600 -16.664000 -17.271500
H -25.307400 -16.800800 -15.053100
O -25.281100 -14.828800 -17.605900
H -25.100100 -15.174300 -14.943200
C -24.995700 -16.026800 -15.548000
C -23.898000 -15.028900 -17.887900
H -23.804900 -15.859400 -18.400800
O -23.599400 -16.226500 -15.827500
H -23.589100 -14.278400 -18.458600
H -23.129200 -14.339500 -16.077200
C -23.104600 -15.149100 -16.648000
H -22.210200 -15.414200 -16.903200
H -23.392000 -21.254900 -16.575300
H -23.192100 -17.816400 -16.182900
O -23.068100 -18.715500 -16.346000
N -22.616800 -21.323600 -17.054500
N -22.186500 -22.531200 -17.458800
C -22.152100 -18.877900 -17.283000
C -21.878200 -20.307600 -17.540000
O -21.578700 -18.002500 -17.867000
C -21.122700 -22.275700 -18.230300
C -20.903200 -20.894100 -18.300700
O -20.835100 -24.523200 -18.821000
H -20.310200 -25.114700 -19.263000
C -20.300500 -23.325700 -18.866500
O -20.039100 -20.115000 -20.264000
N -19.884000 -20.197500 -19.060600
O -19.246600 -23.061500 -19.383700
O -18.947200 -19.726000 -18.460000
