14
Fragment
H -26.737200 -15.659000 -16.610100
C -25.777500 -15.894000 -16.806200
H -25.677600 -16.664000 -17.271500
H -25.307400 -16.800800 -15.053100
O -25.281100 -14.828800 -17.605900
H -25.100100 -15.174300 -14.943200
C -24.995700 -16.026800 -15.548000
C -23.898000 -15.028900 -17.887900
H -23.804900 -15.859400 -18.400800
O -23.599400 -16.226500 -15.827500
H -23.589100 -14.278400 -18.458600
H -23.129200 -14.339500 -16.077200
C -23.104600 -15.149100 -16.648000
H -22.210200 -15.414200 -16.903200
14
Fragment
O -24.382900 -15.969900 -21.299100
H -24.237700 -17.622900 -20.311900
H -24.217100 -14.467100 -22.584100
H -24.203100 -15.960600 -23.266400
H -24.196200 -17.862900 -21.934200
C -23.887000 -17.304200 -21.129400
C -23.852000 -15.384400 -22.488800
C -22.401200 -17.294000 -21.074200
C -22.357900 -15.394300 -22.460000
H -22.074500 -16.726700 -20.270400
H -22.066000 -14.832800 -21.701000
H -22.061200 -18.195700 -21.055100
H -21.979300 -15.121200 -23.323000
O -21.866100 -16.725000 -22.275900
28
Fragment
H -26.737200 -15.659000 -16.610100
C -25.777500 -15.894000 -16.806200
H -25.677600 -16.664000 -17.271500
H -25.307400 -16.800800 -15.053100
O -25.281100 -14.828800 -17.605900
H -25.100100 -15.174300 -14.943200
C -24.995700 -16.026800 -15.548000
C -23.898000 -15.028900 -17.887900
H -23.804900 -15.859400 -18.400800
O -23.599400 -16.226500 -15.827500
H -23.589100 -14.278400 -18.458600
H -23.129200 -14.339500 -16.077200
C -23.104600 -15.149100 -16.648000
H -22.210200 -15.414200 -16.903200
O -24.382900 -15.969900 -21.299100
H -24.237700 -17.622900 -20.311900
H -24.217100 -14.467100 -22.584100
H -24.203100 -15.960600 -23.266400
H -24.196200 -17.862900 -21.934200
C -23.887000 -17.304200 -21.129400
C -23.852000 -15.384400 -22.488800
C -22.401200 -17.294000 -21.074200
C -22.357900 -15.394300 -22.460000
H -22.074500 -16.726700 -20.270400
H -22.066000 -14.832800 -21.701000
H -22.061200 -18.195700 -21.055100
H -21.979300 -15.121200 -23.323000
O -21.866100 -16.725000 -22.275900
