14
Fragment
H -26.737200 -15.659000 -16.610100
C -25.777500 -15.894000 -16.806200
H -25.677600 -16.664000 -17.271500
H -25.307400 -16.800800 -15.053100
O -25.281100 -14.828800 -17.605900
H -25.100100 -15.174300 -14.943200
C -24.995700 -16.026800 -15.548000
C -23.898000 -15.028900 -17.887900
H -23.804900 -15.859400 -18.400800
O -23.599400 -16.226500 -15.827500
H -23.589100 -14.278400 -18.458600
H -23.129200 -14.339500 -16.077200
C -23.104600 -15.149100 -16.648000
H -22.210200 -15.414200 -16.903200
14
Fragment
O -27.678300 -11.360400 -15.016300
H -27.565200 -9.756600 -13.969100
H -27.483300 -12.831100 -16.237000
H -27.478500 -9.468200 -15.591100
H -27.470000 -11.362000 -17.021700
C -27.186600 -10.029600 -14.832100
C -27.143300 -11.929400 -16.217900
C -25.692500 -10.019800 -14.803300
C -25.657500 -11.939600 -16.162700
H -25.348300 -12.498200 -15.358000
H -25.341400 -10.595900 -14.025700
H -25.327400 -9.102400 -14.708000
H -25.306800 -12.258200 -16.980200
O -25.161600 -10.605300 -15.993000
28
Fragment
H -26.737200 -15.659000 -16.610100
C -25.777500 -15.894000 -16.806200
H -25.677600 -16.664000 -17.271500
H -25.307400 -16.800800 -15.053100
O -25.281100 -14.828800 -17.605900
H -25.100100 -15.174300 -14.943200
C -24.995700 -16.026800 -15.548000
C -23.898000 -15.028900 -17.887900
H -23.804900 -15.859400 -18.400800
O -23.599400 -16.226500 -15.827500
H -23.589100 -14.278400 -18.458600
H -23.129200 -14.339500 -16.077200
C -23.104600 -15.149100 -16.648000
H -22.210200 -15.414200 -16.903200
O -27.678300 -11.360400 -15.016300
H -27.565200 -9.756600 -13.969100
H -27.483300 -12.831100 -16.237000
H -27.478500 -9.468200 -15.591100
H -27.470000 -11.362000 -17.021700
C -27.186600 -10.029600 -14.832100
C -27.143300 -11.929400 -16.217900
C -25.692500 -10.019800 -14.803300
C -25.657500 -11.939600 -16.162700
H -25.348300 -12.498200 -15.358000
H -25.341400 -10.595900 -14.025700
H -25.327400 -9.102400 -14.708000
H -25.306800 -12.258200 -16.980200
O -25.161600 -10.605300 -15.993000
