14
Fragment
H -6.740500 -26.725000 -16.164200
H -6.685600 -24.797500 -17.556900
H -6.243800 -27.112200 -17.641800
C -6.032100 -26.612500 -16.839600
C -5.876300 -25.172800 -17.226100
O -5.497600 -24.386100 -16.104700
H -5.213200 -25.111500 -17.952200
H -5.054100 -26.451800 -14.421800
O -4.816900 -27.126500 -16.300700
C -4.413800 -26.330300 -15.183400
C -4.268800 -24.890200 -15.576200
H -4.062700 -24.384400 -14.821000
H -3.555600 -24.813800 -16.290900
H -3.545300 -26.702300 -14.875500
30
Fragment
N -15.053900 -29.847600 -17.554300
C -14.010800 -30.017000 -17.133600
N -12.891500 -32.982400 -18.988800
C -12.669000 -30.225800 -16.633600
C -12.507500 -30.039700 -15.208800
C -12.467100 -32.197600 -18.285500
O -12.414800 -30.029500 -19.747700
N -12.364600 -29.919000 -14.085000
H -12.076000 -27.369200 -18.508500
C -11.886400 -29.335600 -18.934300
C -11.839400 -31.354700 -17.277400
H -11.798800 -27.652200 -20.062100
C -11.545200 -27.904200 -19.137000
C -11.484800 -29.901100 -17.573500
C -11.025600 -32.169400 -16.386000
N -10.495400 -32.925000 -15.723200
H -10.369100 -25.592900 -18.579500
H -10.351100 -27.317100 -16.801600
C -10.241700 -29.313600 -16.912600
C -10.079900 -27.636700 -18.830400
H -9.950500 -25.965400 -20.044300
C -9.825700 -27.949100 -17.354100
C -9.764700 -26.176900 -19.101600
O -9.691800 -29.923400 -16.035600
H -9.440900 -28.341900 -20.643700
H -9.358700 -29.501600 -19.503300
C -9.201700 -28.515900 -19.713600
H -8.886500 -27.858800 -17.094300
H -8.773600 -25.918200 -18.822800
H -8.296800 -28.324000 -19.512100
44
Fragment
H -6.740500 -26.725000 -16.164200
H -6.685600 -24.797500 -17.556900
H -6.243800 -27.112200 -17.641800
C -6.032100 -26.612500 -16.839600
C -5.876300 -25.172800 -17.226100
O -5.497600 -24.386100 -16.104700
H -5.213200 -25.111500 -17.952200
H -5.054100 -26.451800 -14.421800
O -4.816900 -27.126500 -16.300700
C -4.413800 -26.330300 -15.183400
C -4.268800 -24.890200 -15.576200
H -4.062700 -24.384400 -14.821000
H -3.555600 -24.813800 -16.290900
H -3.545300 -26.702300 -14.875500
N -15.053900 -29.847600 -17.554300
C -14.010800 -30.017000 -17.133600
N -12.891500 -32.982400 -18.988800
C -12.669000 -30.225800 -16.633600
C -12.507500 -30.039700 -15.208800
C -12.467100 -32.197600 -18.285500
O -12.414800 -30.029500 -19.747700
N -12.364600 -29.919000 -14.085000
H -12.076000 -27.369200 -18.508500
C -11.886400 -29.335600 -18.934300
C -11.839400 -31.354700 -17.277400
H -11.798800 -27.652200 -20.062100
C -11.545200 -27.904200 -19.137000
C -11.484800 -29.901100 -17.573500
C -11.025600 -32.169400 -16.386000
N -10.495400 -32.925000 -15.723200
H -10.369100 -25.592900 -18.579500
H -10.351100 -27.317100 -16.801600
C -10.241700 -29.313600 -16.912600
C -10.079900 -27.636700 -18.830400
H -9.950500 -25.965400 -20.044300
C -9.825700 -27.949100 -17.354100
C -9.764700 -26.176900 -19.101600
O -9.691800 -29.923400 -16.035600
H -9.440900 -28.341900 -20.643700
H -9.358700 -29.501600 -19.503300
C -9.201700 -28.515900 -19.713600
H -8.886500 -27.858800 -17.094300
H -8.773600 -25.918200 -18.822800
H -8.296800 -28.324000 -19.512100
