14
Fragment
H -6.740500 -26.725000 -16.164200
H -6.685600 -24.797500 -17.556900
H -6.243800 -27.112200 -17.641800
C -6.032100 -26.612500 -16.839600
C -5.876300 -25.172800 -17.226100
O -5.497600 -24.386100 -16.104700
H -5.213200 -25.111500 -17.952200
H -5.054100 -26.451800 -14.421800
O -4.816900 -27.126500 -16.300700
C -4.413800 -26.330300 -15.183400
C -4.268800 -24.890200 -15.576200
H -4.062700 -24.384400 -14.821000
H -3.555600 -24.813800 -16.290900
H -3.545300 -26.702300 -14.875500
30
Fragment
N -12.803600 -27.083400 -11.218400
C -11.760400 -26.914000 -10.797700
N -10.641200 -23.948600 -12.652800
C -10.418600 -26.705200 -10.297700
C -10.257100 -26.891300 -8.872800
C -10.216700 -24.733400 -11.949600
O -10.164400 -26.901500 -13.411800
N -10.114300 -27.012000 -7.749100
H -9.825600 -29.561800 -12.172600
C -9.636000 -27.595400 -12.598400
C -9.589000 -25.576300 -10.941500
H -9.548400 -29.278800 -13.726200
C -9.294800 -29.026800 -12.801100
C -9.234400 -27.029900 -11.237500
C -8.775300 -24.761600 -10.050000
N -8.245100 -24.006000 -9.387300
H -8.118700 -31.338100 -12.243500
H -8.100700 -29.613900 -10.465700
C -7.991400 -27.617400 -10.576700
C -7.829500 -29.294300 -12.494500
H -7.700100 -30.965600 -13.708400
C -7.575300 -28.981900 -11.018200
C -7.514300 -30.754100 -12.765600
O -7.441400 -27.007600 -9.699700
H -7.190500 -28.589100 -14.307800
H -7.108300 -27.429400 -13.167300
C -6.951300 -28.415100 -13.377700
H -6.636100 -29.072200 -10.758400
H -6.523300 -31.012800 -12.486800
H -6.046500 -28.607000 -13.176200
44
Fragment
H -6.740500 -26.725000 -16.164200
H -6.685600 -24.797500 -17.556900
H -6.243800 -27.112200 -17.641800
C -6.032100 -26.612500 -16.839600
C -5.876300 -25.172800 -17.226100
O -5.497600 -24.386100 -16.104700
H -5.213200 -25.111500 -17.952200
H -5.054100 -26.451800 -14.421800
O -4.816900 -27.126500 -16.300700
C -4.413800 -26.330300 -15.183400
C -4.268800 -24.890200 -15.576200
H -4.062700 -24.384400 -14.821000
H -3.555600 -24.813800 -16.290900
H -3.545300 -26.702300 -14.875500
N -12.803600 -27.083400 -11.218400
C -11.760400 -26.914000 -10.797700
N -10.641200 -23.948600 -12.652800
C -10.418600 -26.705200 -10.297700
C -10.257100 -26.891300 -8.872800
C -10.216700 -24.733400 -11.949600
O -10.164400 -26.901500 -13.411800
N -10.114300 -27.012000 -7.749100
H -9.825600 -29.561800 -12.172600
C -9.636000 -27.595400 -12.598400
C -9.589000 -25.576300 -10.941500
H -9.548400 -29.278800 -13.726200
C -9.294800 -29.026800 -12.801100
C -9.234400 -27.029900 -11.237500
C -8.775300 -24.761600 -10.050000
N -8.245100 -24.006000 -9.387300
H -8.118700 -31.338100 -12.243500
H -8.100700 -29.613900 -10.465700
C -7.991400 -27.617400 -10.576700
C -7.829500 -29.294300 -12.494500
H -7.700100 -30.965600 -13.708400
C -7.575300 -28.981900 -11.018200
C -7.514300 -30.754100 -12.765600
O -7.441400 -27.007600 -9.699700
H -7.190500 -28.589100 -14.307800
H -7.108300 -27.429400 -13.167300
C -6.951300 -28.415100 -13.377700
H -6.636100 -29.072200 -10.758400
H -6.523300 -31.012800 -12.486800
H -6.046500 -28.607000 -13.176200
