14
Fragment
H -6.740500 -26.725000 -16.164200
H -6.685600 -24.797500 -17.556900
H -6.243800 -27.112200 -17.641800
C -6.032100 -26.612500 -16.839600
C -5.876300 -25.172800 -17.226100
O -5.497600 -24.386100 -16.104700
H -5.213200 -25.111500 -17.952200
H -5.054100 -26.451800 -14.421800
O -4.816900 -27.126500 -16.300700
C -4.413800 -26.330300 -15.183400
C -4.268800 -24.890200 -15.576200
H -4.062700 -24.384400 -14.821000
H -3.555600 -24.813800 -16.290900
H -3.545300 -26.702300 -14.875500
30
Fragment
H -5.205400 -20.474000 -18.503400
H -4.728600 -22.879800 -19.192800
H -4.615700 -20.939200 -20.921200
C -4.300600 -20.282100 -18.302000
H -4.143500 -19.296400 -18.512300
H -4.061400 -20.456100 -17.371800
O -3.810400 -18.874600 -21.980000
C -3.737500 -22.621100 -18.914000
C -3.676600 -20.848900 -20.661500
H -3.551700 -22.832600 -17.971200
C -3.422300 -21.161300 -19.185200
C -3.260500 -19.484400 -21.103000
H -3.151100 -21.480900 -21.214000
H -3.133100 -23.205100 -19.436100
N -3.006800 -15.873000 -22.292300
C -2.476600 -16.628600 -21.629600
C -2.017400 -18.896900 -20.442100
C -1.957000 -20.893800 -18.878500
H -1.703400 -21.145800 -17.953500
C -1.662800 -17.443300 -20.738100
C -1.615800 -19.462400 -19.081300
H -1.426200 -21.428800 -19.507100
N -1.137600 -18.879000 -23.930500
O -1.087400 -18.768500 -18.267900
C -1.035100 -16.600400 -19.730100
C -0.994700 -18.758300 -22.806800
C -0.833200 -18.572200 -21.382000
N -0.610700 -15.815600 -19.026800
C 0.508500 -18.781000 -20.882000
N 1.551700 -18.950400 -20.461200
44
Fragment
H -6.740500 -26.725000 -16.164200
H -6.685600 -24.797500 -17.556900
H -6.243800 -27.112200 -17.641800
C -6.032100 -26.612500 -16.839600
C -5.876300 -25.172800 -17.226100
O -5.497600 -24.386100 -16.104700
H -5.213200 -25.111500 -17.952200
H -5.054100 -26.451800 -14.421800
O -4.816900 -27.126500 -16.300700
C -4.413800 -26.330300 -15.183400
C -4.268800 -24.890200 -15.576200
H -4.062700 -24.384400 -14.821000
H -3.555600 -24.813800 -16.290900
H -3.545300 -26.702300 -14.875500
H -5.205400 -20.474000 -18.503400
H -4.728600 -22.879800 -19.192800
H -4.615700 -20.939200 -20.921200
C -4.300600 -20.282100 -18.302000
H -4.143500 -19.296400 -18.512300
H -4.061400 -20.456100 -17.371800
O -3.810400 -18.874600 -21.980000
C -3.737500 -22.621100 -18.914000
C -3.676600 -20.848900 -20.661500
H -3.551700 -22.832600 -17.971200
C -3.422300 -21.161300 -19.185200
C -3.260500 -19.484400 -21.103000
H -3.151100 -21.480900 -21.214000
H -3.133100 -23.205100 -19.436100
N -3.006800 -15.873000 -22.292300
C -2.476600 -16.628600 -21.629600
C -2.017400 -18.896900 -20.442100
C -1.957000 -20.893800 -18.878500
H -1.703400 -21.145800 -17.953500
C -1.662800 -17.443300 -20.738100
C -1.615800 -19.462400 -19.081300
H -1.426200 -21.428800 -19.507100
N -1.137600 -18.879000 -23.930500
O -1.087400 -18.768500 -18.267900
C -1.035100 -16.600400 -19.730100
C -0.994700 -18.758300 -22.806800
C -0.833200 -18.572200 -21.382000
N -0.610700 -15.815600 -19.026800
C 0.508500 -18.781000 -20.882000
N 1.551700 -18.950400 -20.461200
