22
Fragment
H -14.304400 -17.042800 -22.373200
O -14.204500 -16.273800 -19.805000
H -14.123800 -19.285200 -17.611800
C -13.384800 -16.765600 -22.369400
H -13.340500 -15.807000 -22.364800
C -13.203800 -19.554200 -17.558000
C -13.192100 -16.936000 -19.929500
H -13.145200 -20.509500 -17.628600
H -12.945700 -17.103500 -23.153200
H -12.837700 -19.272600 -16.716900
H -12.756200 -17.047300 -17.939500
N -12.719300 -17.293200 -21.167600
C -12.437000 -18.926400 -18.668000
C -12.396800 -17.428800 -18.756500
N -11.840200 -19.703800 -19.489300
C -11.555000 -18.019400 -21.341500
H -11.477200 -17.135500 -18.844100
N -11.177000 -19.058000 -20.543600
N -10.723800 -17.878700 -22.338500
C -10.064200 -19.563500 -21.141800
N -9.761500 -18.881200 -22.198300
H -9.586600 -20.299900 -20.832700
22
Fragment
H -16.799800 -17.315300 -15.371100
O -16.699900 -18.084300 -12.802800
H -16.619200 -15.072900 -10.609600
C -15.880200 -17.592500 -15.367300
H -15.835900 -18.551100 -15.362700
C -15.699200 -14.803900 -10.555900
C -15.687500 -17.422100 -12.927300
H -15.640600 -13.848600 -10.626400
H -15.441100 -17.254600 -16.151100
H -15.333200 -15.085500 -9.714800
H -15.251600 -17.310800 -10.937300
N -15.214700 -17.064900 -14.165500
C -14.932400 -15.431700 -11.665800
C -14.892200 -16.929300 -11.754300
N -14.335600 -14.654300 -12.487200
C -14.050400 -16.338700 -14.339400
H -13.972600 -17.222600 -11.842000
N -13.672400 -15.300100 -13.541400
N -13.219300 -16.479400 -15.336300
C -12.559600 -14.794600 -14.139700
N -12.256900 -15.476900 -15.196200
H -12.082000 -14.058200 -13.830600
44
Fragment
H -14.304400 -17.042800 -22.373200
O -14.204500 -16.273800 -19.805000
H -14.123800 -19.285200 -17.611800
C -13.384800 -16.765600 -22.369400
H -13.340500 -15.807000 -22.364800
C -13.203800 -19.554200 -17.558000
C -13.192100 -16.936000 -19.929500
H -13.145200 -20.509500 -17.628600
H -12.945700 -17.103500 -23.153200
H -12.837700 -19.272600 -16.716900
H -12.756200 -17.047300 -17.939500
N -12.719300 -17.293200 -21.167600
C -12.437000 -18.926400 -18.668000
C -12.396800 -17.428800 -18.756500
N -11.840200 -19.703800 -19.489300
C -11.555000 -18.019400 -21.341500
H -11.477200 -17.135500 -18.844100
N -11.177000 -19.058000 -20.543600
N -10.723800 -17.878700 -22.338500
C -10.064200 -19.563500 -21.141800
N -9.761500 -18.881200 -22.198300
H -9.586600 -20.299900 -20.832700
H -16.799800 -17.315300 -15.371100
O -16.699900 -18.084300 -12.802800
H -16.619200 -15.072900 -10.609600
C -15.880200 -17.592500 -15.367300
H -15.835900 -18.551100 -15.362700
C -15.699200 -14.803900 -10.555900
C -15.687500 -17.422100 -12.927300
H -15.640600 -13.848600 -10.626400
H -15.441100 -17.254600 -16.151100
H -15.333200 -15.085500 -9.714800
H -15.251600 -17.310800 -10.937300
N -15.214700 -17.064900 -14.165500
C -14.932400 -15.431700 -11.665800
C -14.892200 -16.929300 -11.754300
N -14.335600 -14.654300 -12.487200
C -14.050400 -16.338700 -14.339400
H -13.972600 -17.222600 -11.842000
N -13.672400 -15.300100 -13.541400
N -13.219300 -16.479400 -15.336300
C -12.559600 -14.794600 -14.139700
N -12.256900 -15.476900 -15.196200
H -12.082000 -14.058200 -13.830600
