22
Fragment
H -14.304400 -17.042800 -22.373200
O -14.204500 -16.273800 -19.805000
H -14.123800 -19.285200 -17.611800
C -13.384800 -16.765600 -22.369400
H -13.340500 -15.807000 -22.364800
C -13.203800 -19.554200 -17.558000
C -13.192100 -16.936000 -19.929500
H -13.145200 -20.509500 -17.628600
H -12.945700 -17.103500 -23.153200
H -12.837700 -19.272600 -16.716900
H -12.756200 -17.047300 -17.939500
N -12.719300 -17.293200 -21.167600
C -12.437000 -18.926400 -18.668000
C -12.396800 -17.428800 -18.756500
N -11.840200 -19.703800 -19.489300
C -11.555000 -18.019400 -21.341500
H -11.477200 -17.135500 -18.844100
N -11.177000 -19.058000 -20.543600
N -10.723800 -17.878700 -22.338500
C -10.064200 -19.563500 -21.141800
N -9.761500 -18.881200 -22.198300
H -9.586600 -20.299900 -20.832700
3
Fragment
H -17.062700 -20.390400 -16.862500
O -16.755500 -19.883000 -17.505300
H -16.448200 -20.390400 -18.148100
25
Fragment
H -14.304400 -17.042800 -22.373200
O -14.204500 -16.273800 -19.805000
H -14.123800 -19.285200 -17.611800
C -13.384800 -16.765600 -22.369400
H -13.340500 -15.807000 -22.364800
C -13.203800 -19.554200 -17.558000
C -13.192100 -16.936000 -19.929500
H -13.145200 -20.509500 -17.628600
H -12.945700 -17.103500 -23.153200
H -12.837700 -19.272600 -16.716900
H -12.756200 -17.047300 -17.939500
N -12.719300 -17.293200 -21.167600
C -12.437000 -18.926400 -18.668000
C -12.396800 -17.428800 -18.756500
N -11.840200 -19.703800 -19.489300
C -11.555000 -18.019400 -21.341500
H -11.477200 -17.135500 -18.844100
N -11.177000 -19.058000 -20.543600
N -10.723800 -17.878700 -22.338500
C -10.064200 -19.563500 -21.141800
N -9.761500 -18.881200 -22.198300
H -9.586600 -20.299900 -20.832700
H -17.062700 -20.390400 -16.862500
O -16.755500 -19.883000 -17.505300
H -16.448200 -20.390400 -18.148100
