22
Fragment
H -14.304400 -17.042800 -22.373200
O -14.204500 -16.273800 -19.805000
H -14.123800 -19.285200 -17.611800
C -13.384800 -16.765600 -22.369400
H -13.340500 -15.807000 -22.364800
C -13.203800 -19.554200 -17.558000
C -13.192100 -16.936000 -19.929500
H -13.145200 -20.509500 -17.628600
H -12.945700 -17.103500 -23.153200
H -12.837700 -19.272600 -16.716900
H -12.756200 -17.047300 -17.939500
N -12.719300 -17.293200 -21.167600
C -12.437000 -18.926400 -18.668000
C -12.396800 -17.428800 -18.756500
N -11.840200 -19.703800 -19.489300
C -11.555000 -18.019400 -21.341500
H -11.477200 -17.135500 -18.844100
N -11.177000 -19.058000 -20.543600
N -10.723800 -17.878700 -22.338500
C -10.064200 -19.563500 -21.141800
N -9.761500 -18.881200 -22.198300
H -9.586600 -20.299900 -20.832700
22
Fragment
H -18.175800 -14.573600 -14.177900
N -18.000900 -13.154800 -12.812400
C -17.698200 -13.837200 -13.868800
N -17.038600 -12.152300 -12.672200
N -16.585400 -13.331600 -14.467100
H -16.285200 -11.409200 -16.166500
C -16.207400 -12.293100 -13.669100
N -15.922300 -13.977400 -15.521300
C -15.365600 -11.702500 -16.254200
C -15.325500 -13.200000 -16.342700
N -15.043100 -11.566900 -13.843100
H -15.006300 -11.321000 -17.071200
H -14.924700 -13.546300 -18.293800
H -14.816700 -11.377100 -11.857400
H -14.617300 -14.783100 -17.382100
C -14.570400 -11.209700 -15.081200
C -14.558600 -13.827900 -17.452700
H -14.421900 -10.080700 -12.645800
C -14.377600 -11.039300 -12.641200
H -13.638600 -13.558900 -17.398900
O -13.558000 -10.547500 -15.205700
H -13.458000 -11.316400 -12.637400
44
Fragment
H -14.304400 -17.042800 -22.373200
O -14.204500 -16.273800 -19.805000
H -14.123800 -19.285200 -17.611800
C -13.384800 -16.765600 -22.369400
H -13.340500 -15.807000 -22.364800
C -13.203800 -19.554200 -17.558000
C -13.192100 -16.936000 -19.929500
H -13.145200 -20.509500 -17.628600
H -12.945700 -17.103500 -23.153200
H -12.837700 -19.272600 -16.716900
H -12.756200 -17.047300 -17.939500
N -12.719300 -17.293200 -21.167600
C -12.437000 -18.926400 -18.668000
C -12.396800 -17.428800 -18.756500
N -11.840200 -19.703800 -19.489300
C -11.555000 -18.019400 -21.341500
H -11.477200 -17.135500 -18.844100
N -11.177000 -19.058000 -20.543600
N -10.723800 -17.878700 -22.338500
C -10.064200 -19.563500 -21.141800
N -9.761500 -18.881200 -22.198300
H -9.586600 -20.299900 -20.832700
H -18.175800 -14.573600 -14.177900
N -18.000900 -13.154800 -12.812400
C -17.698200 -13.837200 -13.868800
N -17.038600 -12.152300 -12.672200
N -16.585400 -13.331600 -14.467100
H -16.285200 -11.409200 -16.166500
C -16.207400 -12.293100 -13.669100
N -15.922300 -13.977400 -15.521300
C -15.365600 -11.702500 -16.254200
C -15.325500 -13.200000 -16.342700
N -15.043100 -11.566900 -13.843100
H -15.006300 -11.321000 -17.071200
H -14.924700 -13.546300 -18.293800
H -14.816700 -11.377100 -11.857400
H -14.617300 -14.783100 -17.382100
C -14.570400 -11.209700 -15.081200
C -14.558600 -13.827900 -17.452700
H -14.421900 -10.080700 -12.645800
C -14.377600 -11.039300 -12.641200
H -13.638600 -13.558900 -17.398900
O -13.558000 -10.547500 -15.205700
H -13.458000 -11.316400 -12.637400
