22
Fragment
H -14.304400 -17.042800 -22.373200
O -14.204500 -16.273800 -19.805000
H -14.123800 -19.285200 -17.611800
C -13.384800 -16.765600 -22.369400
H -13.340500 -15.807000 -22.364800
C -13.203800 -19.554200 -17.558000
C -13.192100 -16.936000 -19.929500
H -13.145200 -20.509500 -17.628600
H -12.945700 -17.103500 -23.153200
H -12.837700 -19.272600 -16.716900
H -12.756200 -17.047300 -17.939500
N -12.719300 -17.293200 -21.167600
C -12.437000 -18.926400 -18.668000
C -12.396800 -17.428800 -18.756500
N -11.840200 -19.703800 -19.489300
C -11.555000 -18.019400 -21.341500
H -11.477200 -17.135500 -18.844100
N -11.177000 -19.058000 -20.543600
N -10.723800 -17.878700 -22.338500
C -10.064200 -19.563500 -21.141800
N -9.761500 -18.881200 -22.198300
H -9.586600 -20.299900 -20.832700
22
Fragment
H -8.555900 -22.769100 -22.373200
O -8.456000 -22.000200 -19.805000
H -8.375300 -25.011600 -17.611800
C -7.636300 -22.492000 -22.369400
H -7.592000 -21.533400 -22.364800
C -7.455300 -25.280600 -17.558000
C -7.443600 -22.662400 -19.929500
H -7.396700 -26.235800 -17.628600
H -7.197200 -22.829800 -23.153200
H -7.089200 -24.999000 -16.716900
H -7.007700 -22.773700 -17.939500
N -6.970800 -23.019600 -21.167600
C -6.688500 -24.652700 -18.668000
C -6.648300 -23.155200 -18.756500
N -6.091700 -25.430100 -19.489300
C -5.806500 -23.745800 -21.341500
H -5.728700 -22.861900 -18.844100
N -5.428500 -24.784300 -20.543600
N -4.975300 -23.605000 -22.338500
C -4.315700 -25.289900 -21.141800
N -4.013000 -24.607500 -22.198300
H -3.838100 -26.026300 -20.832700
44
Fragment
H -14.304400 -17.042800 -22.373200
O -14.204500 -16.273800 -19.805000
H -14.123800 -19.285200 -17.611800
C -13.384800 -16.765600 -22.369400
H -13.340500 -15.807000 -22.364800
C -13.203800 -19.554200 -17.558000
C -13.192100 -16.936000 -19.929500
H -13.145200 -20.509500 -17.628600
H -12.945700 -17.103500 -23.153200
H -12.837700 -19.272600 -16.716900
H -12.756200 -17.047300 -17.939500
N -12.719300 -17.293200 -21.167600
C -12.437000 -18.926400 -18.668000
C -12.396800 -17.428800 -18.756500
N -11.840200 -19.703800 -19.489300
C -11.555000 -18.019400 -21.341500
H -11.477200 -17.135500 -18.844100
N -11.177000 -19.058000 -20.543600
N -10.723800 -17.878700 -22.338500
C -10.064200 -19.563500 -21.141800
N -9.761500 -18.881200 -22.198300
H -9.586600 -20.299900 -20.832700
H -8.555900 -22.769100 -22.373200
O -8.456000 -22.000200 -19.805000
H -8.375300 -25.011600 -17.611800
C -7.636300 -22.492000 -22.369400
H -7.592000 -21.533400 -22.364800
C -7.455300 -25.280600 -17.558000
C -7.443600 -22.662400 -19.929500
H -7.396700 -26.235800 -17.628600
H -7.197200 -22.829800 -23.153200
H -7.089200 -24.999000 -16.716900
H -7.007700 -22.773700 -17.939500
N -6.970800 -23.019600 -21.167600
C -6.688500 -24.652700 -18.668000
C -6.648300 -23.155200 -18.756500
N -6.091700 -25.430100 -19.489300
C -5.806500 -23.745800 -21.341500
H -5.728700 -22.861900 -18.844100
N -5.428500 -24.784300 -20.543600
N -4.975300 -23.605000 -22.338500
C -4.315700 -25.289900 -21.141800
N -4.013000 -24.607500 -22.198300
H -3.838100 -26.026300 -20.832700
