22
Fragment
H -14.304400 -17.042800 -22.373200
O -14.204500 -16.273800 -19.805000
H -14.123800 -19.285200 -17.611800
C -13.384800 -16.765600 -22.369400
H -13.340500 -15.807000 -22.364800
C -13.203800 -19.554200 -17.558000
C -13.192100 -16.936000 -19.929500
H -13.145200 -20.509500 -17.628600
H -12.945700 -17.103500 -23.153200
H -12.837700 -19.272600 -16.716900
H -12.756200 -17.047300 -17.939500
N -12.719300 -17.293200 -21.167600
C -12.437000 -18.926400 -18.668000
C -12.396800 -17.428800 -18.756500
N -11.840200 -19.703800 -19.489300
C -11.555000 -18.019400 -21.341500
H -11.477200 -17.135500 -18.844100
N -11.177000 -19.058000 -20.543600
N -10.723800 -17.878700 -22.338500
C -10.064200 -19.563500 -21.141800
N -9.761500 -18.881200 -22.198300
H -9.586600 -20.299900 -20.832700
22
Fragment
H -18.175800 -26.026300 -14.177900
N -18.000900 -24.607500 -12.812400
C -17.698200 -25.289900 -13.868800
N -17.038600 -23.605000 -12.672200
N -16.585400 -24.784300 -14.467100
H -16.285200 -22.861900 -16.166500
C -16.207400 -23.745800 -13.669100
N -15.922300 -25.430100 -15.521300
C -15.365600 -23.155200 -16.254200
C -15.325500 -24.652700 -16.342700
N -15.043100 -23.019600 -13.843100
H -15.006300 -22.773700 -17.071200
H -14.924700 -24.999000 -18.293800
H -14.816700 -22.829800 -11.857400
H -14.617300 -26.235800 -17.382100
C -14.570400 -22.662400 -15.081200
C -14.558600 -25.280600 -17.452700
H -14.421900 -21.533400 -12.645800
C -14.377600 -22.492000 -12.641200
H -13.638600 -25.011600 -17.398900
O -13.558000 -22.000200 -15.205700
H -13.458000 -22.769100 -12.637400
44
Fragment
H -14.304400 -17.042800 -22.373200
O -14.204500 -16.273800 -19.805000
H -14.123800 -19.285200 -17.611800
C -13.384800 -16.765600 -22.369400
H -13.340500 -15.807000 -22.364800
C -13.203800 -19.554200 -17.558000
C -13.192100 -16.936000 -19.929500
H -13.145200 -20.509500 -17.628600
H -12.945700 -17.103500 -23.153200
H -12.837700 -19.272600 -16.716900
H -12.756200 -17.047300 -17.939500
N -12.719300 -17.293200 -21.167600
C -12.437000 -18.926400 -18.668000
C -12.396800 -17.428800 -18.756500
N -11.840200 -19.703800 -19.489300
C -11.555000 -18.019400 -21.341500
H -11.477200 -17.135500 -18.844100
N -11.177000 -19.058000 -20.543600
N -10.723800 -17.878700 -22.338500
C -10.064200 -19.563500 -21.141800
N -9.761500 -18.881200 -22.198300
H -9.586600 -20.299900 -20.832700
H -18.175800 -26.026300 -14.177900
N -18.000900 -24.607500 -12.812400
C -17.698200 -25.289900 -13.868800
N -17.038600 -23.605000 -12.672200
N -16.585400 -24.784300 -14.467100
H -16.285200 -22.861900 -16.166500
C -16.207400 -23.745800 -13.669100
N -15.922300 -25.430100 -15.521300
C -15.365600 -23.155200 -16.254200
C -15.325500 -24.652700 -16.342700
N -15.043100 -23.019600 -13.843100
H -15.006300 -22.773700 -17.071200
H -14.924700 -24.999000 -18.293800
H -14.816700 -22.829800 -11.857400
H -14.617300 -26.235800 -17.382100
C -14.570400 -22.662400 -15.081200
C -14.558600 -25.280600 -17.452700
H -14.421900 -21.533400 -12.645800
C -14.377600 -22.492000 -12.641200
H -13.638600 -25.011600 -17.398900
O -13.558000 -22.000200 -15.205700
H -13.458000 -22.769100 -12.637400
