24
Fragment
H -15.167500 -19.466900 -10.745100
H -14.532200 -19.208300 -12.077500
N -14.426900 -19.342300 -11.213000
N -13.452800 -18.601900 -9.246500
C -13.414200 -18.683800 -10.600800
H -12.764000 -17.833600 -13.240000
H -12.434600 -17.945600 -7.752400
C -12.433500 -17.960200 -8.682300
C -12.353300 -18.130200 -11.326100
N -12.261500 -18.308800 -12.728800
N -11.572700 -19.403900 -14.623400
N -11.414000 -17.337100 -9.263700
C -11.409300 -19.202700 -13.297400
C -11.385700 -17.402100 -10.622800
H -10.790800 -20.401400 -16.110500
C -10.710800 -20.241500 -15.197900
N -10.490400 -19.805000 -12.518000
N -10.402100 -16.731400 -11.255300
H -10.307800 -16.830700 -12.102700
C -9.700300 -20.886200 -14.501400
H -9.695900 -16.529200 -10.802100
C -9.649600 -20.636900 -13.144100
H -9.093800 -21.451800 -14.922300
H -8.998400 -21.068800 -12.639900
6
Fragment
H -14.351500 -15.153300 -13.831000
H -13.437500 -16.262000 -15.415700
C -13.413300 -15.050900 -14.007100
H -13.267100 -14.240800 -14.501200
O -12.951800 -16.155200 -14.763600
H -12.934400 -15.009700 -13.176100
30
Fragment
H -15.167500 -19.466900 -10.745100
H -14.532200 -19.208300 -12.077500
N -14.426900 -19.342300 -11.213000
N -13.452800 -18.601900 -9.246500
C -13.414200 -18.683800 -10.600800
H -12.764000 -17.833600 -13.240000
H -12.434600 -17.945600 -7.752400
C -12.433500 -17.960200 -8.682300
C -12.353300 -18.130200 -11.326100
N -12.261500 -18.308800 -12.728800
N -11.572700 -19.403900 -14.623400
N -11.414000 -17.337100 -9.263700
C -11.409300 -19.202700 -13.297400
C -11.385700 -17.402100 -10.622800
H -10.790800 -20.401400 -16.110500
C -10.710800 -20.241500 -15.197900
N -10.490400 -19.805000 -12.518000
N -10.402100 -16.731400 -11.255300
H -10.307800 -16.830700 -12.102700
C -9.700300 -20.886200 -14.501400
H -9.695900 -16.529200 -10.802100
C -9.649600 -20.636900 -13.144100
H -9.093800 -21.451800 -14.922300
H -8.998400 -21.068800 -12.639900
H -14.351500 -15.153300 -13.831000
H -13.437500 -16.262000 -15.415700
C -13.413300 -15.050900 -14.007100
H -13.267100 -14.240800 -14.501200
O -12.951800 -16.155200 -14.763600
H -12.934400 -15.009700 -13.176100
