24
Fragment
H -15.167500 -19.466900 -10.745100
H -14.532200 -19.208300 -12.077500
N -14.426900 -19.342300 -11.213000
N -13.452800 -18.601900 -9.246500
C -13.414200 -18.683800 -10.600800
H -12.764000 -17.833600 -13.240000
H -12.434600 -17.945600 -7.752400
C -12.433500 -17.960200 -8.682300
C -12.353300 -18.130200 -11.326100
N -12.261500 -18.308800 -12.728800
N -11.572700 -19.403900 -14.623400
N -11.414000 -17.337100 -9.263700
C -11.409300 -19.202700 -13.297400
C -11.385700 -17.402100 -10.622800
H -10.790800 -20.401400 -16.110500
C -10.710800 -20.241500 -15.197900
N -10.490400 -19.805000 -12.518000
N -10.402100 -16.731400 -11.255300
H -10.307800 -16.830700 -12.102700
C -9.700300 -20.886200 -14.501400
H -9.695900 -16.529200 -10.802100
C -9.649600 -20.636900 -13.144100
H -9.093800 -21.451800 -14.922300
H -8.998400 -21.068800 -12.639900
24
Fragment
H -15.622400 -19.466900 -1.401500
H -14.987100 -19.208300 -2.733900
N -14.881800 -19.342300 -1.869500
N -13.907700 -18.601900 0.097100
C -13.869100 -18.683800 -1.257300
H -13.218900 -17.833600 -3.896400
H -12.889500 -17.945600 1.591100
C -12.888400 -17.960200 0.661200
C -12.808200 -18.130200 -1.982600
N -12.716400 -18.308800 -3.385300
N -12.027600 -19.403900 -5.279800
N -11.868900 -17.337100 0.079800
C -11.864200 -19.202700 -3.953800
C -11.840600 -17.402100 -1.279200
H -11.245700 -20.401400 -6.767000
C -11.165700 -20.241500 -5.854400
N -10.945300 -19.805000 -3.174500
N -10.857000 -16.731400 -1.911800
H -10.762700 -16.830700 -2.759100
C -10.155200 -20.886200 -5.157800
H -10.150800 -16.529200 -1.458500
C -10.104500 -20.636900 -3.800600
H -9.548700 -21.451800 -5.578700
H -9.453300 -21.068800 -3.296300
48
Fragment
H -15.167500 -19.466900 -10.745100
H -14.532200 -19.208300 -12.077500
N -14.426900 -19.342300 -11.213000
N -13.452800 -18.601900 -9.246500
C -13.414200 -18.683800 -10.600800
H -12.764000 -17.833600 -13.240000
H -12.434600 -17.945600 -7.752400
C -12.433500 -17.960200 -8.682300
C -12.353300 -18.130200 -11.326100
N -12.261500 -18.308800 -12.728800
N -11.572700 -19.403900 -14.623400
N -11.414000 -17.337100 -9.263700
C -11.409300 -19.202700 -13.297400
C -11.385700 -17.402100 -10.622800
H -10.790800 -20.401400 -16.110500
C -10.710800 -20.241500 -15.197900
N -10.490400 -19.805000 -12.518000
N -10.402100 -16.731400 -11.255300
H -10.307800 -16.830700 -12.102700
C -9.700300 -20.886200 -14.501400
H -9.695900 -16.529200 -10.802100
C -9.649600 -20.636900 -13.144100
H -9.093800 -21.451800 -14.922300
H -8.998400 -21.068800 -12.639900
H -15.622400 -19.466900 -1.401500
H -14.987100 -19.208300 -2.733900
N -14.881800 -19.342300 -1.869500
N -13.907700 -18.601900 0.097100
C -13.869100 -18.683800 -1.257300
H -13.218900 -17.833600 -3.896400
H -12.889500 -17.945600 1.591100
C -12.888400 -17.960200 0.661200
C -12.808200 -18.130200 -1.982600
N -12.716400 -18.308800 -3.385300
N -12.027600 -19.403900 -5.279800
N -11.868900 -17.337100 0.079800
C -11.864200 -19.202700 -3.953800
C -11.840600 -17.402100 -1.279200
H -11.245700 -20.401400 -6.767000
C -11.165700 -20.241500 -5.854400
N -10.945300 -19.805000 -3.174500
N -10.857000 -16.731400 -1.911800
H -10.762700 -16.830700 -2.759100
C -10.155200 -20.886200 -5.157800
H -10.150800 -16.529200 -1.458500
C -10.104500 -20.636900 -3.800600
H -9.548700 -21.451800 -5.578700
H -9.453300 -21.068800 -3.296300
