24
Fragment
H -15.167500 -19.466900 -10.745100
H -14.532200 -19.208300 -12.077500
N -14.426900 -19.342300 -11.213000
N -13.452800 -18.601900 -9.246500
C -13.414200 -18.683800 -10.600800
H -12.764000 -17.833600 -13.240000
H -12.434600 -17.945600 -7.752400
C -12.433500 -17.960200 -8.682300
C -12.353300 -18.130200 -11.326100
N -12.261500 -18.308800 -12.728800
N -11.572700 -19.403900 -14.623400
N -11.414000 -17.337100 -9.263700
C -11.409300 -19.202700 -13.297400
C -11.385700 -17.402100 -10.622800
H -10.790800 -20.401400 -16.110500
C -10.710800 -20.241500 -15.197900
N -10.490400 -19.805000 -12.518000
N -10.402100 -16.731400 -11.255300
H -10.307800 -16.830700 -12.102700
C -9.700300 -20.886200 -14.501400
H -9.695900 -16.529200 -10.802100
C -9.649600 -20.636900 -13.144100
H -9.093800 -21.451800 -14.922300
H -8.998400 -21.068800 -12.639900
24
Fragment
H -11.267500 -16.254800 -6.073300
H -10.632300 -16.513500 -7.405700
N -10.527000 -16.379400 -6.541200
N -9.552900 -17.119900 -4.574700
C -9.514200 -17.038000 -5.929000
H -8.864100 -17.888200 -8.568200
H -8.534700 -17.776100 -3.080700
C -8.533600 -17.761600 -4.010500
C -8.453400 -17.591500 -6.654400
N -8.361500 -17.412900 -8.057000
N -7.672800 -16.317800 -9.951600
N -7.514100 -18.384700 -4.592000
C -7.509400 -16.519000 -8.625600
C -7.485800 -18.319700 -5.951000
H -6.890900 -15.320300 -11.438700
C -6.810900 -15.480200 -10.526200
N -6.590500 -15.916800 -7.846200
N -6.502200 -18.990400 -6.583600
H -6.407900 -18.891100 -7.430900
C -5.800400 -14.835500 -9.829600
H -5.796000 -19.192600 -6.130300
C -5.749700 -15.084900 -8.472400
H -5.193900 -14.270000 -10.250500
H -5.098500 -14.652900 -7.968100
48
Fragment
H -15.167500 -19.466900 -10.745100
H -14.532200 -19.208300 -12.077500
N -14.426900 -19.342300 -11.213000
N -13.452800 -18.601900 -9.246500
C -13.414200 -18.683800 -10.600800
H -12.764000 -17.833600 -13.240000
H -12.434600 -17.945600 -7.752400
C -12.433500 -17.960200 -8.682300
C -12.353300 -18.130200 -11.326100
N -12.261500 -18.308800 -12.728800
N -11.572700 -19.403900 -14.623400
N -11.414000 -17.337100 -9.263700
C -11.409300 -19.202700 -13.297400
C -11.385700 -17.402100 -10.622800
H -10.790800 -20.401400 -16.110500
C -10.710800 -20.241500 -15.197900
N -10.490400 -19.805000 -12.518000
N -10.402100 -16.731400 -11.255300
H -10.307800 -16.830700 -12.102700
C -9.700300 -20.886200 -14.501400
H -9.695900 -16.529200 -10.802100
C -9.649600 -20.636900 -13.144100
H -9.093800 -21.451800 -14.922300
H -8.998400 -21.068800 -12.639900
H -11.267500 -16.254800 -6.073300
H -10.632300 -16.513500 -7.405700
N -10.527000 -16.379400 -6.541200
N -9.552900 -17.119900 -4.574700
C -9.514200 -17.038000 -5.929000
H -8.864100 -17.888200 -8.568200
H -8.534700 -17.776100 -3.080700
C -8.533600 -17.761600 -4.010500
C -8.453400 -17.591500 -6.654400
N -8.361500 -17.412900 -8.057000
N -7.672800 -16.317800 -9.951600
N -7.514100 -18.384700 -4.592000
C -7.509400 -16.519000 -8.625600
C -7.485800 -18.319700 -5.951000
H -6.890900 -15.320300 -11.438700
C -6.810900 -15.480200 -10.526200
N -6.590500 -15.916800 -7.846200
N -6.502200 -18.990400 -6.583600
H -6.407900 -18.891100 -7.430900
C -5.800400 -14.835500 -9.829600
H -5.796000 -19.192600 -6.130300
C -5.749700 -15.084900 -8.472400
H -5.193900 -14.270000 -10.250500
H -5.098500 -14.652900 -7.968100
