36
Fragment
H -40.631700 -9.334900 -17.577700
H -40.506400 -10.297600 -19.874100
C -39.683400 -9.317300 -17.539700
Br -39.617500 -11.418100 -22.415100
H -39.576900 -8.390700 -15.750600
C -39.560800 -10.339500 -19.787600
C -39.060300 -8.757900 -16.458400
C -38.928900 -9.870700 -18.602700
C -38.806200 -10.845800 -20.790200
C -37.654000 -8.726300 -16.395300
H -37.541800 -7.910100 -14.772200
C -37.516200 -9.927400 -18.483400
C -37.413500 -10.979800 -20.679600
O -37.009900 -8.050700 -15.407500
H -36.909400 -11.370600 -21.384000
C -36.879400 -9.345200 -17.353800
C -36.791100 -10.539700 -19.543000
H -36.432000 -10.646400 -15.111900
H -35.850000 -10.646400 -19.459200
C -35.490800 -10.539700 -15.028100
C -35.402600 -9.345200 -17.217300
H -35.372600 -11.370600 -13.187200
O -35.272000 -8.050700 -19.163600
C -34.868500 -10.979800 -13.891500
C -34.765700 -9.927400 -16.087700
H -34.740100 -7.910100 -19.798900
C -34.628000 -8.726300 -18.175800
C -33.475700 -10.845800 -13.780900
C -33.353000 -9.870700 -15.968400
C -33.221700 -8.757900 -18.112700
C -32.721200 -10.339500 -14.783500
H -32.705100 -8.390700 -18.820500
Br -32.664500 -11.418100 -12.156000
C -32.598500 -9.317300 -17.031500
H -31.775600 -10.297600 -14.697000
H -31.650300 -9.334900 -16.993400
16
Fragment
N -36.991800 -14.912800 -4.075100
H -36.687500 -13.669000 -7.329100
C -36.272100 -14.611700 -4.904800
C -35.761400 -13.676300 -7.116500
N -35.636500 -12.330300 -10.322100
C -35.319900 -14.177500 -5.897000
C -35.270100 -12.690200 -9.302200
C -34.829000 -13.188400 -8.017900
C -33.956700 -14.217300 -5.586700
C -33.523800 -14.751600 -4.311900
C -33.457900 -13.200200 -7.695500
N -33.209500 -15.163000 -3.298900
C -33.026000 -13.726400 -6.488100
C -32.476000 -12.645300 -8.613400
H -32.099800 -13.749900 -6.280700
N -31.693300 -12.197800 -9.300500
52
Fragment
H -40.631700 -9.334900 -17.577700
H -40.506400 -10.297600 -19.874100
C -39.683400 -9.317300 -17.539700
Br -39.617500 -11.418100 -22.415100
H -39.576900 -8.390700 -15.750600
C -39.560800 -10.339500 -19.787600
C -39.060300 -8.757900 -16.458400
C -38.928900 -9.870700 -18.602700
C -38.806200 -10.845800 -20.790200
C -37.654000 -8.726300 -16.395300
H -37.541800 -7.910100 -14.772200
C -37.516200 -9.927400 -18.483400
C -37.413500 -10.979800 -20.679600
O -37.009900 -8.050700 -15.407500
H -36.909400 -11.370600 -21.384000
C -36.879400 -9.345200 -17.353800
C -36.791100 -10.539700 -19.543000
H -36.432000 -10.646400 -15.111900
H -35.850000 -10.646400 -19.459200
C -35.490800 -10.539700 -15.028100
C -35.402600 -9.345200 -17.217300
H -35.372600 -11.370600 -13.187200
O -35.272000 -8.050700 -19.163600
C -34.868500 -10.979800 -13.891500
C -34.765700 -9.927400 -16.087700
H -34.740100 -7.910100 -19.798900
C -34.628000 -8.726300 -18.175800
C -33.475700 -10.845800 -13.780900
C -33.353000 -9.870700 -15.968400
C -33.221700 -8.757900 -18.112700
C -32.721200 -10.339500 -14.783500
H -32.705100 -8.390700 -18.820500
Br -32.664500 -11.418100 -12.156000
C -32.598500 -9.317300 -17.031500
H -31.775600 -10.297600 -14.697000
H -31.650300 -9.334900 -16.993400
N -36.991800 -14.912800 -4.075100
H -36.687500 -13.669000 -7.329100
C -36.272100 -14.611700 -4.904800
C -35.761400 -13.676300 -7.116500
N -35.636500 -12.330300 -10.322100
C -35.319900 -14.177500 -5.897000
C -35.270100 -12.690200 -9.302200
C -34.829000 -13.188400 -8.017900
C -33.956700 -14.217300 -5.586700
C -33.523800 -14.751600 -4.311900
C -33.457900 -13.200200 -7.695500
N -33.209500 -15.163000 -3.298900
C -33.026000 -13.726400 -6.488100
C -32.476000 -12.645300 -8.613400
H -32.099800 -13.749900 -6.280700
N -31.693300 -12.197800 -9.300500
