42
Fragment
H -42.619000 -9.242300 -8.836900
H -42.518200 -10.214200 -11.128000
H -42.483600 -11.311800 -13.261400
C -41.669600 -9.217600 -8.817100
C -41.569200 -10.247600 -11.072900
H -41.539600 -8.277800 -7.045600
C -41.525600 -11.178000 -13.416500
H -41.397600 -10.483300 -14.095500
H -41.124100 -12.016600 -13.728400
C -41.032300 -8.651000 -7.757300
C -40.930900 -9.771900 -9.894200
C -40.860700 -10.751700 -12.128400
C -39.618000 -8.615300 -7.710800
C -39.513600 -9.824300 -9.797700
H -39.483400 -7.773000 -6.098700
C -39.452600 -10.863000 -11.996600
O -38.958800 -7.924300 -6.737900
H -38.949900 -11.247800 -12.704000
C -38.855000 -9.236500 -8.675800
C -38.806000 -10.430200 -10.877300
H -38.355100 -10.534900 -6.417500
H -37.864600 -10.534900 -10.815200
C -37.413700 -10.430200 -6.355400
C -37.364600 -9.236500 -8.556900
H -37.269800 -11.247800 -4.528800
O -37.260800 -7.924300 -10.494800
C -36.767100 -10.863000 -5.236200
H -36.736300 -7.773000 -11.134100
C -36.706000 -9.824300 -7.435100
C -36.601700 -8.615300 -9.521900
C -35.358900 -10.751700 -5.104300
C -35.288700 -9.771900 -7.338600
C -35.187300 -8.651000 -9.475400
H -35.095600 -12.016600 -3.504300
H -34.822000 -10.483300 -3.137200
C -34.694100 -11.178000 -3.816200
H -34.680100 -8.277800 -10.187100
C -34.650500 -10.247600 -6.159800
C -34.550100 -9.217600 -8.415600
H -33.736100 -11.311800 -3.971300
H -33.701400 -10.214200 -6.104700
H -33.600600 -9.242300 -8.395800
16
Fragment
N -45.864200 -4.807400 0.790100
H -45.491100 -6.369800 -2.253200
C -45.095200 -5.250400 0.071500
C -44.563600 -6.324700 -2.055900
N -44.382200 -7.787500 -5.225800
C -44.127500 -5.783600 -0.853000
C -44.053600 -7.357700 -4.228000
C -43.631200 -6.798300 -2.964000
C -42.755600 -5.739900 -0.542800
C -42.326000 -5.236600 0.741000
C -42.257600 -6.732800 -2.662500
N -41.988400 -4.867800 1.759500
C -41.823400 -6.227300 -1.448400
C -41.320100 -7.150300 -3.662800
H -40.895900 -6.213500 -1.238200
N -40.605300 -7.438400 -4.506400
58
Fragment
H -42.619000 -9.242300 -8.836900
H -42.518200 -10.214200 -11.128000
H -42.483600 -11.311800 -13.261400
C -41.669600 -9.217600 -8.817100
C -41.569200 -10.247600 -11.072900
H -41.539600 -8.277800 -7.045600
C -41.525600 -11.178000 -13.416500
H -41.397600 -10.483300 -14.095500
H -41.124100 -12.016600 -13.728400
C -41.032300 -8.651000 -7.757300
C -40.930900 -9.771900 -9.894200
C -40.860700 -10.751700 -12.128400
C -39.618000 -8.615300 -7.710800
C -39.513600 -9.824300 -9.797700
H -39.483400 -7.773000 -6.098700
C -39.452600 -10.863000 -11.996600
O -38.958800 -7.924300 -6.737900
H -38.949900 -11.247800 -12.704000
C -38.855000 -9.236500 -8.675800
C -38.806000 -10.430200 -10.877300
H -38.355100 -10.534900 -6.417500
H -37.864600 -10.534900 -10.815200
C -37.413700 -10.430200 -6.355400
C -37.364600 -9.236500 -8.556900
H -37.269800 -11.247800 -4.528800
O -37.260800 -7.924300 -10.494800
C -36.767100 -10.863000 -5.236200
H -36.736300 -7.773000 -11.134100
C -36.706000 -9.824300 -7.435100
C -36.601700 -8.615300 -9.521900
C -35.358900 -10.751700 -5.104300
C -35.288700 -9.771900 -7.338600
C -35.187300 -8.651000 -9.475400
H -35.095600 -12.016600 -3.504300
H -34.822000 -10.483300 -3.137200
C -34.694100 -11.178000 -3.816200
H -34.680100 -8.277800 -10.187100
C -34.650500 -10.247600 -6.159800
C -34.550100 -9.217600 -8.415600
H -33.736100 -11.311800 -3.971300
H -33.701400 -10.214200 -6.104700
H -33.600600 -9.242300 -8.395800
N -45.864200 -4.807400 0.790100
H -45.491100 -6.369800 -2.253200
C -45.095200 -5.250400 0.071500
C -44.563600 -6.324700 -2.055900
N -44.382200 -7.787500 -5.225800
C -44.127500 -5.783600 -0.853000
C -44.053600 -7.357700 -4.228000
C -43.631200 -6.798300 -2.964000
C -42.755600 -5.739900 -0.542800
C -42.326000 -5.236600 0.741000
C -42.257600 -6.732800 -2.662500
N -41.988400 -4.867800 1.759500
C -41.823400 -6.227300 -1.448400
C -41.320100 -7.150300 -3.662800
H -40.895900 -6.213500 -1.238200
N -40.605300 -7.438400 -4.506400
