42
Fragment
H -42.619000 -9.242300 -8.836900
H -42.518200 -10.214200 -11.128000
H -42.483600 -11.311800 -13.261400
C -41.669600 -9.217600 -8.817100
C -41.569200 -10.247600 -11.072900
H -41.539600 -8.277800 -7.045600
C -41.525600 -11.178000 -13.416500
H -41.397600 -10.483300 -14.095500
H -41.124100 -12.016600 -13.728400
C -41.032300 -8.651000 -7.757300
C -40.930900 -9.771900 -9.894200
C -40.860700 -10.751700 -12.128400
C -39.618000 -8.615300 -7.710800
C -39.513600 -9.824300 -9.797700
H -39.483400 -7.773000 -6.098700
C -39.452600 -10.863000 -11.996600
O -38.958800 -7.924300 -6.737900
H -38.949900 -11.247800 -12.704000
C -38.855000 -9.236500 -8.675800
C -38.806000 -10.430200 -10.877300
H -38.355100 -10.534900 -6.417500
H -37.864600 -10.534900 -10.815200
C -37.413700 -10.430200 -6.355400
C -37.364600 -9.236500 -8.556900
H -37.269800 -11.247800 -4.528800
O -37.260800 -7.924300 -10.494800
C -36.767100 -10.863000 -5.236200
H -36.736300 -7.773000 -11.134100
C -36.706000 -9.824300 -7.435100
C -36.601700 -8.615300 -9.521900
C -35.358900 -10.751700 -5.104300
C -35.288700 -9.771900 -7.338600
C -35.187300 -8.651000 -9.475400
H -35.095600 -12.016600 -3.504300
H -34.822000 -10.483300 -3.137200
C -34.694100 -11.178000 -3.816200
H -34.680100 -8.277800 -10.187100
C -34.650500 -10.247600 -6.159800
C -34.550100 -9.217600 -8.415600
H -33.736100 -11.311800 -3.971300
H -33.701400 -10.214200 -6.104700
H -33.600600 -9.242300 -8.395800
16
Fragment
N -31.036000 -8.444400 -7.826200
H -30.662900 -10.006800 -10.869500
C -30.267000 -8.887400 -8.544800
C -29.735400 -9.961700 -10.672200
N -29.554100 -11.424500 -13.842200
C -29.299300 -9.420600 -9.469400
C -29.225400 -10.994700 -12.844400
C -28.803000 -10.435300 -11.580400
C -27.927400 -9.376900 -9.159200
C -27.497800 -8.873600 -7.875300
C -27.429500 -10.369800 -11.278800
N -27.160200 -8.504800 -6.856900
C -26.995200 -9.864300 -10.064800
C -26.491900 -10.787300 -12.279200
H -26.067700 -9.850500 -9.854500
N -25.777100 -11.075400 -13.122700
58
Fragment
H -42.619000 -9.242300 -8.836900
H -42.518200 -10.214200 -11.128000
H -42.483600 -11.311800 -13.261400
C -41.669600 -9.217600 -8.817100
C -41.569200 -10.247600 -11.072900
H -41.539600 -8.277800 -7.045600
C -41.525600 -11.178000 -13.416500
H -41.397600 -10.483300 -14.095500
H -41.124100 -12.016600 -13.728400
C -41.032300 -8.651000 -7.757300
C -40.930900 -9.771900 -9.894200
C -40.860700 -10.751700 -12.128400
C -39.618000 -8.615300 -7.710800
C -39.513600 -9.824300 -9.797700
H -39.483400 -7.773000 -6.098700
C -39.452600 -10.863000 -11.996600
O -38.958800 -7.924300 -6.737900
H -38.949900 -11.247800 -12.704000
C -38.855000 -9.236500 -8.675800
C -38.806000 -10.430200 -10.877300
H -38.355100 -10.534900 -6.417500
H -37.864600 -10.534900 -10.815200
C -37.413700 -10.430200 -6.355400
C -37.364600 -9.236500 -8.556900
H -37.269800 -11.247800 -4.528800
O -37.260800 -7.924300 -10.494800
C -36.767100 -10.863000 -5.236200
H -36.736300 -7.773000 -11.134100
C -36.706000 -9.824300 -7.435100
C -36.601700 -8.615300 -9.521900
C -35.358900 -10.751700 -5.104300
C -35.288700 -9.771900 -7.338600
C -35.187300 -8.651000 -9.475400
H -35.095600 -12.016600 -3.504300
H -34.822000 -10.483300 -3.137200
C -34.694100 -11.178000 -3.816200
H -34.680100 -8.277800 -10.187100
C -34.650500 -10.247600 -6.159800
C -34.550100 -9.217600 -8.415600
H -33.736100 -11.311800 -3.971300
H -33.701400 -10.214200 -6.104700
H -33.600600 -9.242300 -8.395800
N -31.036000 -8.444400 -7.826200
H -30.662900 -10.006800 -10.869500
C -30.267000 -8.887400 -8.544800
C -29.735400 -9.961700 -10.672200
N -29.554100 -11.424500 -13.842200
C -29.299300 -9.420600 -9.469400
C -29.225400 -10.994700 -12.844400
C -28.803000 -10.435300 -11.580400
C -27.927400 -9.376900 -9.159200
C -27.497800 -8.873600 -7.875300
C -27.429500 -10.369800 -11.278800
N -27.160200 -8.504800 -6.856900
C -26.995200 -9.864300 -10.064800
C -26.491900 -10.787300 -12.279200
H -26.067700 -9.850500 -9.854500
N -25.777100 -11.075400 -13.122700
