28
Fragment
H -28.662000 -11.798700 -21.669700
N -28.226000 -10.090700 -20.826800
C -28.032100 -11.369600 -21.137300
H -27.449100 -8.607200 -19.819500
C -27.313100 -9.495000 -20.058300
C -26.941800 -12.081700 -20.705700
H -26.854600 -12.980200 -20.928700
C -26.172100 -10.130900 -19.598000
C -25.969000 -11.458400 -19.935000
H -25.554800 -9.674700 -19.072700
N -24.888600 -13.591000 -19.429600
C -24.823900 -12.279900 -19.510800
N -23.655800 -14.041800 -19.014500
N -23.573700 -11.860900 -19.164600
H -23.438000 -10.065700 -18.538000
H -23.190900 -10.217100 -20.103800
N -23.028500 -10.565300 -19.235500
C -22.877000 -12.992700 -18.869000
C -21.481400 -13.103900 -18.405300
H -21.282700 -15.046200 -18.956300
H -21.146300 -11.234000 -17.705700
C -20.854800 -14.342000 -18.525900
C -20.775300 -12.083700 -17.783500
C -19.595000 -14.509800 -17.999800
C -19.513400 -12.347000 -17.280900
H -19.186700 -15.340400 -18.090200
H -19.051300 -11.655900 -16.864600
N -18.927000 -13.540900 -17.363700
18
Fragment
H -24.391500 -10.471800 -22.736100
O -24.346500 -12.424100 -23.880700
O -23.733200 -10.852000 -22.430000
C -23.579600 -12.007400 -23.027500
H -23.021200 -14.530900 -23.394600
C -22.390100 -12.789900 -22.592200
C -22.323300 -14.134600 -22.923900
H -21.370200 -11.301800 -21.671100
C -21.326800 -12.199600 -21.911700
C -21.222600 -14.889600 -22.557300
H -21.199100 -15.798500 -22.753800
C -20.202100 -12.949200 -21.590800
C -20.163200 -14.299800 -21.903400
H -19.420200 -14.808600 -21.671100
O -19.074200 -11.039000 -20.772400
C -19.020100 -12.347000 -20.900900
H -18.408800 -10.775900 -20.370400
O -18.106400 -13.025800 -20.492700
46
Fragment
H -28.662000 -11.798700 -21.669700
N -28.226000 -10.090700 -20.826800
C -28.032100 -11.369600 -21.137300
H -27.449100 -8.607200 -19.819500
C -27.313100 -9.495000 -20.058300
C -26.941800 -12.081700 -20.705700
H -26.854600 -12.980200 -20.928700
C -26.172100 -10.130900 -19.598000
C -25.969000 -11.458400 -19.935000
H -25.554800 -9.674700 -19.072700
N -24.888600 -13.591000 -19.429600
C -24.823900 -12.279900 -19.510800
N -23.655800 -14.041800 -19.014500
N -23.573700 -11.860900 -19.164600
H -23.438000 -10.065700 -18.538000
H -23.190900 -10.217100 -20.103800
N -23.028500 -10.565300 -19.235500
C -22.877000 -12.992700 -18.869000
C -21.481400 -13.103900 -18.405300
H -21.282700 -15.046200 -18.956300
H -21.146300 -11.234000 -17.705700
C -20.854800 -14.342000 -18.525900
C -20.775300 -12.083700 -17.783500
C -19.595000 -14.509800 -17.999800
C -19.513400 -12.347000 -17.280900
H -19.186700 -15.340400 -18.090200
H -19.051300 -11.655900 -16.864600
N -18.927000 -13.540900 -17.363700
H -24.391500 -10.471800 -22.736100
O -24.346500 -12.424100 -23.880700
O -23.733200 -10.852000 -22.430000
C -23.579600 -12.007400 -23.027500
H -23.021200 -14.530900 -23.394600
C -22.390100 -12.789900 -22.592200
C -22.323300 -14.134600 -22.923900
H -21.370200 -11.301800 -21.671100
C -21.326800 -12.199600 -21.911700
C -21.222600 -14.889600 -22.557300
H -21.199100 -15.798500 -22.753800
C -20.202100 -12.949200 -21.590800
C -20.163200 -14.299800 -21.903400
H -19.420200 -14.808600 -21.671100
O -19.074200 -11.039000 -20.772400
C -19.020100 -12.347000 -20.900900
H -18.408800 -10.775900 -20.370400
O -18.106400 -13.025800 -20.492700
