28
Fragment
H -28.662000 -11.798700 -21.669700
N -28.226000 -10.090700 -20.826800
C -28.032100 -11.369600 -21.137300
H -27.449100 -8.607200 -19.819500
C -27.313100 -9.495000 -20.058300
C -26.941800 -12.081700 -20.705700
H -26.854600 -12.980200 -20.928700
C -26.172100 -10.130900 -19.598000
C -25.969000 -11.458400 -19.935000
H -25.554800 -9.674700 -19.072700
N -24.888600 -13.591000 -19.429600
C -24.823900 -12.279900 -19.510800
N -23.655800 -14.041800 -19.014500
N -23.573700 -11.860900 -19.164600
H -23.438000 -10.065700 -18.538000
H -23.190900 -10.217100 -20.103800
N -23.028500 -10.565300 -19.235500
C -22.877000 -12.992700 -18.869000
C -21.481400 -13.103900 -18.405300
H -21.282700 -15.046200 -18.956300
H -21.146300 -11.234000 -17.705700
C -20.854800 -14.342000 -18.525900
C -20.775300 -12.083700 -17.783500
C -19.595000 -14.509800 -17.999800
C -19.513400 -12.347000 -17.280900
H -19.186700 -15.340400 -18.090200
H -19.051300 -11.655900 -16.864600
N -18.927000 -13.540900 -17.363700
28
Fragment
N -16.866100 -16.831900 -19.461900
H -16.741900 -14.946800 -19.960900
H -16.606500 -18.631400 -18.735400
C -16.279800 -15.637900 -19.544700
C -16.198100 -17.800700 -18.825800
C -15.017900 -15.374700 -19.042100
C -14.938400 -17.632900 -18.299700
H -14.646900 -14.524900 -19.119800
H -14.510500 -18.337200 -17.869300
C -14.311800 -16.394900 -18.420300
C -12.916200 -16.283600 -17.956600
N -12.764700 -13.856200 -17.590100
H -12.602200 -13.508000 -16.721800
H -12.355100 -13.356600 -18.287600
N -12.219500 -15.151900 -17.661000
N -12.137400 -17.332800 -17.811100
C -10.969300 -15.570800 -17.314800
N -10.904500 -16.881900 -17.396000
H -10.238400 -12.965700 -17.752900
C -9.824200 -14.749400 -16.890600
C -9.621100 -13.421800 -17.227600
H -8.938600 -16.271100 -15.896900
C -8.851400 -15.372700 -16.119900
C -8.480100 -12.786000 -16.767300
H -8.344100 -11.898100 -17.006100
C -7.761100 -14.660500 -15.688300
N -7.567200 -13.381700 -15.998800
H -7.131200 -15.089700 -15.155900
56
Fragment
H -28.662000 -11.798700 -21.669700
N -28.226000 -10.090700 -20.826800
C -28.032100 -11.369600 -21.137300
H -27.449100 -8.607200 -19.819500
C -27.313100 -9.495000 -20.058300
C -26.941800 -12.081700 -20.705700
H -26.854600 -12.980200 -20.928700
C -26.172100 -10.130900 -19.598000
C -25.969000 -11.458400 -19.935000
H -25.554800 -9.674700 -19.072700
N -24.888600 -13.591000 -19.429600
C -24.823900 -12.279900 -19.510800
N -23.655800 -14.041800 -19.014500
N -23.573700 -11.860900 -19.164600
H -23.438000 -10.065700 -18.538000
H -23.190900 -10.217100 -20.103800
N -23.028500 -10.565300 -19.235500
C -22.877000 -12.992700 -18.869000
C -21.481400 -13.103900 -18.405300
H -21.282700 -15.046200 -18.956300
H -21.146300 -11.234000 -17.705700
C -20.854800 -14.342000 -18.525900
C -20.775300 -12.083700 -17.783500
C -19.595000 -14.509800 -17.999800
C -19.513400 -12.347000 -17.280900
H -19.186700 -15.340400 -18.090200
H -19.051300 -11.655900 -16.864600
N -18.927000 -13.540900 -17.363700
N -16.866100 -16.831900 -19.461900
H -16.741900 -14.946800 -19.960900
H -16.606500 -18.631400 -18.735400
C -16.279800 -15.637900 -19.544700
C -16.198100 -17.800700 -18.825800
C -15.017900 -15.374700 -19.042100
C -14.938400 -17.632900 -18.299700
H -14.646900 -14.524900 -19.119800
H -14.510500 -18.337200 -17.869300
C -14.311800 -16.394900 -18.420300
C -12.916200 -16.283600 -17.956600
N -12.764700 -13.856200 -17.590100
H -12.602200 -13.508000 -16.721800
H -12.355100 -13.356600 -18.287600
N -12.219500 -15.151900 -17.661000
N -12.137400 -17.332800 -17.811100
C -10.969300 -15.570800 -17.314800
N -10.904500 -16.881900 -17.396000
H -10.238400 -12.965700 -17.752900
C -9.824200 -14.749400 -16.890600
C -9.621100 -13.421800 -17.227600
H -8.938600 -16.271100 -15.896900
C -8.851400 -15.372700 -16.119900
C -8.480100 -12.786000 -16.767300
H -8.344100 -11.898100 -17.006100
C -7.761100 -14.660500 -15.688300
N -7.567200 -13.381700 -15.998800
H -7.131200 -15.089700 -15.155900
