28
Fragment
H -28.662000 -11.798700 -21.669700
N -28.226000 -10.090700 -20.826800
C -28.032100 -11.369600 -21.137300
H -27.449100 -8.607200 -19.819500
C -27.313100 -9.495000 -20.058300
C -26.941800 -12.081700 -20.705700
H -26.854600 -12.980200 -20.928700
C -26.172100 -10.130900 -19.598000
C -25.969000 -11.458400 -19.935000
H -25.554800 -9.674700 -19.072700
N -24.888600 -13.591000 -19.429600
C -24.823900 -12.279900 -19.510800
N -23.655800 -14.041800 -19.014500
N -23.573700 -11.860900 -19.164600
H -23.438000 -10.065700 -18.538000
H -23.190900 -10.217100 -20.103800
N -23.028500 -10.565300 -19.235500
C -22.877000 -12.992700 -18.869000
C -21.481400 -13.103900 -18.405300
H -21.282700 -15.046200 -18.956300
H -21.146300 -11.234000 -17.705700
C -20.854800 -14.342000 -18.525900
C -20.775300 -12.083700 -17.783500
C -19.595000 -14.509800 -17.999800
C -19.513400 -12.347000 -17.280900
H -19.186700 -15.340400 -18.090200
H -19.051300 -11.655900 -16.864600
N -18.927000 -13.540900 -17.363700
28
Fragment
N -35.401500 -10.250000 -19.461900
H -35.277300 -8.364900 -19.960900
H -35.141900 -12.049500 -18.735400
C -34.815200 -9.056000 -19.544700
C -34.733500 -11.218800 -18.825800
C -33.553300 -8.792800 -19.042100
C -33.473800 -11.051000 -18.299700
H -33.182300 -7.943000 -19.119800
H -33.045900 -11.755300 -17.869300
C -32.847200 -9.813000 -18.420300
C -31.451600 -9.701700 -17.956600
N -31.300100 -7.274300 -17.590100
H -31.137600 -6.926100 -16.721800
H -30.890500 -6.774700 -18.287600
N -30.754900 -8.570000 -17.661000
N -30.672800 -10.750900 -17.811100
C -29.504700 -8.988900 -17.314800
N -29.439900 -10.300000 -17.396000
H -28.773800 -6.383800 -17.752900
C -28.359600 -8.167500 -16.890600
C -28.156500 -6.839900 -17.227600
H -27.474000 -9.689200 -15.896900
C -27.386800 -8.790800 -16.119900
C -27.015500 -6.204100 -16.767300
H -26.879500 -5.316200 -17.006100
C -26.296500 -8.078600 -15.688300
N -26.102600 -6.799800 -15.998800
H -25.666600 -8.507800 -15.155900
56
Fragment
H -28.662000 -11.798700 -21.669700
N -28.226000 -10.090700 -20.826800
C -28.032100 -11.369600 -21.137300
H -27.449100 -8.607200 -19.819500
C -27.313100 -9.495000 -20.058300
C -26.941800 -12.081700 -20.705700
H -26.854600 -12.980200 -20.928700
C -26.172100 -10.130900 -19.598000
C -25.969000 -11.458400 -19.935000
H -25.554800 -9.674700 -19.072700
N -24.888600 -13.591000 -19.429600
C -24.823900 -12.279900 -19.510800
N -23.655800 -14.041800 -19.014500
N -23.573700 -11.860900 -19.164600
H -23.438000 -10.065700 -18.538000
H -23.190900 -10.217100 -20.103800
N -23.028500 -10.565300 -19.235500
C -22.877000 -12.992700 -18.869000
C -21.481400 -13.103900 -18.405300
H -21.282700 -15.046200 -18.956300
H -21.146300 -11.234000 -17.705700
C -20.854800 -14.342000 -18.525900
C -20.775300 -12.083700 -17.783500
C -19.595000 -14.509800 -17.999800
C -19.513400 -12.347000 -17.280900
H -19.186700 -15.340400 -18.090200
H -19.051300 -11.655900 -16.864600
N -18.927000 -13.540900 -17.363700
N -35.401500 -10.250000 -19.461900
H -35.277300 -8.364900 -19.960900
H -35.141900 -12.049500 -18.735400
C -34.815200 -9.056000 -19.544700
C -34.733500 -11.218800 -18.825800
C -33.553300 -8.792800 -19.042100
C -33.473800 -11.051000 -18.299700
H -33.182300 -7.943000 -19.119800
H -33.045900 -11.755300 -17.869300
C -32.847200 -9.813000 -18.420300
C -31.451600 -9.701700 -17.956600
N -31.300100 -7.274300 -17.590100
H -31.137600 -6.926100 -16.721800
H -30.890500 -6.774700 -18.287600
N -30.754900 -8.570000 -17.661000
N -30.672800 -10.750900 -17.811100
C -29.504700 -8.988900 -17.314800
N -29.439900 -10.300000 -17.396000
H -28.773800 -6.383800 -17.752900
C -28.359600 -8.167500 -16.890600
C -28.156500 -6.839900 -17.227600
H -27.474000 -9.689200 -15.896900
C -27.386800 -8.790800 -16.119900
C -27.015500 -6.204100 -16.767300
H -26.879500 -5.316200 -17.006100
C -26.296500 -8.078600 -15.688300
N -26.102600 -6.799800 -15.998800
H -25.666600 -8.507800 -15.155900
