28
Fragment
H -28.662000 -11.798700 -21.669700
N -28.226000 -10.090700 -20.826800
C -28.032100 -11.369600 -21.137300
H -27.449100 -8.607200 -19.819500
C -27.313100 -9.495000 -20.058300
C -26.941800 -12.081700 -20.705700
H -26.854600 -12.980200 -20.928700
C -26.172100 -10.130900 -19.598000
C -25.969000 -11.458400 -19.935000
H -25.554800 -9.674700 -19.072700
N -24.888600 -13.591000 -19.429600
C -24.823900 -12.279900 -19.510800
N -23.655800 -14.041800 -19.014500
N -23.573700 -11.860900 -19.164600
H -23.438000 -10.065700 -18.538000
H -23.190900 -10.217100 -20.103800
N -23.028500 -10.565300 -19.235500
C -22.877000 -12.992700 -18.869000
C -21.481400 -13.103900 -18.405300
H -21.282700 -15.046200 -18.956300
H -21.146300 -11.234000 -17.705700
C -20.854800 -14.342000 -18.525900
C -20.775300 -12.083700 -17.783500
C -19.595000 -14.509800 -17.999800
C -19.513400 -12.347000 -17.280900
H -19.186700 -15.340400 -18.090200
H -19.051300 -11.655900 -16.864600
N -18.927000 -13.540900 -17.363700
28
Fragment
N -35.146000 -6.204800 -26.827000
H -35.021800 -8.089800 -27.326100
H -34.886300 -4.405300 -26.100500
C -34.559700 -7.398700 -26.909800
C -34.478000 -5.235900 -26.191000
C -33.297800 -7.662000 -26.407200
C -33.218300 -5.403700 -25.664800
H -32.926800 -8.511700 -26.485000
H -32.790400 -4.699500 -25.234400
C -32.591600 -6.641800 -25.785400
C -31.196100 -6.753000 -25.321700
N -31.044600 -9.180400 -24.955200
H -30.882100 -9.528600 -24.086900
H -30.635000 -9.680000 -25.652700
N -30.499400 -7.884800 -25.026100
N -30.417300 -5.703900 -25.176200
C -29.249100 -7.465800 -24.679900
N -29.184400 -6.154700 -24.761100
H -28.518300 -10.071000 -25.118000
C -28.104100 -8.287300 -24.255700
C -27.900900 -9.614800 -24.592700
H -27.218500 -6.765500 -23.262000
C -27.131200 -7.664000 -23.485000
C -26.759900 -10.250700 -24.132400
H -26.623900 -11.138500 -24.371200
C -26.040900 -8.376100 -23.053400
N -25.847000 -9.655000 -23.363900
H -25.411000 -7.947000 -22.521100
56
Fragment
H -28.662000 -11.798700 -21.669700
N -28.226000 -10.090700 -20.826800
C -28.032100 -11.369600 -21.137300
H -27.449100 -8.607200 -19.819500
C -27.313100 -9.495000 -20.058300
C -26.941800 -12.081700 -20.705700
H -26.854600 -12.980200 -20.928700
C -26.172100 -10.130900 -19.598000
C -25.969000 -11.458400 -19.935000
H -25.554800 -9.674700 -19.072700
N -24.888600 -13.591000 -19.429600
C -24.823900 -12.279900 -19.510800
N -23.655800 -14.041800 -19.014500
N -23.573700 -11.860900 -19.164600
H -23.438000 -10.065700 -18.538000
H -23.190900 -10.217100 -20.103800
N -23.028500 -10.565300 -19.235500
C -22.877000 -12.992700 -18.869000
C -21.481400 -13.103900 -18.405300
H -21.282700 -15.046200 -18.956300
H -21.146300 -11.234000 -17.705700
C -20.854800 -14.342000 -18.525900
C -20.775300 -12.083700 -17.783500
C -19.595000 -14.509800 -17.999800
C -19.513400 -12.347000 -17.280900
H -19.186700 -15.340400 -18.090200
H -19.051300 -11.655900 -16.864600
N -18.927000 -13.540900 -17.363700
N -35.146000 -6.204800 -26.827000
H -35.021800 -8.089800 -27.326100
H -34.886300 -4.405300 -26.100500
C -34.559700 -7.398700 -26.909800
C -34.478000 -5.235900 -26.191000
C -33.297800 -7.662000 -26.407200
C -33.218300 -5.403700 -25.664800
H -32.926800 -8.511700 -26.485000
H -32.790400 -4.699500 -25.234400
C -32.591600 -6.641800 -25.785400
C -31.196100 -6.753000 -25.321700
N -31.044600 -9.180400 -24.955200
H -30.882100 -9.528600 -24.086900
H -30.635000 -9.680000 -25.652700
N -30.499400 -7.884800 -25.026100
N -30.417300 -5.703900 -25.176200
C -29.249100 -7.465800 -24.679900
N -29.184400 -6.154700 -24.761100
H -28.518300 -10.071000 -25.118000
C -28.104100 -8.287300 -24.255700
C -27.900900 -9.614800 -24.592700
H -27.218500 -6.765500 -23.262000
C -27.131200 -7.664000 -23.485000
C -26.759900 -10.250700 -24.132400
H -26.623900 -11.138500 -24.371200
C -26.040900 -8.376100 -23.053400
N -25.847000 -9.655000 -23.363900
H -25.411000 -7.947000 -22.521100
