28
Fragment
H -32.967800 -16.725500 -16.791400
N -32.327600 -18.565300 -16.671200
C -32.238600 -17.272500 -16.976300
H -31.317700 -20.232700 -16.740800
C -31.269200 -19.325300 -16.938500
C -31.120800 -16.699000 -17.552500
H -31.106400 -15.790200 -17.752000
C -30.110200 -18.840300 -17.491600
C -30.018200 -17.497300 -17.829400
H -29.507700 -14.203200 -18.595400
H -29.389400 -19.409300 -17.639100
H -28.940200 -14.591600 -17.263000
N -28.809100 -14.555800 -18.152700
C -28.766500 -17.051300 -18.465500
N -28.277000 -15.780900 -18.598100
N -27.914100 -17.910100 -18.970200
H -27.192400 -13.193400 -19.437300
C -27.068900 -15.922100 -19.207000
N -26.839100 -17.198000 -19.445300
C -26.352500 -13.526500 -19.657700
C -26.100600 -14.885000 -19.592600
H -25.527000 -11.762600 -20.079700
C -25.350400 -12.675200 -20.050600
C -24.823000 -15.323600 -19.953800
H -24.613000 -16.228700 -19.924900
N -24.129400 -13.102000 -20.393400
C -23.882800 -14.408800 -20.350000
H -23.039000 -14.713300 -20.599000
20
Fragment
H -40.715100 -21.115000 -13.552300
O -40.080200 -21.611100 -13.706500
O -39.162100 -19.722700 -14.474100
C -39.136300 -20.937300 -14.307200
H -38.908400 -23.556200 -14.810900
C -38.122000 -23.119100 -15.044600
C -37.990500 -21.760700 -14.807600
H -37.791300 -25.612000 -15.379500
N -37.242500 -25.188200 -15.952900
C -37.077100 -23.833400 -15.632900
C -36.808900 -21.116400 -15.122400
H -36.711900 -20.212000 -14.929500
H -36.468400 -25.628200 -16.086900
C -35.915200 -23.156700 -15.982600
C -35.772200 -21.804200 -15.721700
H -35.222600 -23.619600 -16.397900
O -34.552300 -19.800600 -15.888000
C -34.522500 -21.095100 -16.146200
H -33.842700 -19.459400 -16.118700
O -33.593800 -21.650800 -16.687400
48
Fragment
H -32.967800 -16.725500 -16.791400
N -32.327600 -18.565300 -16.671200
C -32.238600 -17.272500 -16.976300
H -31.317700 -20.232700 -16.740800
C -31.269200 -19.325300 -16.938500
C -31.120800 -16.699000 -17.552500
H -31.106400 -15.790200 -17.752000
C -30.110200 -18.840300 -17.491600
C -30.018200 -17.497300 -17.829400
H -29.507700 -14.203200 -18.595400
H -29.389400 -19.409300 -17.639100
H -28.940200 -14.591600 -17.263000
N -28.809100 -14.555800 -18.152700
C -28.766500 -17.051300 -18.465500
N -28.277000 -15.780900 -18.598100
N -27.914100 -17.910100 -18.970200
H -27.192400 -13.193400 -19.437300
C -27.068900 -15.922100 -19.207000
N -26.839100 -17.198000 -19.445300
C -26.352500 -13.526500 -19.657700
C -26.100600 -14.885000 -19.592600
H -25.527000 -11.762600 -20.079700
C -25.350400 -12.675200 -20.050600
C -24.823000 -15.323600 -19.953800
H -24.613000 -16.228700 -19.924900
N -24.129400 -13.102000 -20.393400
C -23.882800 -14.408800 -20.350000
H -23.039000 -14.713300 -20.599000
H -40.715100 -21.115000 -13.552300
O -40.080200 -21.611100 -13.706500
O -39.162100 -19.722700 -14.474100
C -39.136300 -20.937300 -14.307200
H -38.908400 -23.556200 -14.810900
C -38.122000 -23.119100 -15.044600
C -37.990500 -21.760700 -14.807600
H -37.791300 -25.612000 -15.379500
N -37.242500 -25.188200 -15.952900
C -37.077100 -23.833400 -15.632900
C -36.808900 -21.116400 -15.122400
H -36.711900 -20.212000 -14.929500
H -36.468400 -25.628200 -16.086900
C -35.915200 -23.156700 -15.982600
C -35.772200 -21.804200 -15.721700
H -35.222600 -23.619600 -16.397900
O -34.552300 -19.800600 -15.888000
C -34.522500 -21.095100 -16.146200
H -33.842700 -19.459400 -16.118700
O -33.593800 -21.650800 -16.687400
