28
Fragment
H -28.662000 -11.798700 -21.669700
N -28.226000 -10.090700 -20.826800
C -28.032100 -11.369600 -21.137300
H -27.449100 -8.607200 -19.819500
C -27.313100 -9.495000 -20.058300
C -26.941800 -12.081700 -20.705700
H -26.854600 -12.980200 -20.928700
C -26.172100 -10.130900 -19.598000
C -25.969000 -11.458400 -19.935000
H -25.554800 -9.674700 -19.072700
N -24.888600 -13.591000 -19.429600
C -24.823900 -12.279900 -19.510800
N -23.655800 -14.041800 -19.014500
N -23.573700 -11.860900 -19.164600
H -23.438000 -10.065700 -18.538000
H -23.190900 -10.217100 -20.103800
N -23.028500 -10.565300 -19.235500
C -22.877000 -12.992700 -18.869000
C -21.481400 -13.103900 -18.405300
H -21.282700 -15.046200 -18.956300
H -21.146300 -11.234000 -17.705700
C -20.854800 -14.342000 -18.525900
C -20.775300 -12.083700 -17.783500
C -19.595000 -14.509800 -17.999800
C -19.513400 -12.347000 -17.280900
H -19.186700 -15.340400 -18.090200
H -19.051300 -11.655900 -16.864600
N -18.927000 -13.540900 -17.363700
28
Fragment
H -28.662000 -18.380600 -21.669700
N -28.226000 -16.672600 -20.826800
C -28.032100 -17.951500 -21.137300
H -27.449100 -15.189100 -19.819500
C -27.313100 -16.076900 -20.058300
C -26.941800 -18.663600 -20.705700
H -26.854600 -19.562100 -20.928700
C -26.172100 -16.712800 -19.598000
C -25.969000 -18.040300 -19.935000
H -25.554800 -16.256600 -19.072700
N -24.888600 -20.172900 -19.429600
C -24.823900 -18.861800 -19.510800
N -23.655800 -20.623700 -19.014500
N -23.573700 -18.442800 -19.164600
H -23.438000 -16.647600 -18.538000
H -23.190900 -16.799000 -20.103800
N -23.028500 -17.147200 -19.235500
C -22.877000 -19.574600 -18.869000
C -21.481400 -19.685800 -18.405300
H -21.282700 -21.628100 -18.956300
H -21.146300 -17.815900 -17.705700
C -20.854800 -20.923900 -18.525900
C -20.775300 -18.665600 -17.783500
C -19.595000 -21.091700 -17.999800
C -19.513400 -18.928900 -17.280900
H -19.186700 -21.922300 -18.090200
H -19.051300 -18.237800 -16.864600
N -18.927000 -20.122800 -17.363700
56
Fragment
H -28.662000 -11.798700 -21.669700
N -28.226000 -10.090700 -20.826800
C -28.032100 -11.369600 -21.137300
H -27.449100 -8.607200 -19.819500
C -27.313100 -9.495000 -20.058300
C -26.941800 -12.081700 -20.705700
H -26.854600 -12.980200 -20.928700
C -26.172100 -10.130900 -19.598000
C -25.969000 -11.458400 -19.935000
H -25.554800 -9.674700 -19.072700
N -24.888600 -13.591000 -19.429600
C -24.823900 -12.279900 -19.510800
N -23.655800 -14.041800 -19.014500
N -23.573700 -11.860900 -19.164600
H -23.438000 -10.065700 -18.538000
H -23.190900 -10.217100 -20.103800
N -23.028500 -10.565300 -19.235500
C -22.877000 -12.992700 -18.869000
C -21.481400 -13.103900 -18.405300
H -21.282700 -15.046200 -18.956300
H -21.146300 -11.234000 -17.705700
C -20.854800 -14.342000 -18.525900
C -20.775300 -12.083700 -17.783500
C -19.595000 -14.509800 -17.999800
C -19.513400 -12.347000 -17.280900
H -19.186700 -15.340400 -18.090200
H -19.051300 -11.655900 -16.864600
N -18.927000 -13.540900 -17.363700
H -28.662000 -18.380600 -21.669700
N -28.226000 -16.672600 -20.826800
C -28.032100 -17.951500 -21.137300
H -27.449100 -15.189100 -19.819500
C -27.313100 -16.076900 -20.058300
C -26.941800 -18.663600 -20.705700
H -26.854600 -19.562100 -20.928700
C -26.172100 -16.712800 -19.598000
C -25.969000 -18.040300 -19.935000
H -25.554800 -16.256600 -19.072700
N -24.888600 -20.172900 -19.429600
C -24.823900 -18.861800 -19.510800
N -23.655800 -20.623700 -19.014500
N -23.573700 -18.442800 -19.164600
H -23.438000 -16.647600 -18.538000
H -23.190900 -16.799000 -20.103800
N -23.028500 -17.147200 -19.235500
C -22.877000 -19.574600 -18.869000
C -21.481400 -19.685800 -18.405300
H -21.282700 -21.628100 -18.956300
H -21.146300 -17.815900 -17.705700
C -20.854800 -20.923900 -18.525900
C -20.775300 -18.665600 -17.783500
C -19.595000 -21.091700 -17.999800
C -19.513400 -18.928900 -17.280900
H -19.186700 -21.922300 -18.090200
H -19.051300 -18.237800 -16.864600
N -18.927000 -20.122800 -17.363700
