28
Fragment
H -32.967800 -16.725500 -16.791400
N -32.327600 -18.565300 -16.671200
C -32.238600 -17.272500 -16.976300
H -31.317700 -20.232700 -16.740800
C -31.269200 -19.325300 -16.938500
C -31.120800 -16.699000 -17.552500
H -31.106400 -15.790200 -17.752000
C -30.110200 -18.840300 -17.491600
C -30.018200 -17.497300 -17.829400
H -29.507700 -14.203200 -18.595400
H -29.389400 -19.409300 -17.639100
H -28.940200 -14.591600 -17.263000
N -28.809100 -14.555800 -18.152700
C -28.766500 -17.051300 -18.465500
N -28.277000 -15.780900 -18.598100
N -27.914100 -17.910100 -18.970200
H -27.192400 -13.193400 -19.437300
C -27.068900 -15.922100 -19.207000
N -26.839100 -17.198000 -19.445300
C -26.352500 -13.526500 -19.657700
C -26.100600 -14.885000 -19.592600
H -25.527000 -11.762600 -20.079700
C -25.350400 -12.675200 -20.050600
C -24.823000 -15.323600 -19.953800
H -24.613000 -16.228700 -19.924900
N -24.129400 -13.102000 -20.393400
C -23.882800 -14.408800 -20.350000
H -23.039000 -14.713300 -20.599000
28
Fragment
H -27.750700 -11.027800 -15.567500
C -26.906800 -10.723300 -15.816500
N -26.660200 -9.416500 -15.773100
H -26.176700 -12.543200 -16.241700
C -25.966700 -11.638100 -16.212700
C -25.439300 -8.989700 -16.116000
H -25.262700 -8.077100 -16.086900
C -24.689100 -11.199500 -16.574000
C -24.437100 -9.841000 -16.508900
N -23.950500 -13.512500 -16.721200
C -23.720700 -12.236600 -16.959500
H -23.597200 -9.507900 -16.729200
N -22.875600 -14.224600 -17.196300
N -22.512600 -12.095400 -17.568400
C -22.023200 -13.365800 -17.701100
N -21.980600 -10.870300 -18.013800
H -21.849500 -10.906100 -18.903500
H -21.400300 -15.723800 -18.527400
H -21.282000 -10.517700 -17.571100
C -20.771500 -13.811800 -18.337200
C -20.679500 -15.154800 -18.675000
H -19.683200 -12.104700 -18.414600
C -19.668900 -13.013500 -18.614000
C -19.520500 -15.639800 -19.228000
H -19.472000 -16.547200 -19.425800
C -18.551000 -13.587000 -19.190300
N -18.462100 -14.879800 -19.495400
H -17.821900 -13.040000 -19.375100
56
Fragment
H -32.967800 -16.725500 -16.791400
N -32.327600 -18.565300 -16.671200
C -32.238600 -17.272500 -16.976300
H -31.317700 -20.232700 -16.740800
C -31.269200 -19.325300 -16.938500
C -31.120800 -16.699000 -17.552500
H -31.106400 -15.790200 -17.752000
C -30.110200 -18.840300 -17.491600
C -30.018200 -17.497300 -17.829400
H -29.507700 -14.203200 -18.595400
H -29.389400 -19.409300 -17.639100
H -28.940200 -14.591600 -17.263000
N -28.809100 -14.555800 -18.152700
C -28.766500 -17.051300 -18.465500
N -28.277000 -15.780900 -18.598100
N -27.914100 -17.910100 -18.970200
H -27.192400 -13.193400 -19.437300
C -27.068900 -15.922100 -19.207000
N -26.839100 -17.198000 -19.445300
C -26.352500 -13.526500 -19.657700
C -26.100600 -14.885000 -19.592600
H -25.527000 -11.762600 -20.079700
C -25.350400 -12.675200 -20.050600
C -24.823000 -15.323600 -19.953800
H -24.613000 -16.228700 -19.924900
N -24.129400 -13.102000 -20.393400
C -23.882800 -14.408800 -20.350000
H -23.039000 -14.713300 -20.599000
H -27.750700 -11.027800 -15.567500
C -26.906800 -10.723300 -15.816500
N -26.660200 -9.416500 -15.773100
H -26.176700 -12.543200 -16.241700
C -25.966700 -11.638100 -16.212700
C -25.439300 -8.989700 -16.116000
H -25.262700 -8.077100 -16.086900
C -24.689100 -11.199500 -16.574000
C -24.437100 -9.841000 -16.508900
N -23.950500 -13.512500 -16.721200
C -23.720700 -12.236600 -16.959500
H -23.597200 -9.507900 -16.729200
N -22.875600 -14.224600 -17.196300
N -22.512600 -12.095400 -17.568400
C -22.023200 -13.365800 -17.701100
N -21.980600 -10.870300 -18.013800
H -21.849500 -10.906100 -18.903500
H -21.400300 -15.723800 -18.527400
H -21.282000 -10.517700 -17.571100
C -20.771500 -13.811800 -18.337200
C -20.679500 -15.154800 -18.675000
H -19.683200 -12.104700 -18.414600
C -19.668900 -13.013500 -18.614000
C -19.520500 -15.639800 -19.228000
H -19.472000 -16.547200 -19.425800
C -18.551000 -13.587000 -19.190300
N -18.462100 -14.879800 -19.495400
H -17.821900 -13.040000 -19.375100
