8
Fragment
H -17.229100 -28.624900 -18.757200
H -17.077400 -29.634800 -17.559500
N -17.021700 -28.842100 -17.870300
C -16.487300 -27.884800 -17.105300
O -16.329400 -26.718600 -17.558400
H -16.231200 -28.961800 -15.541800
N -16.111100 -28.187700 -15.874100
H -15.830400 -27.549600 -15.399400
18
Fragment
H -14.726800 -30.337200 -20.852600
H -14.535000 -32.417000 -19.741200
C -14.361000 -30.375000 -19.898800
C -14.300600 -31.586000 -19.283800
O -14.114700 -33.941000 -17.987900
O -14.074900 -28.063200 -19.888000
C -13.960000 -29.212700 -19.224400
C -13.839600 -31.664100 -17.978200
N -13.808300 -32.961800 -17.334000
H -13.792100 -27.388200 -19.323700
C -13.474500 -29.306600 -17.901600
O -13.467500 -33.052600 -16.170900
C -13.425700 -30.546700 -17.285500
H -13.097100 -30.587000 -16.389900
C -13.026200 -28.086100 -17.195900
O -13.012800 -27.000000 -17.744000
O -12.642600 -28.272300 -15.955100
H -12.374200 -27.482100 -15.601200
26
Fragment
H -17.229100 -28.624900 -18.757200
H -17.077400 -29.634800 -17.559500
N -17.021700 -28.842100 -17.870300
C -16.487300 -27.884800 -17.105300
O -16.329400 -26.718600 -17.558400
H -16.231200 -28.961800 -15.541800
N -16.111100 -28.187700 -15.874100
H -15.830400 -27.549600 -15.399400
H -14.726800 -30.337200 -20.852600
H -14.535000 -32.417000 -19.741200
C -14.361000 -30.375000 -19.898800
C -14.300600 -31.586000 -19.283800
O -14.114700 -33.941000 -17.987900
O -14.074900 -28.063200 -19.888000
C -13.960000 -29.212700 -19.224400
C -13.839600 -31.664100 -17.978200
N -13.808300 -32.961800 -17.334000
H -13.792100 -27.388200 -19.323700
C -13.474500 -29.306600 -17.901600
O -13.467500 -33.052600 -16.170900
C -13.425700 -30.546700 -17.285500
H -13.097100 -30.587000 -16.389900
C -13.026200 -28.086100 -17.195900
O -13.012800 -27.000000 -17.744000
O -12.642600 -28.272300 -15.955100
H -12.374200 -27.482100 -15.601200
