8
Fragment
H -17.229100 -28.624900 -18.757200
H -17.077400 -29.634800 -17.559500
N -17.021700 -28.842100 -17.870300
C -16.487300 -27.884800 -17.105300
O -16.329400 -26.718600 -17.558400
H -16.231200 -28.961800 -15.541800
N -16.111100 -28.187700 -15.874100
H -15.830400 -27.549600 -15.399400
18
Fragment
H -19.741700 -32.387300 -24.245000
O -19.315600 -32.917800 -23.610500
O -19.028500 -30.930500 -22.628600
C -18.930700 -32.155000 -22.623200
H -18.467900 -34.724200 -22.239100
H -18.411900 -30.561000 -21.070600
C -18.367100 -32.886600 -21.467600
C -18.227000 -34.268500 -21.490300
O -18.024900 -30.846700 -20.227900
C -17.966100 -32.181600 -20.318500
O -17.847600 -36.964500 -21.452500
C -17.709200 -34.921000 -20.398400
N -17.493300 -36.361200 -20.450100
C -17.481300 -32.880100 -19.210400
C -17.348700 -34.235200 -19.242800
H -17.345500 -32.407400 -18.424900
H -17.026800 -34.745700 -18.539300
O -16.949000 -36.905700 -19.501700
26
Fragment
H -17.229100 -28.624900 -18.757200
H -17.077400 -29.634800 -17.559500
N -17.021700 -28.842100 -17.870300
C -16.487300 -27.884800 -17.105300
O -16.329400 -26.718600 -17.558400
H -16.231200 -28.961800 -15.541800
N -16.111100 -28.187700 -15.874100
H -15.830400 -27.549600 -15.399400
H -19.741700 -32.387300 -24.245000
O -19.315600 -32.917800 -23.610500
O -19.028500 -30.930500 -22.628600
C -18.930700 -32.155000 -22.623200
H -18.467900 -34.724200 -22.239100
H -18.411900 -30.561000 -21.070600
C -18.367100 -32.886600 -21.467600
C -18.227000 -34.268500 -21.490300
O -18.024900 -30.846700 -20.227900
C -17.966100 -32.181600 -20.318500
O -17.847600 -36.964500 -21.452500
C -17.709200 -34.921000 -20.398400
N -17.493300 -36.361200 -20.450100
C -17.481300 -32.880100 -19.210400
C -17.348700 -34.235200 -19.242800
H -17.345500 -32.407400 -18.424900
H -17.026800 -34.745700 -18.539300
O -16.949000 -36.905700 -19.501700
