8
Fragment
H -17.229100 -28.624900 -18.757200
H -17.077400 -29.634800 -17.559500
N -17.021700 -28.842100 -17.870300
C -16.487300 -27.884800 -17.105300
O -16.329400 -26.718600 -17.558400
H -16.231200 -28.961800 -15.541800
N -16.111100 -28.187700 -15.874100
H -15.830400 -27.549600 -15.399400
18
Fragment
H -17.843900 -26.660200 -13.455000
O -17.417700 -27.190700 -12.820600
O -17.130600 -25.203400 -11.838700
C -17.032800 -26.427900 -11.833300
H -16.570100 -28.997100 -11.449200
H -16.514000 -24.833900 -10.280600
C -16.469300 -27.159500 -10.677700
C -16.329100 -28.541400 -10.700400
O -16.127000 -25.119600 -9.437900
C -16.068300 -26.454500 -9.528600
O -15.949700 -31.237400 -10.662600
C -15.811400 -29.193900 -9.608400
N -15.595400 -30.634100 -9.660200
C -15.583400 -27.153100 -8.420500
C -15.450800 -28.508100 -8.452800
H -15.447700 -26.680300 -7.635000
H -15.128900 -29.018600 -7.749300
O -15.051100 -31.178600 -8.711800
26
Fragment
H -17.229100 -28.624900 -18.757200
H -17.077400 -29.634800 -17.559500
N -17.021700 -28.842100 -17.870300
C -16.487300 -27.884800 -17.105300
O -16.329400 -26.718600 -17.558400
H -16.231200 -28.961800 -15.541800
N -16.111100 -28.187700 -15.874100
H -15.830400 -27.549600 -15.399400
H -17.843900 -26.660200 -13.455000
O -17.417700 -27.190700 -12.820600
O -17.130600 -25.203400 -11.838700
C -17.032800 -26.427900 -11.833300
H -16.570100 -28.997100 -11.449200
H -16.514000 -24.833900 -10.280600
C -16.469300 -27.159500 -10.677700
C -16.329100 -28.541400 -10.700400
O -16.127000 -25.119600 -9.437900
C -16.068300 -26.454500 -9.528600
O -15.949700 -31.237400 -10.662600
C -15.811400 -29.193900 -9.608400
N -15.595400 -30.634100 -9.660200
C -15.583400 -27.153100 -8.420500
C -15.450800 -28.508100 -8.452800
H -15.447700 -26.680300 -7.635000
H -15.128900 -29.018600 -7.749300
O -15.051100 -31.178600 -8.711800
