16
Fragment
H -10.520500 -18.059600 -23.074100
C -9.774100 -18.024800 -22.475800
H -9.425300 -20.002600 -22.395900
N -9.414500 -16.819000 -22.038700
C -9.107100 -19.162900 -22.087400
C -8.356100 -16.770800 -21.230700
O -8.282500 -14.401400 -21.320600
N -8.045700 -19.129000 -21.295600
C -8.030600 -15.403100 -20.693600
C -7.645100 -17.918100 -20.892200
O -7.507000 -15.430800 -19.499600
H -7.273300 -14.519300 -19.133700
C -6.398200 -17.931500 -20.056700
O -6.301600 -18.628700 -19.083700
O -5.438600 -17.174800 -20.525000
H -4.647400 -17.303000 -19.981700
16
Fragment
H -8.524000 -12.176500 -23.731000
O -7.732800 -12.048300 -23.187700
O -6.869800 -13.502200 -24.629000
C -6.773200 -12.805000 -23.656100
H -5.898100 -9.392800 -24.579000
O -5.664400 -10.304300 -24.213100
C -5.526300 -12.791600 -22.820500
C -5.140800 -10.276600 -23.019100
N -5.125700 -14.002500 -22.417100
O -4.889000 -9.274900 -22.392200
C -4.815300 -11.644300 -22.482100
C -4.064300 -14.036400 -21.625300
N -3.756900 -11.692500 -21.674000
H -3.746100 -14.876100 -21.316800
C -3.397300 -12.898300 -21.236900
H -2.650900 -12.933100 -20.638700
32
Fragment
H -10.520500 -18.059600 -23.074100
C -9.774100 -18.024800 -22.475800
H -9.425300 -20.002600 -22.395900
N -9.414500 -16.819000 -22.038700
C -9.107100 -19.162900 -22.087400
C -8.356100 -16.770800 -21.230700
O -8.282500 -14.401400 -21.320600
N -8.045700 -19.129000 -21.295600
C -8.030600 -15.403100 -20.693600
C -7.645100 -17.918100 -20.892200
O -7.507000 -15.430800 -19.499600
H -7.273300 -14.519300 -19.133700
C -6.398200 -17.931500 -20.056700
O -6.301600 -18.628700 -19.083700
O -5.438600 -17.174800 -20.525000
H -4.647400 -17.303000 -19.981700
H -8.524000 -12.176500 -23.731000
O -7.732800 -12.048300 -23.187700
O -6.869800 -13.502200 -24.629000
C -6.773200 -12.805000 -23.656100
H -5.898100 -9.392800 -24.579000
O -5.664400 -10.304300 -24.213100
C -5.526300 -12.791600 -22.820500
C -5.140800 -10.276600 -23.019100
N -5.125700 -14.002500 -22.417100
O -4.889000 -9.274900 -22.392200
C -4.815300 -11.644300 -22.482100
C -4.064300 -14.036400 -21.625300
N -3.756900 -11.692500 -21.674000
H -3.746100 -14.876100 -21.316800
C -3.397300 -12.898300 -21.236900
H -2.650900 -12.933100 -20.638700
