8
Fragment
H -11.216500 -19.009800 -28.051900
H -10.401500 -20.335700 -27.993700
N -10.398600 -19.482200 -28.100600
C -9.269900 -18.797300 -28.125000
O -9.269900 -17.549800 -28.125000
N -8.141200 -19.482200 -28.149400
H -8.138200 -20.335700 -28.256200
H -7.323200 -19.009800 -28.198100
17
Fragment
H -13.377500 -26.744300 -35.221900
H -13.270000 -27.271300 -32.898800
N -12.979300 -25.966800 -35.109400
C -12.848800 -26.420200 -32.748800
H -12.832500 -25.381600 -35.823800
H -12.661900 -26.597100 -30.706900
C -12.622600 -25.583400 -33.847500
C -12.506200 -26.022600 -31.490600
C -12.033800 -24.338200 -33.624400
C -11.929200 -24.767900 -31.261900
H -11.883200 -23.798200 -34.365000
C -11.708200 -23.940600 -32.356900
C -11.598500 -24.348900 -29.908100
O -11.541400 -25.116900 -28.950000
O -11.359700 -23.065800 -29.761900
H -11.317400 -23.097800 -32.180600
H -11.146800 -22.880600 -28.908800
25
Fragment
H -11.216500 -19.009800 -28.051900
H -10.401500 -20.335700 -27.993700
N -10.398600 -19.482200 -28.100600
C -9.269900 -18.797300 -28.125000
O -9.269900 -17.549800 -28.125000
N -8.141200 -19.482200 -28.149400
H -8.138200 -20.335700 -28.256200
H -7.323200 -19.009800 -28.198100
H -13.377500 -26.744300 -35.221900
H -13.270000 -27.271300 -32.898800
N -12.979300 -25.966800 -35.109400
C -12.848800 -26.420200 -32.748800
H -12.832500 -25.381600 -35.823800
H -12.661900 -26.597100 -30.706900
C -12.622600 -25.583400 -33.847500
C -12.506200 -26.022600 -31.490600
C -12.033800 -24.338200 -33.624400
C -11.929200 -24.767900 -31.261900
H -11.883200 -23.798200 -34.365000
C -11.708200 -23.940600 -32.356900
C -11.598500 -24.348900 -29.908100
O -11.541400 -25.116900 -28.950000
O -11.359700 -23.065800 -29.761900
H -11.317400 -23.097800 -32.180600
H -11.146800 -22.880600 -28.908800
