8
Fragment
H -11.216500 -19.009800 -28.051900
H -10.401500 -20.335700 -27.993700
N -10.398600 -19.482200 -28.100600
C -9.269900 -18.797300 -28.125000
O -9.269900 -17.549800 -28.125000
N -8.141200 -19.482200 -28.149400
H -8.138200 -20.335700 -28.256200
H -7.323200 -19.009800 -28.198100
17
Fragment
H -5.961600 -20.809300 -30.403100
H -5.854100 -21.336300 -32.726200
N -5.563400 -20.031800 -30.515600
C -5.432900 -20.485200 -32.876200
H -5.416600 -19.446600 -29.801200
H -5.246000 -20.662100 -34.918100
C -5.206700 -19.648400 -31.777500
C -5.090300 -20.087600 -34.134400
C -4.617900 -18.403200 -32.000600
C -4.513300 -18.832900 -34.363100
H -4.467300 -17.863200 -31.260000
C -4.292300 -18.005600 -33.268100
C -4.182600 -18.413900 -35.716900
O -4.125500 -19.181900 -36.675000
O -3.943800 -17.130800 -35.863100
H -3.901500 -17.162800 -33.444400
H -3.730900 -16.945600 -36.716200
25
Fragment
H -11.216500 -19.009800 -28.051900
H -10.401500 -20.335700 -27.993700
N -10.398600 -19.482200 -28.100600
C -9.269900 -18.797300 -28.125000
O -9.269900 -17.549800 -28.125000
N -8.141200 -19.482200 -28.149400
H -8.138200 -20.335700 -28.256200
H -7.323200 -19.009800 -28.198100
H -5.961600 -20.809300 -30.403100
H -5.854100 -21.336300 -32.726200
N -5.563400 -20.031800 -30.515600
C -5.432900 -20.485200 -32.876200
H -5.416600 -19.446600 -29.801200
H -5.246000 -20.662100 -34.918100
C -5.206700 -19.648400 -31.777500
C -5.090300 -20.087600 -34.134400
C -4.617900 -18.403200 -32.000600
C -4.513300 -18.832900 -34.363100
H -4.467300 -17.863200 -31.260000
C -4.292300 -18.005600 -33.268100
C -4.182600 -18.413900 -35.716900
O -4.125500 -19.181900 -36.675000
O -3.943800 -17.130800 -35.863100
H -3.901500 -17.162800 -33.444400
H -3.730900 -16.945600 -36.716200
