8
Fragment
O -10.220300 -17.714800 -16.408000
H -10.212600 -19.732400 -17.668700
N -9.961200 -19.890500 -16.947700
C -9.771000 -18.851700 -16.131700
H -9.539300 -20.721500 -16.756700
N -9.122800 -19.058300 -14.995400
H -8.997200 -18.395800 -14.473300
H -8.765400 -19.816600 -14.857300
17
Fragment
H -12.636900 -17.298100 -26.180300
O -12.440100 -16.792600 -25.380000
C -12.127300 -17.556700 -24.376900
H -12.085900 -14.926200 -23.974300
O -12.080300 -18.764000 -24.424900
C -11.860000 -15.384500 -23.173900
C -11.826300 -16.774100 -23.135700
N -11.512900 -17.475900 -22.040600
C -11.512900 -14.682700 -22.040600
H -11.512900 -13.754700 -22.040600
C -11.199500 -16.774100 -20.945400
C -11.165800 -15.384500 -20.907200
O -10.945500 -18.764000 -19.656300
H -10.939900 -14.926200 -20.106900
C -10.898500 -17.556700 -19.704300
O -10.585700 -16.792600 -18.701200
H -10.388900 -17.298100 -17.900900
25
Fragment
O -10.220300 -17.714800 -16.408000
H -10.212600 -19.732400 -17.668700
N -9.961200 -19.890500 -16.947700
C -9.771000 -18.851700 -16.131700
H -9.539300 -20.721500 -16.756700
N -9.122800 -19.058300 -14.995400
H -8.997200 -18.395800 -14.473300
H -8.765400 -19.816600 -14.857300
H -12.636900 -17.298100 -26.180300
O -12.440100 -16.792600 -25.380000
C -12.127300 -17.556700 -24.376900
H -12.085900 -14.926200 -23.974300
O -12.080300 -18.764000 -24.424900
C -11.860000 -15.384500 -23.173900
C -11.826300 -16.774100 -23.135700
N -11.512900 -17.475900 -22.040600
C -11.512900 -14.682700 -22.040600
H -11.512900 -13.754700 -22.040600
C -11.199500 -16.774100 -20.945400
C -11.165800 -15.384500 -20.907200
O -10.945500 -18.764000 -19.656300
H -10.939900 -14.926200 -20.106900
C -10.898500 -17.556700 -19.704300
O -10.585700 -16.792600 -18.701200
H -10.388900 -17.298100 -17.900900
