8
Fragment
H -11.216500 -19.009800 -28.051900
H -10.401500 -20.335700 -27.993700
N -10.398600 -19.482200 -28.100600
C -9.269900 -18.797300 -28.125000
O -9.269900 -17.549800 -28.125000
N -8.141200 -19.482200 -28.149400
H -8.138200 -20.335700 -28.256200
H -7.323200 -19.009800 -28.198100
17
Fragment
H -11.100900 -24.599400 -27.341200
H -10.930300 -24.382200 -24.069400
O -10.888000 -24.414200 -26.488100
O -10.706300 -22.363100 -27.300000
C -10.649200 -23.131100 -26.341900
C -10.539500 -23.539400 -23.893100
H -10.364500 -23.681800 -21.885000
C -10.318500 -22.712100 -24.988100
C -10.213900 -23.141800 -22.625600
C -9.741500 -21.457400 -24.759400
C -9.625100 -21.896600 -22.402500
H -9.585800 -20.882900 -25.543100
H -9.415200 -22.098400 -20.426200
C -9.398900 -21.059800 -23.501200
N -9.268400 -21.513200 -21.140600
H -8.977700 -20.208700 -23.351200
H -8.870200 -20.735700 -21.028100
25
Fragment
H -11.216500 -19.009800 -28.051900
H -10.401500 -20.335700 -27.993700
N -10.398600 -19.482200 -28.100600
C -9.269900 -18.797300 -28.125000
O -9.269900 -17.549800 -28.125000
N -8.141200 -19.482200 -28.149400
H -8.138200 -20.335700 -28.256200
H -7.323200 -19.009800 -28.198100
H -11.100900 -24.599400 -27.341200
H -10.930300 -24.382200 -24.069400
O -10.888000 -24.414200 -26.488100
O -10.706300 -22.363100 -27.300000
C -10.649200 -23.131100 -26.341900
C -10.539500 -23.539400 -23.893100
H -10.364500 -23.681800 -21.885000
C -10.318500 -22.712100 -24.988100
C -10.213900 -23.141800 -22.625600
C -9.741500 -21.457400 -24.759400
C -9.625100 -21.896600 -22.402500
H -9.585800 -20.882900 -25.543100
H -9.415200 -22.098400 -20.426200
C -9.398900 -21.059800 -23.501200
N -9.268400 -21.513200 -21.140600
H -8.977700 -20.208700 -23.351200
H -8.870200 -20.735700 -21.028100
