8
Fragment
O -10.220300 -17.714800 -16.408000
H -10.212600 -19.732400 -17.668700
N -9.961200 -19.890500 -16.947700
C -9.771000 -18.851700 -16.131700
H -9.539300 -20.721500 -16.756700
N -9.122800 -19.058300 -14.995400
H -8.997200 -18.395800 -14.473300
H -8.765400 -19.816600 -14.857300
8
Fragment
H -7.903600 -19.816600 -19.428000
H -7.671800 -18.395800 -19.812000
N -7.546100 -19.058300 -19.289900
H -7.129700 -20.721500 -17.528600
C -6.898000 -18.851700 -18.153600
N -6.707700 -19.890500 -17.337600
H -6.456400 -19.732400 -16.616600
O -6.448700 -17.714800 -17.877300
16
Fragment
O -10.220300 -17.714800 -16.408000
H -10.212600 -19.732400 -17.668700
N -9.961200 -19.890500 -16.947700
C -9.771000 -18.851700 -16.131700
H -9.539300 -20.721500 -16.756700
N -9.122800 -19.058300 -14.995400
H -8.997200 -18.395800 -14.473300
H -8.765400 -19.816600 -14.857300
H -7.903600 -19.816600 -19.428000
H -7.671800 -18.395800 -19.812000
N -7.546100 -19.058300 -19.289900
H -7.129700 -20.721500 -17.528600
C -6.898000 -18.851700 -18.153600
N -6.707700 -19.890500 -17.337600
H -6.456400 -19.732400 -16.616600
O -6.448700 -17.714800 -17.877300
