16
Fragment
H -10.520500 -18.059600 -23.074100
C -9.774100 -18.024800 -22.475800
H -9.425300 -20.002600 -22.395900
N -9.414500 -16.819000 -22.038700
C -9.107100 -19.162900 -22.087400
C -8.356100 -16.770800 -21.230700
O -8.282500 -14.401400 -21.320600
N -8.045700 -19.129000 -21.295600
C -8.030600 -15.403100 -20.693600
C -7.645100 -17.918100 -20.892200
O -7.507000 -15.430800 -19.499600
H -7.273300 -14.519300 -19.133700
C -6.398200 -17.931500 -20.056700
O -6.301600 -18.628700 -19.083700
O -5.438600 -17.174800 -20.525000
H -4.647400 -17.303000 -19.981700
16
Fragment
H -13.263800 -13.456000 -17.486300
O -12.472600 -13.584200 -16.943100
O -11.609600 -12.130300 -18.384300
C -11.513000 -12.827500 -17.411400
H -10.637900 -16.239700 -18.334400
O -10.404200 -15.328200 -17.968400
C -10.266100 -12.840900 -16.575900
C -9.880600 -15.355900 -16.774400
N -9.865500 -11.630000 -16.172500
O -9.628800 -16.357600 -16.147500
C -9.555100 -13.988200 -16.237400
C -8.804100 -11.596100 -15.380600
N -8.496700 -13.940000 -15.429300
H -8.485900 -10.756400 -15.072200
C -8.137100 -12.734200 -14.992200
H -7.390700 -12.699400 -14.394000
32
Fragment
H -10.520500 -18.059600 -23.074100
C -9.774100 -18.024800 -22.475800
H -9.425300 -20.002600 -22.395900
N -9.414500 -16.819000 -22.038700
C -9.107100 -19.162900 -22.087400
C -8.356100 -16.770800 -21.230700
O -8.282500 -14.401400 -21.320600
N -8.045700 -19.129000 -21.295600
C -8.030600 -15.403100 -20.693600
C -7.645100 -17.918100 -20.892200
O -7.507000 -15.430800 -19.499600
H -7.273300 -14.519300 -19.133700
C -6.398200 -17.931500 -20.056700
O -6.301600 -18.628700 -19.083700
O -5.438600 -17.174800 -20.525000
H -4.647400 -17.303000 -19.981700
H -13.263800 -13.456000 -17.486300
O -12.472600 -13.584200 -16.943100
O -11.609600 -12.130300 -18.384300
C -11.513000 -12.827500 -17.411400
H -10.637900 -16.239700 -18.334400
O -10.404200 -15.328200 -17.968400
C -10.266100 -12.840900 -16.575900
C -9.880600 -15.355900 -16.774400
N -9.865500 -11.630000 -16.172500
O -9.628800 -16.357600 -16.147500
C -9.555100 -13.988200 -16.237400
C -8.804100 -11.596100 -15.380600
N -8.496700 -13.940000 -15.429300
H -8.485900 -10.756400 -15.072200
C -8.137100 -12.734200 -14.992200
H -7.390700 -12.699400 -14.394000
