16
Fragment
H -10.520500 -18.059600 -23.074100
C -9.774100 -18.024800 -22.475800
H -9.425300 -20.002600 -22.395900
N -9.414500 -16.819000 -22.038700
C -9.107100 -19.162900 -22.087400
C -8.356100 -16.770800 -21.230700
O -8.282500 -14.401400 -21.320600
N -8.045700 -19.129000 -21.295600
C -8.030600 -15.403100 -20.693600
C -7.645100 -17.918100 -20.892200
O -7.507000 -15.430800 -19.499600
H -7.273300 -14.519300 -19.133700
C -6.398200 -17.931500 -20.056700
O -6.301600 -18.628700 -19.083700
O -5.438600 -17.174800 -20.525000
H -4.647400 -17.303000 -19.981700
16
Fragment
H -7.535300 -17.825900 -16.829400
C -6.788900 -17.860700 -16.231200
H -6.440100 -15.882900 -16.151200
N -6.429300 -19.066500 -15.794000
C -6.121900 -16.722600 -15.842700
C -5.370900 -19.114700 -14.986000
O -5.297300 -21.484100 -15.075900
N -5.060500 -16.756500 -15.050900
C -5.045400 -20.482400 -14.448900
C -4.659900 -17.967400 -14.647500
O -4.521800 -20.454700 -13.255000
H -4.288100 -21.366200 -12.889000
C -3.413000 -17.954000 -13.812000
O -3.316400 -17.256800 -12.839100
O -2.453400 -18.710700 -14.280300
H -1.662200 -18.582500 -13.737000
32
Fragment
H -10.520500 -18.059600 -23.074100
C -9.774100 -18.024800 -22.475800
H -9.425300 -20.002600 -22.395900
N -9.414500 -16.819000 -22.038700
C -9.107100 -19.162900 -22.087400
C -8.356100 -16.770800 -21.230700
O -8.282500 -14.401400 -21.320600
N -8.045700 -19.129000 -21.295600
C -8.030600 -15.403100 -20.693600
C -7.645100 -17.918100 -20.892200
O -7.507000 -15.430800 -19.499600
H -7.273300 -14.519300 -19.133700
C -6.398200 -17.931500 -20.056700
O -6.301600 -18.628700 -19.083700
O -5.438600 -17.174800 -20.525000
H -4.647400 -17.303000 -19.981700
H -7.535300 -17.825900 -16.829400
C -6.788900 -17.860700 -16.231200
H -6.440100 -15.882900 -16.151200
N -6.429300 -19.066500 -15.794000
C -6.121900 -16.722600 -15.842700
C -5.370900 -19.114700 -14.986000
O -5.297300 -21.484100 -15.075900
N -5.060500 -16.756500 -15.050900
C -5.045400 -20.482400 -14.448900
C -4.659900 -17.967400 -14.647500
O -4.521800 -20.454700 -13.255000
H -4.288100 -21.366200 -12.889000
C -3.413000 -17.954000 -13.812000
O -3.316400 -17.256800 -12.839100
O -2.453400 -18.710700 -14.280300
H -1.662200 -18.582500 -13.737000
