16
Fragment
H -10.520500 -18.059600 -23.074100
C -9.774100 -18.024800 -22.475800
H -9.425300 -20.002600 -22.395900
N -9.414500 -16.819000 -22.038700
C -9.107100 -19.162900 -22.087400
C -8.356100 -16.770800 -21.230700
O -8.282500 -14.401400 -21.320600
N -8.045700 -19.129000 -21.295600
C -8.030600 -15.403100 -20.693600
C -7.645100 -17.918100 -20.892200
O -7.507000 -15.430800 -19.499600
H -7.273300 -14.519300 -19.133700
C -6.398200 -17.931500 -20.056700
O -6.301600 -18.628700 -19.083700
O -5.438600 -17.174800 -20.525000
H -4.647400 -17.303000 -19.981700
8
Fragment
H -14.403700 -16.276600 -26.533600
H -14.083900 -15.350800 -25.400800
N -14.078300 -16.125900 -25.731800
O -13.991900 -18.336500 -25.324700
C -13.831800 -17.137900 -24.918800
N -13.398700 -16.889800 -23.696000
H -13.273200 -16.070600 -23.396300
H -13.173100 -17.541900 -23.174000
24
Fragment
H -10.520500 -18.059600 -23.074100
C -9.774100 -18.024800 -22.475800
H -9.425300 -20.002600 -22.395900
N -9.414500 -16.819000 -22.038700
C -9.107100 -19.162900 -22.087400
C -8.356100 -16.770800 -21.230700
O -8.282500 -14.401400 -21.320600
N -8.045700 -19.129000 -21.295600
C -8.030600 -15.403100 -20.693600
C -7.645100 -17.918100 -20.892200
O -7.507000 -15.430800 -19.499600
H -7.273300 -14.519300 -19.133700
C -6.398200 -17.931500 -20.056700
O -6.301600 -18.628700 -19.083700
O -5.438600 -17.174800 -20.525000
H -4.647400 -17.303000 -19.981700
H -14.403700 -16.276600 -26.533600
H -14.083900 -15.350800 -25.400800
N -14.078300 -16.125900 -25.731800
O -13.991900 -18.336500 -25.324700
C -13.831800 -17.137900 -24.918800
N -13.398700 -16.889800 -23.696000
H -13.273200 -16.070600 -23.396300
H -13.173100 -17.541900 -23.174000
