8
Fragment
H -11.216500 -19.009800 -28.051900
H -10.401500 -20.335700 -27.993700
N -10.398600 -19.482200 -28.100600
C -9.269900 -18.797300 -28.125000
O -9.269900 -17.549800 -28.125000
N -8.141200 -19.482200 -28.149400
H -8.138200 -20.335700 -28.256200
H -7.323200 -19.009800 -28.198100
17
Fragment
H -7.392900 -16.945600 -19.533700
H -7.222300 -17.162800 -22.805600
O -7.180100 -17.130800 -20.386900
O -6.998400 -19.181900 -19.575000
C -6.941300 -18.413900 -20.533100
C -6.831500 -18.005600 -22.981900
H -6.656500 -17.863200 -24.990000
C -6.610500 -18.832900 -21.886900
C -6.506000 -18.403200 -24.249400
C -6.033600 -20.087600 -22.115600
C -5.917100 -19.648400 -24.472500
H -5.877800 -20.662100 -21.331900
H -5.707300 -19.446600 -26.448800
C -5.691000 -20.485200 -23.373800
N -5.560400 -20.031800 -25.734400
H -5.269700 -21.336300 -23.523800
H -5.162200 -20.809300 -25.846900
25
Fragment
H -11.216500 -19.009800 -28.051900
H -10.401500 -20.335700 -27.993700
N -10.398600 -19.482200 -28.100600
C -9.269900 -18.797300 -28.125000
O -9.269900 -17.549800 -28.125000
N -8.141200 -19.482200 -28.149400
H -8.138200 -20.335700 -28.256200
H -7.323200 -19.009800 -28.198100
H -7.392900 -16.945600 -19.533700
H -7.222300 -17.162800 -22.805600
O -7.180100 -17.130800 -20.386900
O -6.998400 -19.181900 -19.575000
C -6.941300 -18.413900 -20.533100
C -6.831500 -18.005600 -22.981900
H -6.656500 -17.863200 -24.990000
C -6.610500 -18.832900 -21.886900
C -6.506000 -18.403200 -24.249400
C -6.033600 -20.087600 -22.115600
C -5.917100 -19.648400 -24.472500
H -5.877800 -20.662100 -21.331900
H -5.707300 -19.446600 -26.448800
C -5.691000 -20.485200 -23.373800
N -5.560400 -20.031800 -25.734400
H -5.269700 -21.336300 -23.523800
H -5.162200 -20.809300 -25.846900
