8
Fragment
O -10.220300 -17.714800 -16.408000
H -10.212600 -19.732400 -17.668700
N -9.961200 -19.890500 -16.947700
C -9.771000 -18.851700 -16.131700
H -9.539300 -20.721500 -16.756700
N -9.122800 -19.058300 -14.995400
H -8.997200 -18.395800 -14.473300
H -8.765400 -19.816600 -14.857300
8
Fragment
O -13.398700 -22.682500 -21.305900
H -13.391000 -20.665000 -22.566600
N -13.139600 -20.506800 -21.845600
C -12.949400 -21.545600 -21.029600
H -12.717700 -19.675800 -21.654600
N -12.301300 -21.339000 -19.893300
H -12.175600 -22.001600 -19.371200
H -11.943800 -20.580700 -19.755200
16
Fragment
O -10.220300 -17.714800 -16.408000
H -10.212600 -19.732400 -17.668700
N -9.961200 -19.890500 -16.947700
C -9.771000 -18.851700 -16.131700
H -9.539300 -20.721500 -16.756700
N -9.122800 -19.058300 -14.995400
H -8.997200 -18.395800 -14.473300
H -8.765400 -19.816600 -14.857300
O -13.398700 -22.682500 -21.305900
H -13.391000 -20.665000 -22.566600
N -13.139600 -20.506800 -21.845600
C -12.949400 -21.545600 -21.029600
H -12.717700 -19.675800 -21.654600
N -12.301300 -21.339000 -19.893300
H -12.175600 -22.001600 -19.371200
H -11.943800 -20.580700 -19.755200
