8
Fragment
H -11.216500 -19.009800 -28.051900
H -10.401500 -20.335700 -27.993700
N -10.398600 -19.482200 -28.100600
C -9.269900 -18.797300 -28.125000
O -9.269900 -17.549800 -28.125000
N -8.141200 -19.482200 -28.149400
H -8.138200 -20.335700 -28.256200
H -7.323200 -19.009800 -28.198100
8
Fragment
H -7.508600 -16.600200 -28.051900
H -6.693600 -15.274300 -27.993700
N -6.690600 -16.127800 -28.100600
O -5.561900 -18.060200 -28.125000
C -5.561900 -16.812700 -28.125000
N -4.433200 -16.127800 -28.149400
H -4.430300 -15.274300 -28.256200
H -3.615300 -16.600200 -28.198100
16
Fragment
H -11.216500 -19.009800 -28.051900
H -10.401500 -20.335700 -27.993700
N -10.398600 -19.482200 -28.100600
C -9.269900 -18.797300 -28.125000
O -9.269900 -17.549800 -28.125000
N -8.141200 -19.482200 -28.149400
H -8.138200 -20.335700 -28.256200
H -7.323200 -19.009800 -28.198100
H -7.508600 -16.600200 -28.051900
H -6.693600 -15.274300 -27.993700
N -6.690600 -16.127800 -28.100600
O -5.561900 -18.060200 -28.125000
C -5.561900 -16.812700 -28.125000
N -4.433200 -16.127800 -28.149400
H -4.430300 -15.274300 -28.256200
H -3.615300 -16.600200 -28.198100
