16
Fragment
H -12.060300 -10.425900 -26.323600
O -11.753100 -12.806800 -26.210500
O -11.734700 -10.727300 -27.067400
C -11.345200 -11.998500 -26.982100
H -11.018600 -12.115400 -28.964900
C -10.498100 -12.335700 -28.226700
O -10.113100 -13.722500 -28.345400
H -9.724500 -14.062800 -27.639300
H -9.663100 -10.522500 -28.419600
O -9.297000 -11.543000 -30.720500
C -9.292900 -11.368600 -28.332400
H -8.824300 -11.637600 -31.441800
C -8.534100 -11.678200 -29.640100
O -8.441300 -11.545000 -27.223200
H -7.771400 -10.975000 -27.230600
O -7.336100 -11.752500 -29.654900
16
Fragment
O -17.973600 -15.131600 -25.989800
H -17.538400 -14.354100 -28.414000
O -16.868400 -14.924100 -28.421400
C -16.775700 -15.057300 -26.004600
H -16.485400 -15.016700 -24.202800
C -16.016900 -14.747700 -27.312300
O -16.012700 -14.922100 -24.924200
H -15.646600 -13.901600 -27.225100
H -15.585200 -17.441900 -28.005400
O -15.196600 -17.101600 -27.299300
C -14.811600 -15.714800 -27.418000
H -14.291200 -15.494500 -26.679800
C -13.964500 -15.377600 -28.662600
O -13.575000 -14.106400 -28.577200
O -13.556600 -16.185900 -29.434200
H -13.249400 -13.805000 -29.321000
32
Fragment
H -12.060300 -10.425900 -26.323600
O -11.753100 -12.806800 -26.210500
O -11.734700 -10.727300 -27.067400
C -11.345200 -11.998500 -26.982100
H -11.018600 -12.115400 -28.964900
C -10.498100 -12.335700 -28.226700
O -10.113100 -13.722500 -28.345400
H -9.724500 -14.062800 -27.639300
H -9.663100 -10.522500 -28.419600
O -9.297000 -11.543000 -30.720500
C -9.292900 -11.368600 -28.332400
H -8.824300 -11.637600 -31.441800
C -8.534100 -11.678200 -29.640100
O -8.441300 -11.545000 -27.223200
H -7.771400 -10.975000 -27.230600
O -7.336100 -11.752500 -29.654900
O -17.973600 -15.131600 -25.989800
H -17.538400 -14.354100 -28.414000
O -16.868400 -14.924100 -28.421400
C -16.775700 -15.057300 -26.004600
H -16.485400 -15.016700 -24.202800
C -16.016900 -14.747700 -27.312300
O -16.012700 -14.922100 -24.924200
H -15.646600 -13.901600 -27.225100
H -15.585200 -17.441900 -28.005400
O -15.196600 -17.101600 -27.299300
C -14.811600 -15.714800 -27.418000
H -14.291200 -15.494500 -26.679800
C -13.964500 -15.377600 -28.662600
O -13.575000 -14.106400 -28.577200
O -13.556600 -16.185900 -29.434200
H -13.249400 -13.805000 -29.321000
