16
Fragment
H -12.060300 -10.425900 -26.323600
O -11.753100 -12.806800 -26.210500
O -11.734700 -10.727300 -27.067400
C -11.345200 -11.998500 -26.982100
H -11.018600 -12.115400 -28.964900
C -10.498100 -12.335700 -28.226700
O -10.113100 -13.722500 -28.345400
H -9.724500 -14.062800 -27.639300
H -9.663100 -10.522500 -28.419600
O -9.297000 -11.543000 -30.720500
C -9.292900 -11.368600 -28.332400
H -8.824300 -11.637600 -31.441800
C -8.534100 -11.678200 -29.640100
O -8.441300 -11.545000 -27.223200
H -7.771400 -10.975000 -27.230600
O -7.336100 -11.752500 -29.654900
21
Fragment
H -16.142100 -16.557600 -19.920800
O -15.636500 -18.695200 -21.898000
H -15.374500 -17.875400 -19.624000
C -15.277400 -16.948900 -19.854000
H -15.232100 -18.672900 -24.743300
C -14.762700 -17.876800 -22.083500
H -14.760200 -16.490000 -19.178900
N -14.581600 -16.832000 -21.159800
C -14.362000 -18.744500 -24.335300
H -14.267800 -19.605500 -23.923500
N -14.221300 -17.697000 -23.311400
C -13.692300 -15.740500 -21.280400
H -13.679200 -18.632400 -25.003000
O -13.522000 -14.957900 -20.375200
C -13.335900 -16.659600 -23.515400
C -13.097500 -15.745300 -22.549100
N -12.613700 -16.410900 -24.633900
N -12.173200 -14.874100 -23.101800
C -11.930700 -15.323500 -24.329700
H -11.796300 -14.128000 -22.693800
H -11.340000 -14.909300 -24.917700
37
Fragment
H -12.060300 -10.425900 -26.323600
O -11.753100 -12.806800 -26.210500
O -11.734700 -10.727300 -27.067400
C -11.345200 -11.998500 -26.982100
H -11.018600 -12.115400 -28.964900
C -10.498100 -12.335700 -28.226700
O -10.113100 -13.722500 -28.345400
H -9.724500 -14.062800 -27.639300
H -9.663100 -10.522500 -28.419600
O -9.297000 -11.543000 -30.720500
C -9.292900 -11.368600 -28.332400
H -8.824300 -11.637600 -31.441800
C -8.534100 -11.678200 -29.640100
O -8.441300 -11.545000 -27.223200
H -7.771400 -10.975000 -27.230600
O -7.336100 -11.752500 -29.654900
H -16.142100 -16.557600 -19.920800
O -15.636500 -18.695200 -21.898000
H -15.374500 -17.875400 -19.624000
C -15.277400 -16.948900 -19.854000
H -15.232100 -18.672900 -24.743300
C -14.762700 -17.876800 -22.083500
H -14.760200 -16.490000 -19.178900
N -14.581600 -16.832000 -21.159800
C -14.362000 -18.744500 -24.335300
H -14.267800 -19.605500 -23.923500
N -14.221300 -17.697000 -23.311400
C -13.692300 -15.740500 -21.280400
H -13.679200 -18.632400 -25.003000
O -13.522000 -14.957900 -20.375200
C -13.335900 -16.659600 -23.515400
C -13.097500 -15.745300 -22.549100
N -12.613700 -16.410900 -24.633900
N -12.173200 -14.874100 -23.101800
C -11.930700 -15.323500 -24.329700
H -11.796300 -14.128000 -22.693800
H -11.340000 -14.909300 -24.917700
