16
Fragment
H -12.060300 -10.425900 -26.323600
O -11.753100 -12.806800 -26.210500
O -11.734700 -10.727300 -27.067400
C -11.345200 -11.998500 -26.982100
H -11.018600 -12.115400 -28.964900
C -10.498100 -12.335700 -28.226700
O -10.113100 -13.722500 -28.345400
H -9.724500 -14.062800 -27.639300
H -9.663100 -10.522500 -28.419600
O -9.297000 -11.543000 -30.720500
C -9.292900 -11.368600 -28.332400
H -8.824300 -11.637600 -31.441800
C -8.534100 -11.678200 -29.640100
O -8.441300 -11.545000 -27.223200
H -7.771400 -10.975000 -27.230600
O -7.336100 -11.752500 -29.654900
21
Fragment
H -13.969800 -11.530200 -30.727000
H -13.513400 -10.748900 -32.950900
C -13.379000 -11.944400 -31.315000
N -13.136600 -11.495000 -32.542900
N -12.696000 -13.031800 -31.010800
C -12.212200 -12.366200 -33.095600
C -11.973800 -13.280500 -32.129200
O -11.787800 -11.578800 -35.269400
H -11.630500 -15.253300 -30.641700
C -11.617500 -12.361400 -34.364300
N -11.088500 -14.317900 -32.333300
H -11.041900 -16.226400 -31.721200
C -10.947700 -15.365400 -31.309400
N -10.728100 -13.452900 -34.484900
H -10.549500 -13.110900 -36.465800
C -10.547000 -14.497700 -33.561200
H -10.077600 -15.293800 -30.901300
C -10.032400 -13.569800 -35.790700
H -9.935300 -14.496300 -36.020700
O -9.673200 -15.316100 -33.746600
H -9.167600 -13.178500 -35.723900
37
Fragment
H -12.060300 -10.425900 -26.323600
O -11.753100 -12.806800 -26.210500
O -11.734700 -10.727300 -27.067400
C -11.345200 -11.998500 -26.982100
H -11.018600 -12.115400 -28.964900
C -10.498100 -12.335700 -28.226700
O -10.113100 -13.722500 -28.345400
H -9.724500 -14.062800 -27.639300
H -9.663100 -10.522500 -28.419600
O -9.297000 -11.543000 -30.720500
C -9.292900 -11.368600 -28.332400
H -8.824300 -11.637600 -31.441800
C -8.534100 -11.678200 -29.640100
O -8.441300 -11.545000 -27.223200
H -7.771400 -10.975000 -27.230600
O -7.336100 -11.752500 -29.654900
H -13.969800 -11.530200 -30.727000
H -13.513400 -10.748900 -32.950900
C -13.379000 -11.944400 -31.315000
N -13.136600 -11.495000 -32.542900
N -12.696000 -13.031800 -31.010800
C -12.212200 -12.366200 -33.095600
C -11.973800 -13.280500 -32.129200
O -11.787800 -11.578800 -35.269400
H -11.630500 -15.253300 -30.641700
C -11.617500 -12.361400 -34.364300
N -11.088500 -14.317900 -32.333300
H -11.041900 -16.226400 -31.721200
C -10.947700 -15.365400 -31.309400
N -10.728100 -13.452900 -34.484900
H -10.549500 -13.110900 -36.465800
C -10.547000 -14.497700 -33.561200
H -10.077600 -15.293800 -30.901300
C -10.032400 -13.569800 -35.790700
H -9.935300 -14.496300 -36.020700
O -9.673200 -15.316100 -33.746600
H -9.167600 -13.178500 -35.723900
