26
Fragment
H -17.678500 -9.075400 -12.184200
N -17.049300 -9.594700 -11.759000
H -16.492400 -9.916000 -12.390300
N -16.301200 -8.728000 -10.901800
N -15.965400 -7.114000 -12.646400
H -15.898100 -9.163600 -10.173900
C -15.702300 -7.639300 -11.453800
N -15.175800 -5.992600 -12.733000
N -14.787700 -6.865700 -10.827700
H -14.722000 -7.494600 -8.936800
N -14.462700 -5.831700 -11.667300
C -14.100300 -7.062800 -9.561100
H -13.860400 -6.189700 -9.226700
H -13.095700 -8.808700 -10.103000
C -12.855700 -7.935700 -9.768600
N -12.493400 -9.166800 -7.662400
H -12.234000 -7.503900 -10.392900
N -12.168400 -8.132800 -8.502000
N -11.780300 -9.005900 -6.596700
C -11.253800 -7.359200 -7.876000
H -11.058000 -5.834900 -9.155800
N -10.990600 -7.884500 -6.683300
N -10.654900 -6.270500 -8.427900
H -10.463600 -5.082400 -6.939400
N -9.906700 -5.403800 -7.570700
H -9.277600 -5.923100 -7.145600
26
Fragment
H -24.214500 -9.075400 -12.184200
N -23.585300 -9.594700 -11.759000
H -23.028400 -9.916000 -12.390300
N -22.837200 -8.728000 -10.901800
N -22.501400 -7.114000 -12.646400
H -22.434100 -9.163600 -10.173900
C -22.238300 -7.639300 -11.453800
N -21.711800 -5.992600 -12.733000
N -21.323700 -6.865700 -10.827700
H -21.258000 -7.494600 -8.936800
N -20.998700 -5.831700 -11.667300
C -20.636300 -7.062800 -9.561100
H -20.396400 -6.189700 -9.226700
H -19.631700 -8.808700 -10.103000
C -19.391700 -7.935700 -9.768600
N -19.029400 -9.166800 -7.662400
H -18.770000 -7.503900 -10.392900
N -18.704400 -8.132800 -8.502000
N -18.316300 -9.005900 -6.596700
C -17.789800 -7.359200 -7.876000
H -17.594000 -5.834900 -9.155800
N -17.526600 -7.884500 -6.683300
N -17.190900 -6.270500 -8.427900
H -16.999600 -5.082400 -6.939400
N -16.442700 -5.403800 -7.570700
H -15.813600 -5.923100 -7.145600
52
Fragment
H -17.678500 -9.075400 -12.184200
N -17.049300 -9.594700 -11.759000
H -16.492400 -9.916000 -12.390300
N -16.301200 -8.728000 -10.901800
N -15.965400 -7.114000 -12.646400
H -15.898100 -9.163600 -10.173900
C -15.702300 -7.639300 -11.453800
N -15.175800 -5.992600 -12.733000
N -14.787700 -6.865700 -10.827700
H -14.722000 -7.494600 -8.936800
N -14.462700 -5.831700 -11.667300
C -14.100300 -7.062800 -9.561100
H -13.860400 -6.189700 -9.226700
H -13.095700 -8.808700 -10.103000
C -12.855700 -7.935700 -9.768600
N -12.493400 -9.166800 -7.662400
H -12.234000 -7.503900 -10.392900
N -12.168400 -8.132800 -8.502000
N -11.780300 -9.005900 -6.596700
C -11.253800 -7.359200 -7.876000
H -11.058000 -5.834900 -9.155800
N -10.990600 -7.884500 -6.683300
N -10.654900 -6.270500 -8.427900
H -10.463600 -5.082400 -6.939400
N -9.906700 -5.403800 -7.570700
H -9.277600 -5.923100 -7.145600
H -24.214500 -9.075400 -12.184200
N -23.585300 -9.594700 -11.759000
H -23.028400 -9.916000 -12.390300
N -22.837200 -8.728000 -10.901800
N -22.501400 -7.114000 -12.646400
H -22.434100 -9.163600 -10.173900
C -22.238300 -7.639300 -11.453800
N -21.711800 -5.992600 -12.733000
N -21.323700 -6.865700 -10.827700
H -21.258000 -7.494600 -8.936800
N -20.998700 -5.831700 -11.667300
C -20.636300 -7.062800 -9.561100
H -20.396400 -6.189700 -9.226700
H -19.631700 -8.808700 -10.103000
C -19.391700 -7.935700 -9.768600
N -19.029400 -9.166800 -7.662400
H -18.770000 -7.503900 -10.392900
N -18.704400 -8.132800 -8.502000
N -18.316300 -9.005900 -6.596700
C -17.789800 -7.359200 -7.876000
H -17.594000 -5.834900 -9.155800
N -17.526600 -7.884500 -6.683300
N -17.190900 -6.270500 -8.427900
H -16.999600 -5.082400 -6.939400
N -16.442700 -5.403800 -7.570700
H -15.813600 -5.923100 -7.145600
