26
Fragment
H -17.678500 -9.075400 -12.184200
N -17.049300 -9.594700 -11.759000
H -16.492400 -9.916000 -12.390300
N -16.301200 -8.728000 -10.901800
N -15.965400 -7.114000 -12.646400
H -15.898100 -9.163600 -10.173900
C -15.702300 -7.639300 -11.453800
N -15.175800 -5.992600 -12.733000
N -14.787700 -6.865700 -10.827700
H -14.722000 -7.494600 -8.936800
N -14.462700 -5.831700 -11.667300
C -14.100300 -7.062800 -9.561100
H -13.860400 -6.189700 -9.226700
H -13.095700 -8.808700 -10.103000
C -12.855700 -7.935700 -9.768600
N -12.493400 -9.166800 -7.662400
H -12.234000 -7.503900 -10.392900
N -12.168400 -8.132800 -8.502000
N -11.780300 -9.005900 -6.596700
C -11.253800 -7.359200 -7.876000
H -11.058000 -5.834900 -9.155800
N -10.990600 -7.884500 -6.683300
N -10.654900 -6.270500 -8.427900
H -10.463600 -5.082400 -6.939400
N -9.906700 -5.403800 -7.570700
H -9.277600 -5.923100 -7.145600
26
Fragment
H -19.020100 -3.132000 -18.627400
N -18.391000 -3.651300 -18.202300
H -17.834100 -3.972600 -18.833600
N -17.642800 -2.784600 -17.345100
N -17.307100 -1.170500 -19.089600
H -17.239700 -3.220200 -16.617100
C -17.043900 -1.695800 -17.897000
N -16.517400 -0.049100 -19.176200
N -16.129300 -0.922300 -17.270900
H -16.063700 -1.551200 -15.380000
N -15.804300 0.111800 -18.110600
C -15.442000 -1.119400 -16.004400
H -15.202100 -0.246300 -15.670000
H -14.437300 -2.865300 -16.546200
C -14.197400 -1.992300 -16.211800
N -13.835000 -3.223400 -14.105600
H -13.575700 -1.560500 -16.836200
N -13.510000 -2.189400 -14.945300
N -13.121900 -3.062500 -13.040000
C -12.595400 -1.415800 -14.319200
H -12.399600 0.108500 -15.599100
N -12.332300 -1.941100 -13.126500
N -11.996500 -0.327100 -14.871100
H -11.805300 0.861000 -13.382600
N -11.248400 0.539600 -14.013900
H -10.619200 0.020400 -13.588800
52
Fragment
H -17.678500 -9.075400 -12.184200
N -17.049300 -9.594700 -11.759000
H -16.492400 -9.916000 -12.390300
N -16.301200 -8.728000 -10.901800
N -15.965400 -7.114000 -12.646400
H -15.898100 -9.163600 -10.173900
C -15.702300 -7.639300 -11.453800
N -15.175800 -5.992600 -12.733000
N -14.787700 -6.865700 -10.827700
H -14.722000 -7.494600 -8.936800
N -14.462700 -5.831700 -11.667300
C -14.100300 -7.062800 -9.561100
H -13.860400 -6.189700 -9.226700
H -13.095700 -8.808700 -10.103000
C -12.855700 -7.935700 -9.768600
N -12.493400 -9.166800 -7.662400
H -12.234000 -7.503900 -10.392900
N -12.168400 -8.132800 -8.502000
N -11.780300 -9.005900 -6.596700
C -11.253800 -7.359200 -7.876000
H -11.058000 -5.834900 -9.155800
N -10.990600 -7.884500 -6.683300
N -10.654900 -6.270500 -8.427900
H -10.463600 -5.082400 -6.939400
N -9.906700 -5.403800 -7.570700
H -9.277600 -5.923100 -7.145600
H -19.020100 -3.132000 -18.627400
N -18.391000 -3.651300 -18.202300
H -17.834100 -3.972600 -18.833600
N -17.642800 -2.784600 -17.345100
N -17.307100 -1.170500 -19.089600
H -17.239700 -3.220200 -16.617100
C -17.043900 -1.695800 -17.897000
N -16.517400 -0.049100 -19.176200
N -16.129300 -0.922300 -17.270900
H -16.063700 -1.551200 -15.380000
N -15.804300 0.111800 -18.110600
C -15.442000 -1.119400 -16.004400
H -15.202100 -0.246300 -15.670000
H -14.437300 -2.865300 -16.546200
C -14.197400 -1.992300 -16.211800
N -13.835000 -3.223400 -14.105600
H -13.575700 -1.560500 -16.836200
N -13.510000 -2.189400 -14.945300
N -13.121900 -3.062500 -13.040000
C -12.595400 -1.415800 -14.319200
H -12.399600 0.108500 -15.599100
N -12.332300 -1.941100 -13.126500
N -11.996500 -0.327100 -14.871100
H -11.805300 0.861000 -13.382600
N -11.248400 0.539600 -14.013900
H -10.619200 0.020400 -13.588800
