26
Fragment
H -17.678500 -9.075400 -12.184200
N -17.049300 -9.594700 -11.759000
H -16.492400 -9.916000 -12.390300
N -16.301200 -8.728000 -10.901800
N -15.965400 -7.114000 -12.646400
H -15.898100 -9.163600 -10.173900
C -15.702300 -7.639300 -11.453800
N -15.175800 -5.992600 -12.733000
N -14.787700 -6.865700 -10.827700
H -14.722000 -7.494600 -8.936800
N -14.462700 -5.831700 -11.667300
C -14.100300 -7.062800 -9.561100
H -13.860400 -6.189700 -9.226700
H -13.095700 -8.808700 -10.103000
C -12.855700 -7.935700 -9.768600
N -12.493400 -9.166800 -7.662400
H -12.234000 -7.503900 -10.392900
N -12.168400 -8.132800 -8.502000
N -11.780300 -9.005900 -6.596700
C -11.253800 -7.359200 -7.876000
H -11.058000 -5.834900 -9.155800
N -10.990600 -7.884500 -6.683300
N -10.654900 -6.270500 -8.427900
H -10.463600 -5.082400 -6.939400
N -9.906700 -5.403800 -7.570700
H -9.277600 -5.923100 -7.145600
26
Fragment
H -15.672200 -8.453100 -5.740900
N -15.043100 -8.972300 -5.315800
H -14.486100 -9.293700 -5.947100
N -14.294900 -8.105700 -4.458600
N -13.959100 -6.491600 -6.203200
H -13.891800 -8.541200 -3.730600
C -13.696000 -7.016900 -5.010500
N -13.169500 -5.370200 -6.289800
N -12.781400 -6.243400 -4.384400
H -12.715700 -6.872200 -2.493500
N -12.456400 -5.209300 -5.224100
C -12.094100 -6.440400 -3.117900
H -11.854100 -5.567400 -2.783500
H -11.089400 -8.186400 -3.659800
C -10.849400 -7.313400 -3.325400
N -10.487100 -8.544500 -1.219100
H -10.227700 -6.881600 -3.949700
N -10.162100 -7.510500 -2.058800
N -9.774000 -8.383600 -0.153500
C -9.247500 -6.736900 -1.432700
H -9.051700 -5.212600 -2.712600
N -8.984400 -7.262200 -0.240100
N -8.648600 -5.648200 -1.984600
H -8.457400 -4.460100 -0.496100
N -7.900400 -4.781500 -1.127400
H -7.271300 -5.300700 -0.702300
52
Fragment
H -17.678500 -9.075400 -12.184200
N -17.049300 -9.594700 -11.759000
H -16.492400 -9.916000 -12.390300
N -16.301200 -8.728000 -10.901800
N -15.965400 -7.114000 -12.646400
H -15.898100 -9.163600 -10.173900
C -15.702300 -7.639300 -11.453800
N -15.175800 -5.992600 -12.733000
N -14.787700 -6.865700 -10.827700
H -14.722000 -7.494600 -8.936800
N -14.462700 -5.831700 -11.667300
C -14.100300 -7.062800 -9.561100
H -13.860400 -6.189700 -9.226700
H -13.095700 -8.808700 -10.103000
C -12.855700 -7.935700 -9.768600
N -12.493400 -9.166800 -7.662400
H -12.234000 -7.503900 -10.392900
N -12.168400 -8.132800 -8.502000
N -11.780300 -9.005900 -6.596700
C -11.253800 -7.359200 -7.876000
H -11.058000 -5.834900 -9.155800
N -10.990600 -7.884500 -6.683300
N -10.654900 -6.270500 -8.427900
H -10.463600 -5.082400 -6.939400
N -9.906700 -5.403800 -7.570700
H -9.277600 -5.923100 -7.145600
H -15.672200 -8.453100 -5.740900
N -15.043100 -8.972300 -5.315800
H -14.486100 -9.293700 -5.947100
N -14.294900 -8.105700 -4.458600
N -13.959100 -6.491600 -6.203200
H -13.891800 -8.541200 -3.730600
C -13.696000 -7.016900 -5.010500
N -13.169500 -5.370200 -6.289800
N -12.781400 -6.243400 -4.384400
H -12.715700 -6.872200 -2.493500
N -12.456400 -5.209300 -5.224100
C -12.094100 -6.440400 -3.117900
H -11.854100 -5.567400 -2.783500
H -11.089400 -8.186400 -3.659800
C -10.849400 -7.313400 -3.325400
N -10.487100 -8.544500 -1.219100
H -10.227700 -6.881600 -3.949700
N -10.162100 -7.510500 -2.058800
N -9.774000 -8.383600 -0.153500
C -9.247500 -6.736900 -1.432700
H -9.051700 -5.212600 -2.712600
N -8.984400 -7.262200 -0.240100
N -8.648600 -5.648200 -1.984600
H -8.457400 -4.460100 -0.496100
N -7.900400 -4.781500 -1.127400
H -7.271300 -5.300700 -0.702300
