11
Fragment
H -12.488600 -12.241900 -23.876000
N -11.562100 -12.012100 -24.009700
N -11.524300 -9.938400 -22.965100
O -11.326200 -7.932100 -22.115700
C -10.896900 -10.920400 -23.638300
N -10.758500 -8.860500 -22.700400
N -10.757000 -12.856300 -24.690100
N -9.662200 -11.131300 -24.092700
N -9.597300 -12.322200 -24.748500
O -9.558900 -8.802400 -23.017700
H -8.910400 -10.570500 -24.080600
12
Fragment
H -17.777100 -14.281500 -24.514600
O -17.067700 -16.683600 -24.486700
C -16.891900 -14.388600 -24.248900
H -16.519400 -12.446900 -24.035300
N -16.373600 -15.631700 -24.148400
C -16.142900 -13.295000 -23.968400
C -15.103800 -15.764300 -23.717600
N -14.862500 -13.427500 -23.595900
H -14.740000 -16.613700 -23.611600
C -14.350700 -14.672600 -23.437700
O -14.127000 -12.364000 -23.371800
H -13.476300 -14.778400 -23.136700
23
Fragment
H -12.488600 -12.241900 -23.876000
N -11.562100 -12.012100 -24.009700
N -11.524300 -9.938400 -22.965100
O -11.326200 -7.932100 -22.115700
C -10.896900 -10.920400 -23.638300
N -10.758500 -8.860500 -22.700400
N -10.757000 -12.856300 -24.690100
N -9.662200 -11.131300 -24.092700
N -9.597300 -12.322200 -24.748500
O -9.558900 -8.802400 -23.017700
H -8.910400 -10.570500 -24.080600
H -17.777100 -14.281500 -24.514600
O -17.067700 -16.683600 -24.486700
C -16.891900 -14.388600 -24.248900
H -16.519400 -12.446900 -24.035300
N -16.373600 -15.631700 -24.148400
C -16.142900 -13.295000 -23.968400
C -15.103800 -15.764300 -23.717600
N -14.862500 -13.427500 -23.595900
H -14.740000 -16.613700 -23.611600
C -14.350700 -14.672600 -23.437700
O -14.127000 -12.364000 -23.371800
H -13.476300 -14.778400 -23.136700
