11
Fragment
H -12.488600 -12.241900 -23.876000
N -11.562100 -12.012100 -24.009700
N -11.524300 -9.938400 -22.965100
O -11.326200 -7.932100 -22.115700
C -10.896900 -10.920400 -23.638300
N -10.758500 -8.860500 -22.700400
N -10.757000 -12.856300 -24.690100
N -9.662200 -11.131300 -24.092700
N -9.597300 -12.322200 -24.748500
O -9.558900 -8.802400 -23.017700
H -8.910400 -10.570500 -24.080600
12
Fragment
H -15.106000 -4.808600 -20.699400
O -14.455300 -7.223000 -20.464300
C -14.231700 -4.914400 -20.398400
H -13.842300 -2.973300 -20.224500
N -13.719800 -6.159500 -20.240100
C -13.478500 -3.822700 -20.118400
C -12.439500 -6.292000 -19.867700
N -12.208700 -3.955300 -19.687600
H -12.062900 -7.140100 -19.800700
C -11.690400 -5.198400 -19.587100
O -11.514600 -2.903400 -19.349400
H -10.805200 -5.305500 -19.321500
23
Fragment
H -12.488600 -12.241900 -23.876000
N -11.562100 -12.012100 -24.009700
N -11.524300 -9.938400 -22.965100
O -11.326200 -7.932100 -22.115700
C -10.896900 -10.920400 -23.638300
N -10.758500 -8.860500 -22.700400
N -10.757000 -12.856300 -24.690100
N -9.662200 -11.131300 -24.092700
N -9.597300 -12.322200 -24.748500
O -9.558900 -8.802400 -23.017700
H -8.910400 -10.570500 -24.080600
H -15.106000 -4.808600 -20.699400
O -14.455300 -7.223000 -20.464300
C -14.231700 -4.914400 -20.398400
H -13.842300 -2.973300 -20.224500
N -13.719800 -6.159500 -20.240100
C -13.478500 -3.822700 -20.118400
C -12.439500 -6.292000 -19.867700
N -12.208700 -3.955300 -19.687600
H -12.062900 -7.140100 -19.800700
C -11.690400 -5.198400 -19.587100
O -11.514600 -2.903400 -19.349400
H -10.805200 -5.305500 -19.321500
