24
Fragment
H -36.249600 -6.291100 -21.479600
H -36.181600 -7.511500 -22.461600
H -36.128600 -7.747100 -20.913100
C -35.867000 -7.159400 -21.625000
H -34.916600 -8.869200 -19.877400
O -34.689600 -5.410000 -23.244100
C -34.390100 -7.049200 -21.658000
C -33.974400 -8.705800 -19.797700
N -33.880300 -6.163000 -22.551900
H -33.787300 -8.321000 -18.937600
C -33.543700 -7.768200 -20.862400
H -33.497500 -9.533600 -19.887600
H -32.588100 -4.240600 -23.690500
C -32.541900 -6.006000 -22.715700
H -32.298300 -5.453200 -24.640500
N -32.205300 -7.611200 -21.026100
C -32.111200 -5.068400 -23.780400
C -31.695500 -6.725000 -21.920100
O -31.396000 -8.364200 -20.334000
H -31.169000 -4.905000 -23.700700
C -30.218600 -6.614800 -21.953000
H -29.957000 -6.027100 -22.665000
H -29.904000 -6.262700 -21.116500
H -29.836000 -7.483100 -22.098400
14
Fragment
O -43.333900 -11.100200 -23.791600
O -43.086100 -9.663100 -25.374500
N -42.709600 -10.188800 -24.335200
H -41.700400 -8.122200 -26.132300
N -41.583500 -9.809100 -23.704300
N -41.027800 -8.124500 -25.430400
C -40.892800 -8.847200 -24.321500
N -39.998400 -7.257200 -25.552300
N -39.756100 -8.390300 -23.777500
H -39.655500 -9.418300 -22.083900
N -39.228200 -7.415600 -24.551700
C -39.071800 -8.849500 -22.590600
H -38.816400 -8.094200 -22.054900
H -38.288200 -9.341200 -22.843600
38
Fragment
H -36.249600 -6.291100 -21.479600
H -36.181600 -7.511500 -22.461600
H -36.128600 -7.747100 -20.913100
C -35.867000 -7.159400 -21.625000
H -34.916600 -8.869200 -19.877400
O -34.689600 -5.410000 -23.244100
C -34.390100 -7.049200 -21.658000
C -33.974400 -8.705800 -19.797700
N -33.880300 -6.163000 -22.551900
H -33.787300 -8.321000 -18.937600
C -33.543700 -7.768200 -20.862400
H -33.497500 -9.533600 -19.887600
H -32.588100 -4.240600 -23.690500
C -32.541900 -6.006000 -22.715700
H -32.298300 -5.453200 -24.640500
N -32.205300 -7.611200 -21.026100
C -32.111200 -5.068400 -23.780400
C -31.695500 -6.725000 -21.920100
O -31.396000 -8.364200 -20.334000
H -31.169000 -4.905000 -23.700700
C -30.218600 -6.614800 -21.953000
H -29.957000 -6.027100 -22.665000
H -29.904000 -6.262700 -21.116500
H -29.836000 -7.483100 -22.098400
O -43.333900 -11.100200 -23.791600
O -43.086100 -9.663100 -25.374500
N -42.709600 -10.188800 -24.335200
H -41.700400 -8.122200 -26.132300
N -41.583500 -9.809100 -23.704300
N -41.027800 -8.124500 -25.430400
C -40.892800 -8.847200 -24.321500
N -39.998400 -7.257200 -25.552300
N -39.756100 -8.390300 -23.777500
H -39.655500 -9.418300 -22.083900
N -39.228200 -7.415600 -24.551700
C -39.071800 -8.849500 -22.590600
H -38.816400 -8.094200 -22.054900
H -38.288200 -9.341200 -22.843600
