24
Fragment
H -36.249600 -6.291100 -21.479600
H -36.181600 -7.511500 -22.461600
H -36.128600 -7.747100 -20.913100
C -35.867000 -7.159400 -21.625000
H -34.916600 -8.869200 -19.877400
O -34.689600 -5.410000 -23.244100
C -34.390100 -7.049200 -21.658000
C -33.974400 -8.705800 -19.797700
N -33.880300 -6.163000 -22.551900
H -33.787300 -8.321000 -18.937600
C -33.543700 -7.768200 -20.862400
H -33.497500 -9.533600 -19.887600
H -32.588100 -4.240600 -23.690500
C -32.541900 -6.006000 -22.715700
H -32.298300 -5.453200 -24.640500
N -32.205300 -7.611200 -21.026100
C -32.111200 -5.068400 -23.780400
C -31.695500 -6.725000 -21.920100
O -31.396000 -8.364200 -20.334000
H -31.169000 -4.905000 -23.700700
C -30.218600 -6.614800 -21.953000
H -29.957000 -6.027100 -22.665000
H -29.904000 -6.262700 -21.116500
H -29.836000 -7.483100 -22.098400
14
Fragment
H -27.797400 -4.433000 -20.734400
H -27.269200 -5.680000 -21.523200
C -27.013800 -4.924700 -20.987500
N -26.857400 -6.358600 -19.026300
H -26.430100 -4.355900 -21.494200
N -26.329500 -5.383900 -19.800600
N -26.087200 -6.517000 -18.025800
C -25.192800 -4.927000 -19.256600
N -25.057800 -5.649700 -18.147700
N -24.502100 -3.965100 -19.873800
H -24.385200 -5.652000 -17.445800
N -23.376000 -3.585400 -19.242900
O -22.999500 -4.111100 -18.203600
O -22.751700 -2.674000 -19.786500
38
Fragment
H -36.249600 -6.291100 -21.479600
H -36.181600 -7.511500 -22.461600
H -36.128600 -7.747100 -20.913100
C -35.867000 -7.159400 -21.625000
H -34.916600 -8.869200 -19.877400
O -34.689600 -5.410000 -23.244100
C -34.390100 -7.049200 -21.658000
C -33.974400 -8.705800 -19.797700
N -33.880300 -6.163000 -22.551900
H -33.787300 -8.321000 -18.937600
C -33.543700 -7.768200 -20.862400
H -33.497500 -9.533600 -19.887600
H -32.588100 -4.240600 -23.690500
C -32.541900 -6.006000 -22.715700
H -32.298300 -5.453200 -24.640500
N -32.205300 -7.611200 -21.026100
C -32.111200 -5.068400 -23.780400
C -31.695500 -6.725000 -21.920100
O -31.396000 -8.364200 -20.334000
H -31.169000 -4.905000 -23.700700
C -30.218600 -6.614800 -21.953000
H -29.957000 -6.027100 -22.665000
H -29.904000 -6.262700 -21.116500
H -29.836000 -7.483100 -22.098400
H -27.797400 -4.433000 -20.734400
H -27.269200 -5.680000 -21.523200
C -27.013800 -4.924700 -20.987500
N -26.857400 -6.358600 -19.026300
H -26.430100 -4.355900 -21.494200
N -26.329500 -5.383900 -19.800600
N -26.087200 -6.517000 -18.025800
C -25.192800 -4.927000 -19.256600
N -25.057800 -5.649700 -18.147700
N -24.502100 -3.965100 -19.873800
H -24.385200 -5.652000 -17.445800
N -23.376000 -3.585400 -19.242900
O -22.999500 -4.111100 -18.203600
O -22.751700 -2.674000 -19.786500
