12
Fragment
H -24.015900 -11.137600 -13.980900
C -23.159500 -10.864900 -14.220500
H -23.095000 -9.325900 -12.970000
O -22.989900 -12.603900 -15.719400
C -22.611900 -9.779900 -13.621900
N -22.484600 -11.550300 -15.152800
N -21.382100 -9.345700 -13.951800
C -21.254800 -11.116100 -15.482700
O -20.876800 -8.292100 -13.385200
H -20.771700 -11.570100 -16.134600
C -20.707200 -10.031100 -14.884100
H -19.850800 -9.758400 -15.123700
12
Fragment
H -23.181500 -12.370400 -18.831600
C -22.325100 -12.643100 -19.071300
H -22.260600 -14.182100 -17.820700
O -22.155500 -10.904100 -20.570100
C -21.777500 -13.728100 -18.472700
N -21.650200 -11.957700 -20.003600
N -20.547700 -14.162300 -18.802500
C -20.420400 -12.391900 -20.333400
O -20.042400 -15.215900 -18.236000
H -19.937300 -11.937900 -20.985400
C -19.872800 -13.476900 -19.734800
H -19.016400 -13.749600 -19.974500
24
Fragment
H -24.015900 -11.137600 -13.980900
C -23.159500 -10.864900 -14.220500
H -23.095000 -9.325900 -12.970000
O -22.989900 -12.603900 -15.719400
C -22.611900 -9.779900 -13.621900
N -22.484600 -11.550300 -15.152800
N -21.382100 -9.345700 -13.951800
C -21.254800 -11.116100 -15.482700
O -20.876800 -8.292100 -13.385200
H -20.771700 -11.570100 -16.134600
C -20.707200 -10.031100 -14.884100
H -19.850800 -9.758400 -15.123700
H -23.181500 -12.370400 -18.831600
C -22.325100 -12.643100 -19.071300
H -22.260600 -14.182100 -17.820700
O -22.155500 -10.904100 -20.570100
C -21.777500 -13.728100 -18.472700
N -21.650200 -11.957700 -20.003600
N -20.547700 -14.162300 -18.802500
C -20.420400 -12.391900 -20.333400
O -20.042400 -15.215900 -18.236000
H -19.937300 -11.937900 -20.985400
C -19.872800 -13.476900 -19.734800
H -19.016400 -13.749600 -19.974500
