24
Fragment
H -36.249600 -6.291100 -21.479600
H -36.181600 -7.511500 -22.461600
H -36.128600 -7.747100 -20.913100
C -35.867000 -7.159400 -21.625000
H -34.916600 -8.869200 -19.877400
O -34.689600 -5.410000 -23.244100
C -34.390100 -7.049200 -21.658000
C -33.974400 -8.705800 -19.797700
N -33.880300 -6.163000 -22.551900
H -33.787300 -8.321000 -18.937600
C -33.543700 -7.768200 -20.862400
H -33.497500 -9.533600 -19.887600
H -32.588100 -4.240600 -23.690500
C -32.541900 -6.006000 -22.715700
H -32.298300 -5.453200 -24.640500
N -32.205300 -7.611200 -21.026100
C -32.111200 -5.068400 -23.780400
C -31.695500 -6.725000 -21.920100
O -31.396000 -8.364200 -20.334000
H -31.169000 -4.905000 -23.700700
C -30.218600 -6.614800 -21.953000
H -29.957000 -6.027100 -22.665000
H -29.904000 -6.262700 -21.116500
H -29.836000 -7.483100 -22.098400
14
Fragment
O -32.319600 -9.561100 -16.528600
O -32.071900 -10.998200 -18.111500
N -31.695300 -10.472500 -17.072100
H -30.686200 -12.539100 -18.869300
N -30.569200 -10.852200 -16.441300
N -30.013500 -12.536800 -18.167400
C -29.878500 -11.814100 -17.058500
N -28.984100 -13.404100 -18.289300
N -28.741800 -12.271000 -16.514500
H -28.641200 -11.243000 -14.820900
N -28.213900 -13.245700 -17.288700
C -28.057500 -11.811800 -15.327600
H -27.802200 -12.567100 -14.791900
H -27.273900 -11.320100 -15.580600
38
Fragment
H -36.249600 -6.291100 -21.479600
H -36.181600 -7.511500 -22.461600
H -36.128600 -7.747100 -20.913100
C -35.867000 -7.159400 -21.625000
H -34.916600 -8.869200 -19.877400
O -34.689600 -5.410000 -23.244100
C -34.390100 -7.049200 -21.658000
C -33.974400 -8.705800 -19.797700
N -33.880300 -6.163000 -22.551900
H -33.787300 -8.321000 -18.937600
C -33.543700 -7.768200 -20.862400
H -33.497500 -9.533600 -19.887600
H -32.588100 -4.240600 -23.690500
C -32.541900 -6.006000 -22.715700
H -32.298300 -5.453200 -24.640500
N -32.205300 -7.611200 -21.026100
C -32.111200 -5.068400 -23.780400
C -31.695500 -6.725000 -21.920100
O -31.396000 -8.364200 -20.334000
H -31.169000 -4.905000 -23.700700
C -30.218600 -6.614800 -21.953000
H -29.957000 -6.027100 -22.665000
H -29.904000 -6.262700 -21.116500
H -29.836000 -7.483100 -22.098400
O -32.319600 -9.561100 -16.528600
O -32.071900 -10.998200 -18.111500
N -31.695300 -10.472500 -17.072100
H -30.686200 -12.539100 -18.869300
N -30.569200 -10.852200 -16.441300
N -30.013500 -12.536800 -18.167400
C -29.878500 -11.814100 -17.058500
N -28.984100 -13.404100 -18.289300
N -28.741800 -12.271000 -16.514500
H -28.641200 -11.243000 -14.820900
N -28.213900 -13.245700 -17.288700
C -28.057500 -11.811800 -15.327600
H -27.802200 -12.567100 -14.791900
H -27.273900 -11.320100 -15.580600
