24
Fragment
H -36.249600 -6.291100 -21.479600
H -36.181600 -7.511500 -22.461600
H -36.128600 -7.747100 -20.913100
C -35.867000 -7.159400 -21.625000
H -34.916600 -8.869200 -19.877400
O -34.689600 -5.410000 -23.244100
C -34.390100 -7.049200 -21.658000
C -33.974400 -8.705800 -19.797700
N -33.880300 -6.163000 -22.551900
H -33.787300 -8.321000 -18.937600
C -33.543700 -7.768200 -20.862400
H -33.497500 -9.533600 -19.887600
H -32.588100 -4.240600 -23.690500
C -32.541900 -6.006000 -22.715700
H -32.298300 -5.453200 -24.640500
N -32.205300 -7.611200 -21.026100
C -32.111200 -5.068400 -23.780400
C -31.695500 -6.725000 -21.920100
O -31.396000 -8.364200 -20.334000
H -31.169000 -4.905000 -23.700700
C -30.218600 -6.614800 -21.953000
H -29.957000 -6.027100 -22.665000
H -29.904000 -6.262700 -21.116500
H -29.836000 -7.483100 -22.098400
24
Fragment
H -36.249600 -10.882500 -21.479600
H -36.181600 -12.102900 -22.461600
H -36.128600 -12.338500 -20.913100
C -35.867000 -11.750800 -21.625000
H -34.916600 -13.460600 -19.877400
O -34.689600 -10.001400 -23.244100
C -34.390100 -11.640600 -21.658000
C -33.974400 -13.297200 -19.797700
N -33.880300 -10.754400 -22.551900
H -33.787300 -12.912400 -18.937600
C -33.543700 -12.359600 -20.862400
H -33.497500 -14.125000 -19.887600
H -32.588100 -8.832000 -23.690500
C -32.541900 -10.597400 -22.715700
H -32.298300 -10.044600 -24.640500
N -32.205300 -12.202600 -21.026100
C -32.111200 -9.659800 -23.780400
C -31.695500 -11.316400 -21.920100
O -31.396000 -12.955600 -20.334000
H -31.169000 -9.496400 -23.700700
C -30.218600 -11.206200 -21.953000
H -29.957000 -10.618500 -22.665000
H -29.904000 -10.854100 -21.116500
H -29.836000 -12.074500 -22.098400
48
Fragment
H -36.249600 -6.291100 -21.479600
H -36.181600 -7.511500 -22.461600
H -36.128600 -7.747100 -20.913100
C -35.867000 -7.159400 -21.625000
H -34.916600 -8.869200 -19.877400
O -34.689600 -5.410000 -23.244100
C -34.390100 -7.049200 -21.658000
C -33.974400 -8.705800 -19.797700
N -33.880300 -6.163000 -22.551900
H -33.787300 -8.321000 -18.937600
C -33.543700 -7.768200 -20.862400
H -33.497500 -9.533600 -19.887600
H -32.588100 -4.240600 -23.690500
C -32.541900 -6.006000 -22.715700
H -32.298300 -5.453200 -24.640500
N -32.205300 -7.611200 -21.026100
C -32.111200 -5.068400 -23.780400
C -31.695500 -6.725000 -21.920100
O -31.396000 -8.364200 -20.334000
H -31.169000 -4.905000 -23.700700
C -30.218600 -6.614800 -21.953000
H -29.957000 -6.027100 -22.665000
H -29.904000 -6.262700 -21.116500
H -29.836000 -7.483100 -22.098400
H -36.249600 -10.882500 -21.479600
H -36.181600 -12.102900 -22.461600
H -36.128600 -12.338500 -20.913100
C -35.867000 -11.750800 -21.625000
H -34.916600 -13.460600 -19.877400
O -34.689600 -10.001400 -23.244100
C -34.390100 -11.640600 -21.658000
C -33.974400 -13.297200 -19.797700
N -33.880300 -10.754400 -22.551900
H -33.787300 -12.912400 -18.937600
C -33.543700 -12.359600 -20.862400
H -33.497500 -14.125000 -19.887600
H -32.588100 -8.832000 -23.690500
C -32.541900 -10.597400 -22.715700
H -32.298300 -10.044600 -24.640500
N -32.205300 -12.202600 -21.026100
C -32.111200 -9.659800 -23.780400
C -31.695500 -11.316400 -21.920100
O -31.396000 -12.955600 -20.334000
H -31.169000 -9.496400 -23.700700
C -30.218600 -11.206200 -21.953000
H -29.957000 -10.618500 -22.665000
H -29.904000 -10.854100 -21.116500
H -29.836000 -12.074500 -22.098400
