12
Fragment
H -24.015900 -11.137600 -13.980900
C -23.159500 -10.864900 -14.220500
H -23.095000 -9.325900 -12.970000
O -22.989900 -12.603900 -15.719400
C -22.611900 -9.779900 -13.621900
N -22.484600 -11.550300 -15.152800
N -21.382100 -9.345700 -13.951800
C -21.254800 -11.116100 -15.482700
O -20.876800 -8.292100 -13.385200
H -20.771700 -11.570100 -16.134600
C -20.707200 -10.031100 -14.884100
H -19.850800 -9.758400 -15.123700
14
Fragment
H -28.921600 -14.980900 -17.094100
H -28.711100 -14.206700 -18.440700
C -28.352600 -14.882100 -17.861500
H -28.304300 -15.716900 -18.333900
O -28.026800 -11.022600 -14.753100
N -27.623600 -12.719400 -16.072500
N -27.166200 -11.704900 -15.312900
N -27.022900 -14.493500 -17.429800
C -26.685700 -13.470100 -16.625500
O -25.956400 -11.459900 -15.193600
N -25.914700 -15.121400 -17.895400
N -25.342300 -13.522300 -16.606100
N -24.897000 -14.535300 -17.392900
H -24.790900 -12.971200 -16.123900
26
Fragment
H -24.015900 -11.137600 -13.980900
C -23.159500 -10.864900 -14.220500
H -23.095000 -9.325900 -12.970000
O -22.989900 -12.603900 -15.719400
C -22.611900 -9.779900 -13.621900
N -22.484600 -11.550300 -15.152800
N -21.382100 -9.345700 -13.951800
C -21.254800 -11.116100 -15.482700
O -20.876800 -8.292100 -13.385200
H -20.771700 -11.570100 -16.134600
C -20.707200 -10.031100 -14.884100
H -19.850800 -9.758400 -15.123700
H -28.921600 -14.980900 -17.094100
H -28.711100 -14.206700 -18.440700
C -28.352600 -14.882100 -17.861500
H -28.304300 -15.716900 -18.333900
O -28.026800 -11.022600 -14.753100
N -27.623600 -12.719400 -16.072500
N -27.166200 -11.704900 -15.312900
N -27.022900 -14.493500 -17.429800
C -26.685700 -13.470100 -16.625500
O -25.956400 -11.459900 -15.193600
N -25.914700 -15.121400 -17.895400
N -25.342300 -13.522300 -16.606100
N -24.897000 -14.535300 -17.392900
H -24.790900 -12.971200 -16.123900
