24
Fragment
H -28.813700 -6.371000 -44.821000
H -28.424000 -7.232900 -43.529600
C -28.159500 -6.994900 -44.443100
H -28.125200 -7.804200 -44.993200
H -27.533800 -6.511700 -41.896700
O -26.901600 -6.496800 -46.725600
C -26.815100 -6.350700 -44.419900
C -26.622500 -6.152400 -41.879200
H -26.619600 -5.291600 -41.409800
N -26.260800 -6.102800 -45.651700
C -26.138600 -5.959800 -43.276600
H -26.031600 -6.780600 -41.412800
H -25.151000 -4.660800 -47.653300
C -25.044000 -5.481600 -45.789500
N -24.921800 -5.338600 -43.414400
H -24.563000 -6.149800 -47.656300
C -24.560100 -5.289000 -47.186900
C -24.367500 -5.090700 -44.646200
O -24.281000 -4.944600 -42.340500
H -23.648800 -4.929700 -47.169400
H -23.057400 -3.637200 -44.072900
C -23.023100 -4.446500 -44.623000
H -22.758600 -4.208500 -45.536500
H -22.368900 -5.070400 -44.245100
14
Fragment
N -24.627200 -5.337800 -53.012500
N -24.468600 -5.763400 -54.257900
H -24.059800 -4.821000 -50.625200
N -23.506400 -5.633000 -52.381600
C -23.264600 -5.263800 -50.987700
H -23.241500 -7.269100 -56.004800
C -23.237800 -6.305000 -54.292000
H -23.071900 -6.070000 -50.464900
N -22.736000 -6.920500 -55.438300
N -22.597700 -6.255000 -53.131200
H -22.500700 -4.652800 -50.939900
N -21.531400 -6.538000 -55.961400
O -21.262900 -6.983800 -57.073900
O -20.795900 -5.824100 -55.286300
38
Fragment
H -28.813700 -6.371000 -44.821000
H -28.424000 -7.232900 -43.529600
C -28.159500 -6.994900 -44.443100
H -28.125200 -7.804200 -44.993200
H -27.533800 -6.511700 -41.896700
O -26.901600 -6.496800 -46.725600
C -26.815100 -6.350700 -44.419900
C -26.622500 -6.152400 -41.879200
H -26.619600 -5.291600 -41.409800
N -26.260800 -6.102800 -45.651700
C -26.138600 -5.959800 -43.276600
H -26.031600 -6.780600 -41.412800
H -25.151000 -4.660800 -47.653300
C -25.044000 -5.481600 -45.789500
N -24.921800 -5.338600 -43.414400
H -24.563000 -6.149800 -47.656300
C -24.560100 -5.289000 -47.186900
C -24.367500 -5.090700 -44.646200
O -24.281000 -4.944600 -42.340500
H -23.648800 -4.929700 -47.169400
H -23.057400 -3.637200 -44.072900
C -23.023100 -4.446500 -44.623000
H -22.758600 -4.208500 -45.536500
H -22.368900 -5.070400 -44.245100
N -24.627200 -5.337800 -53.012500
N -24.468600 -5.763400 -54.257900
H -24.059800 -4.821000 -50.625200
N -23.506400 -5.633000 -52.381600
C -23.264600 -5.263800 -50.987700
H -23.241500 -7.269100 -56.004800
C -23.237800 -6.305000 -54.292000
H -23.071900 -6.070000 -50.464900
N -22.736000 -6.920500 -55.438300
N -22.597700 -6.255000 -53.131200
H -22.500700 -4.652800 -50.939900
N -21.531400 -6.538000 -55.961400
O -21.262900 -6.983800 -57.073900
O -20.795900 -5.824100 -55.286300
