24
Fragment
H -28.813700 -6.371000 -44.821000
H -28.424000 -7.232900 -43.529600
C -28.159500 -6.994900 -44.443100
H -28.125200 -7.804200 -44.993200
H -27.533800 -6.511700 -41.896700
O -26.901600 -6.496800 -46.725600
C -26.815100 -6.350700 -44.419900
C -26.622500 -6.152400 -41.879200
H -26.619600 -5.291600 -41.409800
N -26.260800 -6.102800 -45.651700
C -26.138600 -5.959800 -43.276600
H -26.031600 -6.780600 -41.412800
H -25.151000 -4.660800 -47.653300
C -25.044000 -5.481600 -45.789500
N -24.921800 -5.338600 -43.414400
H -24.563000 -6.149800 -47.656300
C -24.560100 -5.289000 -47.186900
C -24.367500 -5.090700 -44.646200
O -24.281000 -4.944600 -42.340500
H -23.648800 -4.929700 -47.169400
H -23.057400 -3.637200 -44.072900
C -23.023100 -4.446500 -44.623000
H -22.758600 -4.208500 -45.536500
H -22.368900 -5.070400 -44.245100
14
Fragment
N -24.693300 -8.010500 -38.168100
N -24.534700 -7.584900 -39.413500
H -24.125900 -8.527300 -35.780800
N -23.572500 -7.715300 -37.537200
C -23.330600 -8.084500 -36.143300
H -23.307600 -6.079200 -41.160400
C -23.303900 -7.043300 -39.447700
H -23.138000 -7.278300 -35.620500
N -22.802100 -6.427800 -40.594000
N -22.663800 -7.093300 -38.286900
H -22.566800 -8.695500 -36.095500
N -21.597400 -6.810300 -41.117100
O -21.328900 -6.364500 -42.229500
O -20.862000 -7.524200 -40.442000
38
Fragment
H -28.813700 -6.371000 -44.821000
H -28.424000 -7.232900 -43.529600
C -28.159500 -6.994900 -44.443100
H -28.125200 -7.804200 -44.993200
H -27.533800 -6.511700 -41.896700
O -26.901600 -6.496800 -46.725600
C -26.815100 -6.350700 -44.419900
C -26.622500 -6.152400 -41.879200
H -26.619600 -5.291600 -41.409800
N -26.260800 -6.102800 -45.651700
C -26.138600 -5.959800 -43.276600
H -26.031600 -6.780600 -41.412800
H -25.151000 -4.660800 -47.653300
C -25.044000 -5.481600 -45.789500
N -24.921800 -5.338600 -43.414400
H -24.563000 -6.149800 -47.656300
C -24.560100 -5.289000 -47.186900
C -24.367500 -5.090700 -44.646200
O -24.281000 -4.944600 -42.340500
H -23.648800 -4.929700 -47.169400
H -23.057400 -3.637200 -44.072900
C -23.023100 -4.446500 -44.623000
H -22.758600 -4.208500 -45.536500
H -22.368900 -5.070400 -44.245100
N -24.693300 -8.010500 -38.168100
N -24.534700 -7.584900 -39.413500
H -24.125900 -8.527300 -35.780800
N -23.572500 -7.715300 -37.537200
C -23.330600 -8.084500 -36.143300
H -23.307600 -6.079200 -41.160400
C -23.303900 -7.043300 -39.447700
H -23.138000 -7.278300 -35.620500
N -22.802100 -6.427800 -40.594000
N -22.663800 -7.093300 -38.286900
H -22.566800 -8.695500 -36.095500
N -21.597400 -6.810300 -41.117100
O -21.328900 -6.364500 -42.229500
O -20.862000 -7.524200 -40.442000
