24
Fragment
H -28.813700 -6.371000 -44.821000
H -28.424000 -7.232900 -43.529600
C -28.159500 -6.994900 -44.443100
H -28.125200 -7.804200 -44.993200
H -27.533800 -6.511700 -41.896700
O -26.901600 -6.496800 -46.725600
C -26.815100 -6.350700 -44.419900
C -26.622500 -6.152400 -41.879200
H -26.619600 -5.291600 -41.409800
N -26.260800 -6.102800 -45.651700
C -26.138600 -5.959800 -43.276600
H -26.031600 -6.780600 -41.412800
H -25.151000 -4.660800 -47.653300
C -25.044000 -5.481600 -45.789500
N -24.921800 -5.338600 -43.414400
H -24.563000 -6.149800 -47.656300
C -24.560100 -5.289000 -47.186900
C -24.367500 -5.090700 -44.646200
O -24.281000 -4.944600 -42.340500
H -23.648800 -4.929700 -47.169400
H -23.057400 -3.637200 -44.072900
C -23.023100 -4.446500 -44.623000
H -22.758600 -4.208500 -45.536500
H -22.368900 -5.070400 -44.245100
24
Fragment
H -20.217200 -5.070400 -44.821000
H -19.827500 -4.208500 -43.529600
C -19.563000 -4.446500 -44.443100
H -19.528700 -3.637200 -44.993200
H -18.937300 -4.929700 -41.896700
O -18.305100 -4.944600 -46.725600
C -18.218600 -5.090700 -44.419900
C -18.026000 -5.289000 -41.879200
H -18.023100 -6.149800 -41.409800
N -17.664300 -5.338600 -45.651700
C -17.542100 -5.481600 -43.276600
H -17.435100 -4.660800 -41.412800
H -16.554500 -6.780600 -47.653300
C -16.447500 -5.959800 -45.789500
N -16.325300 -6.102800 -43.414400
H -15.966500 -5.291600 -47.656300
C -15.963600 -6.152400 -47.186900
C -15.771000 -6.350700 -44.646200
O -15.684500 -6.496800 -42.340500
H -15.052300 -6.511700 -47.169400
H -14.460900 -7.804200 -44.072900
C -14.426600 -6.994900 -44.623000
H -14.162100 -7.232900 -45.536500
H -13.772400 -6.371000 -44.245100
48
Fragment
H -28.813700 -6.371000 -44.821000
H -28.424000 -7.232900 -43.529600
C -28.159500 -6.994900 -44.443100
H -28.125200 -7.804200 -44.993200
H -27.533800 -6.511700 -41.896700
O -26.901600 -6.496800 -46.725600
C -26.815100 -6.350700 -44.419900
C -26.622500 -6.152400 -41.879200
H -26.619600 -5.291600 -41.409800
N -26.260800 -6.102800 -45.651700
C -26.138600 -5.959800 -43.276600
H -26.031600 -6.780600 -41.412800
H -25.151000 -4.660800 -47.653300
C -25.044000 -5.481600 -45.789500
N -24.921800 -5.338600 -43.414400
H -24.563000 -6.149800 -47.656300
C -24.560100 -5.289000 -47.186900
C -24.367500 -5.090700 -44.646200
O -24.281000 -4.944600 -42.340500
H -23.648800 -4.929700 -47.169400
H -23.057400 -3.637200 -44.072900
C -23.023100 -4.446500 -44.623000
H -22.758600 -4.208500 -45.536500
H -22.368900 -5.070400 -44.245100
H -20.217200 -5.070400 -44.821000
H -19.827500 -4.208500 -43.529600
C -19.563000 -4.446500 -44.443100
H -19.528700 -3.637200 -44.993200
H -18.937300 -4.929700 -41.896700
O -18.305100 -4.944600 -46.725600
C -18.218600 -5.090700 -44.419900
C -18.026000 -5.289000 -41.879200
H -18.023100 -6.149800 -41.409800
N -17.664300 -5.338600 -45.651700
C -17.542100 -5.481600 -43.276600
H -17.435100 -4.660800 -41.412800
H -16.554500 -6.780600 -47.653300
C -16.447500 -5.959800 -45.789500
N -16.325300 -6.102800 -43.414400
H -15.966500 -5.291600 -47.656300
C -15.963600 -6.152400 -47.186900
C -15.771000 -6.350700 -44.646200
O -15.684500 -6.496800 -42.340500
H -15.052300 -6.511700 -47.169400
H -14.460900 -7.804200 -44.072900
C -14.426600 -6.994900 -44.623000
H -14.162100 -7.232900 -45.536500
H -13.772400 -6.371000 -44.245100
