24
Fragment
H -28.813700 -6.371000 -44.821000
H -28.424000 -7.232900 -43.529600
C -28.159500 -6.994900 -44.443100
H -28.125200 -7.804200 -44.993200
H -27.533800 -6.511700 -41.896700
O -26.901600 -6.496800 -46.725600
C -26.815100 -6.350700 -44.419900
C -26.622500 -6.152400 -41.879200
H -26.619600 -5.291600 -41.409800
N -26.260800 -6.102800 -45.651700
C -26.138600 -5.959800 -43.276600
H -26.031600 -6.780600 -41.412800
H -25.151000 -4.660800 -47.653300
C -25.044000 -5.481600 -45.789500
N -24.921800 -5.338600 -43.414400
H -24.563000 -6.149800 -47.656300
C -24.560100 -5.289000 -47.186900
C -24.367500 -5.090700 -44.646200
O -24.281000 -4.944600 -42.340500
H -23.648800 -4.929700 -47.169400
H -23.057400 -3.637200 -44.072900
C -23.023100 -4.446500 -44.623000
H -22.758600 -4.208500 -45.536500
H -22.368900 -5.070400 -44.245100
14
Fragment
O -30.386700 -5.617300 -33.779800
O -29.919700 -4.457600 -31.992300
N -29.651200 -4.903400 -33.104700
H -28.681900 -6.788600 -38.126200
N -28.584900 -5.186400 -35.934900
N -28.446600 -4.520900 -33.627800
H -28.110700 -5.371400 -38.601300
C -27.944800 -5.136400 -34.774100
H -27.941100 -4.172300 -33.061300
C -27.918000 -6.177600 -38.078400
N -27.676200 -5.808400 -36.684600
H -27.122800 -6.620400 -38.440900
N -26.714000 -5.678000 -34.808200
N -26.555400 -6.103600 -36.053700
38
Fragment
H -28.813700 -6.371000 -44.821000
H -28.424000 -7.232900 -43.529600
C -28.159500 -6.994900 -44.443100
H -28.125200 -7.804200 -44.993200
H -27.533800 -6.511700 -41.896700
O -26.901600 -6.496800 -46.725600
C -26.815100 -6.350700 -44.419900
C -26.622500 -6.152400 -41.879200
H -26.619600 -5.291600 -41.409800
N -26.260800 -6.102800 -45.651700
C -26.138600 -5.959800 -43.276600
H -26.031600 -6.780600 -41.412800
H -25.151000 -4.660800 -47.653300
C -25.044000 -5.481600 -45.789500
N -24.921800 -5.338600 -43.414400
H -24.563000 -6.149800 -47.656300
C -24.560100 -5.289000 -47.186900
C -24.367500 -5.090700 -44.646200
O -24.281000 -4.944600 -42.340500
H -23.648800 -4.929700 -47.169400
H -23.057400 -3.637200 -44.072900
C -23.023100 -4.446500 -44.623000
H -22.758600 -4.208500 -45.536500
H -22.368900 -5.070400 -44.245100
O -30.386700 -5.617300 -33.779800
O -29.919700 -4.457600 -31.992300
N -29.651200 -4.903400 -33.104700
H -28.681900 -6.788600 -38.126200
N -28.584900 -5.186400 -35.934900
N -28.446600 -4.520900 -33.627800
H -28.110700 -5.371400 -38.601300
C -27.944800 -5.136400 -34.774100
H -27.941100 -4.172300 -33.061300
C -27.918000 -6.177600 -38.078400
N -27.676200 -5.808400 -36.684600
H -27.122800 -6.620400 -38.440900
N -26.714000 -5.678000 -34.808200
N -26.555400 -6.103600 -36.053700
