17
Fragment
H -24.950800 -7.312400 -23.350200
N -24.139300 -7.305800 -23.568600
H -24.098200 -5.911300 -25.080900
C -23.575400 -6.512800 -24.566800
N -23.359200 -8.943800 -21.988100
C -23.160500 -8.060200 -23.006300
H -23.035900 -10.553500 -20.143800
N -22.286200 -10.459600 -20.593900
C -22.253200 -9.548600 -21.592400
C -22.238600 -6.764200 -24.647200
C -21.953300 -7.755400 -23.652000
H -21.639600 -6.317000 -25.267400
H -21.548300 -10.709200 -20.193000
N -21.026900 -9.308000 -22.156700
C -20.795800 -8.428200 -23.204100
H -20.342600 -9.723200 -21.844700
O -19.621400 -8.315900 -23.639000
17
Fragment
O -18.725500 -10.554900 -21.121700
H -18.004300 -9.147600 -22.916000
C -17.551100 -10.442600 -21.556600
N -17.320100 -9.562800 -22.604000
H -16.798600 -8.161600 -24.567700
H -16.707300 -12.553800 -19.493300
C -16.393600 -11.115400 -21.108700
C -16.108400 -12.106600 -20.113500
C -16.093700 -9.322200 -23.168300
N -16.060700 -8.411200 -24.166700
H -15.311100 -8.317300 -24.616900
C -15.186500 -10.810600 -21.754400
N -14.987700 -9.927000 -22.772600
C -14.771500 -12.358000 -20.193900
H -14.248800 -12.959500 -19.679800
N -14.207700 -11.565000 -21.192100
H -13.396200 -11.558400 -21.410500
34
Fragment
H -24.950800 -7.312400 -23.350200
N -24.139300 -7.305800 -23.568600
H -24.098200 -5.911300 -25.080900
C -23.575400 -6.512800 -24.566800
N -23.359200 -8.943800 -21.988100
C -23.160500 -8.060200 -23.006300
H -23.035900 -10.553500 -20.143800
N -22.286200 -10.459600 -20.593900
C -22.253200 -9.548600 -21.592400
C -22.238600 -6.764200 -24.647200
C -21.953300 -7.755400 -23.652000
H -21.639600 -6.317000 -25.267400
H -21.548300 -10.709200 -20.193000
N -21.026900 -9.308000 -22.156700
C -20.795800 -8.428200 -23.204100
H -20.342600 -9.723200 -21.844700
O -19.621400 -8.315900 -23.639000
O -18.725500 -10.554900 -21.121700
H -18.004300 -9.147600 -22.916000
C -17.551100 -10.442600 -21.556600
N -17.320100 -9.562800 -22.604000
H -16.798600 -8.161600 -24.567700
H -16.707300 -12.553800 -19.493300
C -16.393600 -11.115400 -21.108700
C -16.108400 -12.106600 -20.113500
C -16.093700 -9.322200 -23.168300
N -16.060700 -8.411200 -24.166700
H -15.311100 -8.317300 -24.616900
C -15.186500 -10.810600 -21.754400
N -14.987700 -9.927000 -22.772600
C -14.771500 -12.358000 -20.193900
H -14.248800 -12.959500 -19.679800
N -14.207700 -11.565000 -21.192100
H -13.396200 -11.558400 -21.410500
