17
Fragment
H -24.950800 -7.312400 -23.350200
N -24.139300 -7.305800 -23.568600
H -24.098200 -5.911300 -25.080900
C -23.575400 -6.512800 -24.566800
N -23.359200 -8.943800 -21.988100
C -23.160500 -8.060200 -23.006300
H -23.035900 -10.553500 -20.143800
N -22.286200 -10.459600 -20.593900
C -22.253200 -9.548600 -21.592400
C -22.238600 -6.764200 -24.647200
C -21.953300 -7.755400 -23.652000
H -21.639600 -6.317000 -25.267400
H -21.548300 -10.709200 -20.193000
N -21.026900 -9.308000 -22.156700
C -20.795800 -8.428200 -23.204100
H -20.342600 -9.723200 -21.844700
O -19.621400 -8.315900 -23.639000
6
Fragment
H -26.897000 -3.443900 -27.010100
H -26.678400 -3.492500 -25.425600
C -26.319600 -3.778400 -26.292100
O -26.277000 -5.197000 -26.341500
H -25.766200 -5.382900 -27.050400
H -25.415500 -3.420300 -26.405800
23
Fragment
H -24.950800 -7.312400 -23.350200
N -24.139300 -7.305800 -23.568600
H -24.098200 -5.911300 -25.080900
C -23.575400 -6.512800 -24.566800
N -23.359200 -8.943800 -21.988100
C -23.160500 -8.060200 -23.006300
H -23.035900 -10.553500 -20.143800
N -22.286200 -10.459600 -20.593900
C -22.253200 -9.548600 -21.592400
C -22.238600 -6.764200 -24.647200
C -21.953300 -7.755400 -23.652000
H -21.639600 -6.317000 -25.267400
H -21.548300 -10.709200 -20.193000
N -21.026900 -9.308000 -22.156700
C -20.795800 -8.428200 -23.204100
H -20.342600 -9.723200 -21.844700
O -19.621400 -8.315900 -23.639000
H -26.897000 -3.443900 -27.010100
H -26.678400 -3.492500 -25.425600
C -26.319600 -3.778400 -26.292100
O -26.277000 -5.197000 -26.341500
H -25.766200 -5.382900 -27.050400
H -25.415500 -3.420300 -26.405800
