18
Fragment
O -33.638000 -7.796300 -18.290300
H -33.099400 -9.945700 -19.267200
O -32.861400 -11.885200 -20.745200
N -32.685800 -8.005700 -17.544700
O -32.346300 -7.258900 -16.630900
C -32.301100 -10.094000 -18.773800
N -31.915400 -12.181600 -20.023200
C -31.875600 -9.214200 -17.791300
C -31.497000 -11.206700 -18.999000
O -31.289800 -13.237800 -20.096900
C -30.707600 -9.378200 -17.067600
H -30.445500 -8.761900 -16.394000
C -30.307300 -11.433500 -18.320600
C -29.940800 -10.491000 -17.378100
H -29.772000 -12.198800 -18.495200
N -28.615300 -10.615300 -16.739900
O -28.388400 -9.936100 -15.749500
O -27.808500 -11.377000 -17.271100
16
Fragment
O -29.020400 -15.628700 -20.329900
O -28.615100 -14.118900 -18.805300
N -28.579500 -14.540800 -19.963100
C -27.955200 -13.702000 -20.945800
N -27.829500 -14.115800 -22.221300
C -27.376900 -12.465500 -20.720600
H -27.344000 -11.981600 -19.903700
C -27.172100 -13.123500 -22.774700
O -27.087300 -14.174800 -24.790100
N -26.867800 -12.095900 -21.921200
N -26.763200 -13.176300 -24.154300
H -26.609200 -10.337800 -22.900500
H -26.157900 -10.278000 -21.366400
C -26.157100 -10.824000 -22.179900
O -26.101000 -12.246200 -24.594800
H -25.232700 -11.014800 -22.444500
34
Fragment
O -33.638000 -7.796300 -18.290300
H -33.099400 -9.945700 -19.267200
O -32.861400 -11.885200 -20.745200
N -32.685800 -8.005700 -17.544700
O -32.346300 -7.258900 -16.630900
C -32.301100 -10.094000 -18.773800
N -31.915400 -12.181600 -20.023200
C -31.875600 -9.214200 -17.791300
C -31.497000 -11.206700 -18.999000
O -31.289800 -13.237800 -20.096900
C -30.707600 -9.378200 -17.067600
H -30.445500 -8.761900 -16.394000
C -30.307300 -11.433500 -18.320600
C -29.940800 -10.491000 -17.378100
H -29.772000 -12.198800 -18.495200
N -28.615300 -10.615300 -16.739900
O -28.388400 -9.936100 -15.749500
O -27.808500 -11.377000 -17.271100
O -29.020400 -15.628700 -20.329900
O -28.615100 -14.118900 -18.805300
N -28.579500 -14.540800 -19.963100
C -27.955200 -13.702000 -20.945800
N -27.829500 -14.115800 -22.221300
C -27.376900 -12.465500 -20.720600
H -27.344000 -11.981600 -19.903700
C -27.172100 -13.123500 -22.774700
O -27.087300 -14.174800 -24.790100
N -26.867800 -12.095900 -21.921200
N -26.763200 -13.176300 -24.154300
H -26.609200 -10.337800 -22.900500
H -26.157900 -10.278000 -21.366400
C -26.157100 -10.824000 -22.179900
O -26.101000 -12.246200 -24.594800
H -25.232700 -11.014800 -22.444500
