18
Fragment
O -33.638000 -7.796300 -18.290300
H -33.099400 -9.945700 -19.267200
O -32.861400 -11.885200 -20.745200
N -32.685800 -8.005700 -17.544700
O -32.346300 -7.258900 -16.630900
C -32.301100 -10.094000 -18.773800
N -31.915400 -12.181600 -20.023200
C -31.875600 -9.214200 -17.791300
C -31.497000 -11.206700 -18.999000
O -31.289800 -13.237800 -20.096900
C -30.707600 -9.378200 -17.067600
H -30.445500 -8.761900 -16.394000
C -30.307300 -11.433500 -18.320600
C -29.940800 -10.491000 -17.378100
H -29.772000 -12.198800 -18.495200
N -28.615300 -10.615300 -16.739900
O -28.388400 -9.936100 -15.749500
O -27.808500 -11.377000 -17.271100
18
Fragment
O -34.704900 -13.475800 -22.922500
O -34.125000 -14.916700 -21.400900
N -33.898100 -14.237500 -22.391300
H -32.741400 -12.654000 -24.146600
C -32.572600 -14.361800 -23.029500
C -32.206100 -13.419300 -23.972000
H -32.067900 -16.090900 -22.045400
C -31.805800 -15.474600 -22.719000
O -31.223600 -11.615000 -25.748300
C -31.016400 -13.646100 -24.650400
C -30.637800 -15.638600 -23.442700
N -30.598000 -12.671200 -25.674600
C -30.212300 -14.758800 -24.425200
O -30.167100 -17.593900 -22.282300
N -29.827600 -16.847100 -23.196100
O -29.652000 -12.967600 -26.396600
H -29.414000 -14.907100 -24.918600
O -28.875400 -17.056500 -23.941700
36
Fragment
O -33.638000 -7.796300 -18.290300
H -33.099400 -9.945700 -19.267200
O -32.861400 -11.885200 -20.745200
N -32.685800 -8.005700 -17.544700
O -32.346300 -7.258900 -16.630900
C -32.301100 -10.094000 -18.773800
N -31.915400 -12.181600 -20.023200
C -31.875600 -9.214200 -17.791300
C -31.497000 -11.206700 -18.999000
O -31.289800 -13.237800 -20.096900
C -30.707600 -9.378200 -17.067600
H -30.445500 -8.761900 -16.394000
C -30.307300 -11.433500 -18.320600
C -29.940800 -10.491000 -17.378100
H -29.772000 -12.198800 -18.495200
N -28.615300 -10.615300 -16.739900
O -28.388400 -9.936100 -15.749500
O -27.808500 -11.377000 -17.271100
O -34.704900 -13.475800 -22.922500
O -34.125000 -14.916700 -21.400900
N -33.898100 -14.237500 -22.391300
H -32.741400 -12.654000 -24.146600
C -32.572600 -14.361800 -23.029500
C -32.206100 -13.419300 -23.972000
H -32.067900 -16.090900 -22.045400
C -31.805800 -15.474600 -22.719000
O -31.223600 -11.615000 -25.748300
C -31.016400 -13.646100 -24.650400
C -30.637800 -15.638600 -23.442700
N -30.598000 -12.671200 -25.674600
C -30.212300 -14.758800 -24.425200
O -30.167100 -17.593900 -22.282300
N -29.827600 -16.847100 -23.196100
O -29.652000 -12.967600 -26.396600
H -29.414000 -14.907100 -24.918600
O -28.875400 -17.056500 -23.941700
