26
Fragment
H -6.776200 -6.047300 -17.543500
H -6.598900 -7.499500 -16.938700
C -6.159200 -6.650800 -17.102200
N -5.995000 -4.760600 -15.551700
N -5.738300 -6.075500 -15.845000
H -5.551200 -3.774300 -13.870700
C -5.514500 -4.590000 -14.337200
H -5.384500 -6.791900 -17.669100
C -5.098900 -6.702400 -14.841600
C -4.941800 -5.758900 -13.817400
N -4.775300 -8.023500 -14.889700
H -4.697200 -8.377400 -15.643300
H -4.530500 -4.306200 -11.844900
C -4.306500 -6.018400 -12.530600
H -4.201000 -8.217600 -14.283000
N -4.187000 -5.007500 -11.644800
N -3.902700 -7.245700 -12.355400
H -3.893700 -5.110600 -10.819500
H -3.344400 -7.052700 -10.463700
N -3.307400 -7.560700 -11.133200
C -2.717300 -8.747100 -11.025100
H -2.684000 -9.908700 -9.348300
O -2.591100 -9.504100 -11.993800
H -2.368300 -8.385900 -9.048000
C -2.214200 -9.120400 -9.662100
H -1.263300 -9.307700 -9.709300
26
Fragment
H -11.410300 -8.737300 -21.681900
C -10.459400 -8.924600 -21.729100
H -10.305200 -9.659000 -22.343200
O -10.082400 -8.540800 -19.397400
H -9.989500 -8.136200 -22.042900
C -9.956200 -9.297800 -20.366100
N -9.366100 -10.484300 -20.258000
H -9.329100 -10.992300 -20.927500
H -8.779800 -12.934400 -20.571700
N -8.770900 -10.799200 -19.035800
N -8.486600 -13.037400 -19.746400
H -8.472500 -9.827400 -17.108200
C -8.367000 -12.026500 -18.860600
H -8.143100 -13.738800 -19.546300
H -7.976300 -9.667600 -15.747900
N -7.898300 -10.021500 -16.501500
C -7.731700 -12.286000 -17.573800
C -7.574600 -11.342600 -16.549700
H -7.289000 -11.253000 -13.722100
C -7.159100 -13.455000 -17.054000
H -7.122400 -14.270600 -17.520500
N -6.935200 -11.969400 -15.546200
N -6.678500 -13.284400 -15.839500
C -6.514300 -11.394200 -14.289000
H -6.074600 -10.545400 -14.452500
H -5.897300 -11.997700 -13.847700
52
Fragment
H -6.776200 -6.047300 -17.543500
H -6.598900 -7.499500 -16.938700
C -6.159200 -6.650800 -17.102200
N -5.995000 -4.760600 -15.551700
N -5.738300 -6.075500 -15.845000
H -5.551200 -3.774300 -13.870700
C -5.514500 -4.590000 -14.337200
H -5.384500 -6.791900 -17.669100
C -5.098900 -6.702400 -14.841600
C -4.941800 -5.758900 -13.817400
N -4.775300 -8.023500 -14.889700
H -4.697200 -8.377400 -15.643300
H -4.530500 -4.306200 -11.844900
C -4.306500 -6.018400 -12.530600
H -4.201000 -8.217600 -14.283000
N -4.187000 -5.007500 -11.644800
N -3.902700 -7.245700 -12.355400
H -3.893700 -5.110600 -10.819500
H -3.344400 -7.052700 -10.463700
N -3.307400 -7.560700 -11.133200
C -2.717300 -8.747100 -11.025100
H -2.684000 -9.908700 -9.348300
O -2.591100 -9.504100 -11.993800
H -2.368300 -8.385900 -9.048000
C -2.214200 -9.120400 -9.662100
H -1.263300 -9.307700 -9.709300
H -11.410300 -8.737300 -21.681900
C -10.459400 -8.924600 -21.729100
H -10.305200 -9.659000 -22.343200
O -10.082400 -8.540800 -19.397400
H -9.989500 -8.136200 -22.042900
C -9.956200 -9.297800 -20.366100
N -9.366100 -10.484300 -20.258000
H -9.329100 -10.992300 -20.927500
H -8.779800 -12.934400 -20.571700
N -8.770900 -10.799200 -19.035800
N -8.486600 -13.037400 -19.746400
H -8.472500 -9.827400 -17.108200
C -8.367000 -12.026500 -18.860600
H -8.143100 -13.738800 -19.546300
H -7.976300 -9.667600 -15.747900
N -7.898300 -10.021500 -16.501500
C -7.731700 -12.286000 -17.573800
C -7.574600 -11.342600 -16.549700
H -7.289000 -11.253000 -13.722100
C -7.159100 -13.455000 -17.054000
H -7.122400 -14.270600 -17.520500
N -6.935200 -11.969400 -15.546200
N -6.678500 -13.284400 -15.839500
C -6.514300 -11.394200 -14.289000
H -6.074600 -10.545400 -14.452500
H -5.897300 -11.997700 -13.847700
