26
Fragment
H -6.776200 -6.047300 -17.543500
H -6.598900 -7.499500 -16.938700
C -6.159200 -6.650800 -17.102200
N -5.995000 -4.760600 -15.551700
N -5.738300 -6.075500 -15.845000
H -5.551200 -3.774300 -13.870700
C -5.514500 -4.590000 -14.337200
H -5.384500 -6.791900 -17.669100
C -5.098900 -6.702400 -14.841600
C -4.941800 -5.758900 -13.817400
N -4.775300 -8.023500 -14.889700
H -4.697200 -8.377400 -15.643300
H -4.530500 -4.306200 -11.844900
C -4.306500 -6.018400 -12.530600
H -4.201000 -8.217600 -14.283000
N -4.187000 -5.007500 -11.644800
N -3.902700 -7.245700 -12.355400
H -3.893700 -5.110600 -10.819500
H -3.344400 -7.052700 -10.463700
N -3.307400 -7.560700 -11.133200
C -2.717300 -8.747100 -11.025100
H -2.684000 -9.908700 -9.348300
O -2.591100 -9.504100 -11.993800
H -2.368300 -8.385900 -9.048000
C -2.214200 -9.120400 -9.662100
H -1.263300 -9.307700 -9.709300
26
Fragment
H -12.094100 -2.564100 -28.007200
H -11.916800 -4.016300 -27.402400
C -11.477100 -3.167600 -27.566000
N -11.312900 -1.277300 -26.015500
N -11.056200 -2.592300 -26.308800
H -10.869100 -0.291100 -24.334500
C -10.832400 -1.106800 -24.800900
H -10.702400 -3.308700 -28.132800
C -10.416800 -3.219100 -25.305300
C -10.259700 -2.275700 -24.281100
N -10.093200 -4.540200 -25.353400
H -10.015100 -4.894200 -26.107000
H -9.848400 -0.823000 -22.308700
C -9.624400 -2.535200 -22.994400
H -9.518900 -4.734400 -24.746700
N -9.504900 -1.524300 -22.108500
N -9.220500 -3.762500 -22.819100
H -9.211600 -1.627400 -21.283200
H -8.662300 -3.569400 -20.927500
N -8.625300 -4.077500 -21.596900
C -8.035200 -5.263900 -21.488800
H -8.001900 -6.425500 -19.812000
O -7.909000 -6.020900 -22.457600
H -7.686200 -4.902700 -19.511700
C -7.532100 -5.637100 -20.125800
H -6.581200 -5.824500 -20.173000
52
Fragment
H -6.776200 -6.047300 -17.543500
H -6.598900 -7.499500 -16.938700
C -6.159200 -6.650800 -17.102200
N -5.995000 -4.760600 -15.551700
N -5.738300 -6.075500 -15.845000
H -5.551200 -3.774300 -13.870700
C -5.514500 -4.590000 -14.337200
H -5.384500 -6.791900 -17.669100
C -5.098900 -6.702400 -14.841600
C -4.941800 -5.758900 -13.817400
N -4.775300 -8.023500 -14.889700
H -4.697200 -8.377400 -15.643300
H -4.530500 -4.306200 -11.844900
C -4.306500 -6.018400 -12.530600
H -4.201000 -8.217600 -14.283000
N -4.187000 -5.007500 -11.644800
N -3.902700 -7.245700 -12.355400
H -3.893700 -5.110600 -10.819500
H -3.344400 -7.052700 -10.463700
N -3.307400 -7.560700 -11.133200
C -2.717300 -8.747100 -11.025100
H -2.684000 -9.908700 -9.348300
O -2.591100 -9.504100 -11.993800
H -2.368300 -8.385900 -9.048000
C -2.214200 -9.120400 -9.662100
H -1.263300 -9.307700 -9.709300
H -12.094100 -2.564100 -28.007200
H -11.916800 -4.016300 -27.402400
C -11.477100 -3.167600 -27.566000
N -11.312900 -1.277300 -26.015500
N -11.056200 -2.592300 -26.308800
H -10.869100 -0.291100 -24.334500
C -10.832400 -1.106800 -24.800900
H -10.702400 -3.308700 -28.132800
C -10.416800 -3.219100 -25.305300
C -10.259700 -2.275700 -24.281100
N -10.093200 -4.540200 -25.353400
H -10.015100 -4.894200 -26.107000
H -9.848400 -0.823000 -22.308700
C -9.624400 -2.535200 -22.994400
H -9.518900 -4.734400 -24.746700
N -9.504900 -1.524300 -22.108500
N -9.220500 -3.762500 -22.819100
H -9.211600 -1.627400 -21.283200
H -8.662300 -3.569400 -20.927500
N -8.625300 -4.077500 -21.596900
C -8.035200 -5.263900 -21.488800
H -8.001900 -6.425500 -19.812000
O -7.909000 -6.020900 -22.457600
H -7.686200 -4.902700 -19.511700
C -7.532100 -5.637100 -20.125800
H -6.581200 -5.824500 -20.173000
