26
Fragment
H -6.776200 -6.047300 -17.543500
H -6.598900 -7.499500 -16.938700
C -6.159200 -6.650800 -17.102200
N -5.995000 -4.760600 -15.551700
N -5.738300 -6.075500 -15.845000
H -5.551200 -3.774300 -13.870700
C -5.514500 -4.590000 -14.337200
H -5.384500 -6.791900 -17.669100
C -5.098900 -6.702400 -14.841600
C -4.941800 -5.758900 -13.817400
N -4.775300 -8.023500 -14.889700
H -4.697200 -8.377400 -15.643300
H -4.530500 -4.306200 -11.844900
C -4.306500 -6.018400 -12.530600
H -4.201000 -8.217600 -14.283000
N -4.187000 -5.007500 -11.644800
N -3.902700 -7.245700 -12.355400
H -3.893700 -5.110600 -10.819500
H -3.344400 -7.052700 -10.463700
N -3.307400 -7.560700 -11.133200
C -2.717300 -8.747100 -11.025100
H -2.684000 -9.908700 -9.348300
O -2.591100 -9.504100 -11.993800
H -2.368300 -8.385900 -9.048000
C -2.214200 -9.120400 -9.662100
H -1.263300 -9.307700 -9.709300
26
Fragment
H -1.458300 -9.530500 -7.079800
H -1.281000 -10.982700 -6.475000
C -0.841300 -10.134000 -6.638500
N -0.677100 -8.243800 -5.088000
N -0.420400 -9.558800 -5.381300
H -0.233300 -7.257500 -3.407000
C -0.196600 -8.073200 -3.873500
H -0.066600 -10.275100 -7.205300
C 0.219000 -10.185600 -4.377800
C 0.376100 -9.242100 -3.353600
N 0.542600 -11.506700 -4.426000
H 0.620700 -11.860600 -5.179500
H 0.787400 -7.789400 -1.381200
C 1.011400 -9.501600 -2.066900
H 1.116900 -11.700800 -3.819300
N 1.130900 -8.490700 -1.181000
N 1.415200 -10.729000 -1.891600
H 1.424200 -8.593800 -0.355800
H 1.973500 -10.535900 -0.000000
N 2.010500 -11.043900 -0.669500
C 2.600600 -12.230400 -0.561400
H 2.633900 -13.391900 1.115400
O 2.726800 -12.987300 -1.530100
H 2.949600 -11.869100 1.415700
C 3.103700 -12.603600 0.801600
H 4.054600 -12.790900 0.754400
52
Fragment
H -6.776200 -6.047300 -17.543500
H -6.598900 -7.499500 -16.938700
C -6.159200 -6.650800 -17.102200
N -5.995000 -4.760600 -15.551700
N -5.738300 -6.075500 -15.845000
H -5.551200 -3.774300 -13.870700
C -5.514500 -4.590000 -14.337200
H -5.384500 -6.791900 -17.669100
C -5.098900 -6.702400 -14.841600
C -4.941800 -5.758900 -13.817400
N -4.775300 -8.023500 -14.889700
H -4.697200 -8.377400 -15.643300
H -4.530500 -4.306200 -11.844900
C -4.306500 -6.018400 -12.530600
H -4.201000 -8.217600 -14.283000
N -4.187000 -5.007500 -11.644800
N -3.902700 -7.245700 -12.355400
H -3.893700 -5.110600 -10.819500
H -3.344400 -7.052700 -10.463700
N -3.307400 -7.560700 -11.133200
C -2.717300 -8.747100 -11.025100
H -2.684000 -9.908700 -9.348300
O -2.591100 -9.504100 -11.993800
H -2.368300 -8.385900 -9.048000
C -2.214200 -9.120400 -9.662100
H -1.263300 -9.307700 -9.709300
H -1.458300 -9.530500 -7.079800
H -1.281000 -10.982700 -6.475000
C -0.841300 -10.134000 -6.638500
N -0.677100 -8.243800 -5.088000
N -0.420400 -9.558800 -5.381300
H -0.233300 -7.257500 -3.407000
C -0.196600 -8.073200 -3.873500
H -0.066600 -10.275100 -7.205300
C 0.219000 -10.185600 -4.377800
C 0.376100 -9.242100 -3.353600
N 0.542600 -11.506700 -4.426000
H 0.620700 -11.860600 -5.179500
H 0.787400 -7.789400 -1.381200
C 1.011400 -9.501600 -2.066900
H 1.116900 -11.700800 -3.819300
N 1.130900 -8.490700 -1.181000
N 1.415200 -10.729000 -1.891600
H 1.424200 -8.593800 -0.355800
H 1.973500 -10.535900 -0.000000
N 2.010500 -11.043900 -0.669500
C 2.600600 -12.230400 -0.561400
H 2.633900 -13.391900 1.115400
O 2.726800 -12.987300 -1.530100
H 2.949600 -11.869100 1.415700
C 3.103700 -12.603600 0.801600
H 4.054600 -12.790900 0.754400
