26
Fragment
H -6.776200 -6.047300 -17.543500
H -6.598900 -7.499500 -16.938700
C -6.159200 -6.650800 -17.102200
N -5.995000 -4.760600 -15.551700
N -5.738300 -6.075500 -15.845000
H -5.551200 -3.774300 -13.870700
C -5.514500 -4.590000 -14.337200
H -5.384500 -6.791900 -17.669100
C -5.098900 -6.702400 -14.841600
C -4.941800 -5.758900 -13.817400
N -4.775300 -8.023500 -14.889700
H -4.697200 -8.377400 -15.643300
H -4.530500 -4.306200 -11.844900
C -4.306500 -6.018400 -12.530600
H -4.201000 -8.217600 -14.283000
N -4.187000 -5.007500 -11.644800
N -3.902700 -7.245700 -12.355400
H -3.893700 -5.110600 -10.819500
H -3.344400 -7.052700 -10.463700
N -3.307400 -7.560700 -11.133200
C -2.717300 -8.747100 -11.025100
H -2.684000 -9.908700 -9.348300
O -2.591100 -9.504100 -11.993800
H -2.368300 -8.385900 -9.048000
C -2.214200 -9.120400 -9.662100
H -1.263300 -9.307700 -9.709300
26
Fragment
H -6.092400 -12.220500 -11.218200
C -5.141500 -12.407800 -11.265400
H -4.987300 -13.142300 -11.879500
O -4.764500 -12.024000 -8.933600
H -4.671600 -11.619500 -11.579200
C -4.638300 -12.781000 -9.902400
N -4.048200 -13.967500 -9.794300
H -4.011200 -14.475500 -10.463700
H -3.461900 -16.417600 -10.108000
N -3.453000 -14.282400 -8.572100
N -3.168700 -16.520600 -9.282700
H -3.154600 -13.310600 -6.644500
C -3.049100 -15.509700 -8.396800
H -2.825200 -17.222000 -9.082500
H -2.658400 -13.150800 -5.284200
N -2.580400 -13.504700 -6.037800
C -2.413800 -15.769200 -7.110100
C -2.256700 -14.825800 -6.085900
H -1.971100 -14.736200 -3.258400
C -1.841200 -16.938200 -6.590300
H -1.804500 -17.753900 -7.056700
N -1.617300 -15.452600 -5.082400
N -1.360600 -16.767600 -5.375700
C -1.196400 -14.877400 -3.825200
H -0.756700 -14.028600 -3.988800
H -0.579400 -15.480900 -3.384000
52
Fragment
H -6.776200 -6.047300 -17.543500
H -6.598900 -7.499500 -16.938700
C -6.159200 -6.650800 -17.102200
N -5.995000 -4.760600 -15.551700
N -5.738300 -6.075500 -15.845000
H -5.551200 -3.774300 -13.870700
C -5.514500 -4.590000 -14.337200
H -5.384500 -6.791900 -17.669100
C -5.098900 -6.702400 -14.841600
C -4.941800 -5.758900 -13.817400
N -4.775300 -8.023500 -14.889700
H -4.697200 -8.377400 -15.643300
H -4.530500 -4.306200 -11.844900
C -4.306500 -6.018400 -12.530600
H -4.201000 -8.217600 -14.283000
N -4.187000 -5.007500 -11.644800
N -3.902700 -7.245700 -12.355400
H -3.893700 -5.110600 -10.819500
H -3.344400 -7.052700 -10.463700
N -3.307400 -7.560700 -11.133200
C -2.717300 -8.747100 -11.025100
H -2.684000 -9.908700 -9.348300
O -2.591100 -9.504100 -11.993800
H -2.368300 -8.385900 -9.048000
C -2.214200 -9.120400 -9.662100
H -1.263300 -9.307700 -9.709300
H -6.092400 -12.220500 -11.218200
C -5.141500 -12.407800 -11.265400
H -4.987300 -13.142300 -11.879500
O -4.764500 -12.024000 -8.933600
H -4.671600 -11.619500 -11.579200
C -4.638300 -12.781000 -9.902400
N -4.048200 -13.967500 -9.794300
H -4.011200 -14.475500 -10.463700
H -3.461900 -16.417600 -10.108000
N -3.453000 -14.282400 -8.572100
N -3.168700 -16.520600 -9.282700
H -3.154600 -13.310600 -6.644500
C -3.049100 -15.509700 -8.396800
H -2.825200 -17.222000 -9.082500
H -2.658400 -13.150800 -5.284200
N -2.580400 -13.504700 -6.037800
C -2.413800 -15.769200 -7.110100
C -2.256700 -14.825800 -6.085900
H -1.971100 -14.736200 -3.258400
C -1.841200 -16.938200 -6.590300
H -1.804500 -17.753900 -7.056700
N -1.617300 -15.452600 -5.082400
N -1.360600 -16.767600 -5.375700
C -1.196400 -14.877400 -3.825200
H -0.756700 -14.028600 -3.988800
H -0.579400 -15.480900 -3.384000
