26
Fragment
H -6.776200 -6.047300 -17.543500
H -6.598900 -7.499500 -16.938700
C -6.159200 -6.650800 -17.102200
N -5.995000 -4.760600 -15.551700
N -5.738300 -6.075500 -15.845000
H -5.551200 -3.774300 -13.870700
C -5.514500 -4.590000 -14.337200
H -5.384500 -6.791900 -17.669100
C -5.098900 -6.702400 -14.841600
C -4.941800 -5.758900 -13.817400
N -4.775300 -8.023500 -14.889700
H -4.697200 -8.377400 -15.643300
H -4.530500 -4.306200 -11.844900
C -4.306500 -6.018400 -12.530600
H -4.201000 -8.217600 -14.283000
N -4.187000 -5.007500 -11.644800
N -3.902700 -7.245700 -12.355400
H -3.893700 -5.110600 -10.819500
H -3.344400 -7.052700 -10.463700
N -3.307400 -7.560700 -11.133200
C -2.717300 -8.747100 -11.025100
H -2.684000 -9.908700 -9.348300
O -2.591100 -9.504100 -11.993800
H -2.368300 -8.385900 -9.048000
C -2.214200 -9.120400 -9.662100
H -1.263300 -9.307700 -9.709300
26
Fragment
H -9.483600 1.076400 -17.543500
H -9.306300 -0.375900 -16.938700
C -8.866700 0.472900 -17.102200
N -8.702400 2.363100 -15.551700
N -8.445700 1.048100 -15.845000
H -8.258600 3.349300 -13.870700
C -8.221900 2.533700 -14.337200
H -8.092000 0.331700 -17.669100
C -7.806400 0.421300 -14.841600
C -7.649300 1.364700 -13.817400
N -7.482700 -0.899800 -14.889700
H -7.404700 -1.253700 -15.643300
H -7.237900 2.817500 -11.844900
C -7.014000 1.105200 -12.530600
H -6.908400 -1.093900 -14.283000
N -6.894400 2.116100 -11.644800
N -6.610100 -0.122100 -12.355400
H -6.601200 2.013100 -10.819500
H -6.051900 0.071000 -10.463700
N -6.014800 -0.437000 -11.133200
C -5.424700 -1.623500 -11.025100
H -5.391500 -2.785000 -9.348300
O -5.298600 -2.380500 -11.993800
H -5.075700 -1.262300 -9.048000
C -4.921600 -1.996700 -9.662100
H -3.970700 -2.184000 -9.709300
52
Fragment
H -6.776200 -6.047300 -17.543500
H -6.598900 -7.499500 -16.938700
C -6.159200 -6.650800 -17.102200
N -5.995000 -4.760600 -15.551700
N -5.738300 -6.075500 -15.845000
H -5.551200 -3.774300 -13.870700
C -5.514500 -4.590000 -14.337200
H -5.384500 -6.791900 -17.669100
C -5.098900 -6.702400 -14.841600
C -4.941800 -5.758900 -13.817400
N -4.775300 -8.023500 -14.889700
H -4.697200 -8.377400 -15.643300
H -4.530500 -4.306200 -11.844900
C -4.306500 -6.018400 -12.530600
H -4.201000 -8.217600 -14.283000
N -4.187000 -5.007500 -11.644800
N -3.902700 -7.245700 -12.355400
H -3.893700 -5.110600 -10.819500
H -3.344400 -7.052700 -10.463700
N -3.307400 -7.560700 -11.133200
C -2.717300 -8.747100 -11.025100
H -2.684000 -9.908700 -9.348300
O -2.591100 -9.504100 -11.993800
H -2.368300 -8.385900 -9.048000
C -2.214200 -9.120400 -9.662100
H -1.263300 -9.307700 -9.709300
H -9.483600 1.076400 -17.543500
H -9.306300 -0.375900 -16.938700
C -8.866700 0.472900 -17.102200
N -8.702400 2.363100 -15.551700
N -8.445700 1.048100 -15.845000
H -8.258600 3.349300 -13.870700
C -8.221900 2.533700 -14.337200
H -8.092000 0.331700 -17.669100
C -7.806400 0.421300 -14.841600
C -7.649300 1.364700 -13.817400
N -7.482700 -0.899800 -14.889700
H -7.404700 -1.253700 -15.643300
H -7.237900 2.817500 -11.844900
C -7.014000 1.105200 -12.530600
H -6.908400 -1.093900 -14.283000
N -6.894400 2.116100 -11.644800
N -6.610100 -0.122100 -12.355400
H -6.601200 2.013100 -10.819500
H -6.051900 0.071000 -10.463700
N -6.014800 -0.437000 -11.133200
C -5.424700 -1.623500 -11.025100
H -5.391500 -2.785000 -9.348300
O -5.298600 -2.380500 -11.993800
H -5.075700 -1.262300 -9.048000
C -4.921600 -1.996700 -9.662100
H -3.970700 -2.184000 -9.709300
