26
Fragment
H -6.776200 -6.047300 -17.543500
H -6.598900 -7.499500 -16.938700
C -6.159200 -6.650800 -17.102200
N -5.995000 -4.760600 -15.551700
N -5.738300 -6.075500 -15.845000
H -5.551200 -3.774300 -13.870700
C -5.514500 -4.590000 -14.337200
H -5.384500 -6.791900 -17.669100
C -5.098900 -6.702400 -14.841600
C -4.941800 -5.758900 -13.817400
N -4.775300 -8.023500 -14.889700
H -4.697200 -8.377400 -15.643300
H -4.530500 -4.306200 -11.844900
C -4.306500 -6.018400 -12.530600
H -4.201000 -8.217600 -14.283000
N -4.187000 -5.007500 -11.644800
N -3.902700 -7.245700 -12.355400
H -3.893700 -5.110600 -10.819500
H -3.344400 -7.052700 -10.463700
N -3.307400 -7.560700 -11.133200
C -2.717300 -8.747100 -11.025100
H -2.684000 -9.908700 -9.348300
O -2.591100 -9.504100 -11.993800
H -2.368300 -8.385900 -9.048000
C -2.214200 -9.120400 -9.662100
H -1.263300 -9.307700 -9.709300
3
Fragment
H -1.665900 -8.400800 -13.540100
H -1.207900 -7.520700 -14.450400
O -0.996500 -8.264700 -14.053700
29
Fragment
H -6.776200 -6.047300 -17.543500
H -6.598900 -7.499500 -16.938700
C -6.159200 -6.650800 -17.102200
N -5.995000 -4.760600 -15.551700
N -5.738300 -6.075500 -15.845000
H -5.551200 -3.774300 -13.870700
C -5.514500 -4.590000 -14.337200
H -5.384500 -6.791900 -17.669100
C -5.098900 -6.702400 -14.841600
C -4.941800 -5.758900 -13.817400
N -4.775300 -8.023500 -14.889700
H -4.697200 -8.377400 -15.643300
H -4.530500 -4.306200 -11.844900
C -4.306500 -6.018400 -12.530600
H -4.201000 -8.217600 -14.283000
N -4.187000 -5.007500 -11.644800
N -3.902700 -7.245700 -12.355400
H -3.893700 -5.110600 -10.819500
H -3.344400 -7.052700 -10.463700
N -3.307400 -7.560700 -11.133200
C -2.717300 -8.747100 -11.025100
H -2.684000 -9.908700 -9.348300
O -2.591100 -9.504100 -11.993800
H -2.368300 -8.385900 -9.048000
C -2.214200 -9.120400 -9.662100
H -1.263300 -9.307700 -9.709300
H -1.665900 -8.400800 -13.540100
H -1.207900 -7.520700 -14.450400
O -0.996500 -8.264700 -14.053700
