14
Fragment
O -1.053200 -28.642900 -4.868900
O -0.675600 -31.289700 -5.231500
N -0.066000 -28.414100 -5.561700
C 0.254900 -30.879400 -5.911300
O 0.345300 -27.266300 -5.741300
C 0.633300 -29.499600 -6.168500
H 0.861700 -32.604700 -6.449600
N 1.089000 -31.781300 -6.533400
C 1.675000 -29.206300 -6.989100
H 1.917500 -28.301300 -7.173800
C 2.141700 -31.512800 -7.368300
N 2.396300 -30.166900 -7.568400
O 2.796300 -32.373000 -7.886100
H 3.006700 -29.969900 -8.086200
3
Fragment
H 2.385000 -35.590700 -7.424700
O 3.015900 -35.298200 -7.916300
H 3.050300 -34.427000 -7.898100
17
Fragment
O -1.053200 -28.642900 -4.868900
O -0.675600 -31.289700 -5.231500
N -0.066000 -28.414100 -5.561700
C 0.254900 -30.879400 -5.911300
O 0.345300 -27.266300 -5.741300
C 0.633300 -29.499600 -6.168500
H 0.861700 -32.604700 -6.449600
N 1.089000 -31.781300 -6.533400
C 1.675000 -29.206300 -6.989100
H 1.917500 -28.301300 -7.173800
C 2.141700 -31.512800 -7.368300
N 2.396300 -30.166900 -7.568400
O 2.796300 -32.373000 -7.886100
H 3.006700 -29.969900 -8.086200
H 2.385000 -35.590700 -7.424700
O 3.015900 -35.298200 -7.916300
H 3.050300 -34.427000 -7.898100
