14
Fragment
O -1.053200 -28.642900 -4.868900
O -0.675600 -31.289700 -5.231500
N -0.066000 -28.414100 -5.561700
C 0.254900 -30.879400 -5.911300
O 0.345300 -27.266300 -5.741300
C 0.633300 -29.499600 -6.168500
H 0.861700 -32.604700 -6.449600
N 1.089000 -31.781300 -6.533400
C 1.675000 -29.206300 -6.989100
H 1.917500 -28.301300 -7.173800
C 2.141700 -31.512800 -7.368300
N 2.396300 -30.166900 -7.568400
O 2.796300 -32.373000 -7.886100
H 3.006700 -29.969900 -8.086200
14
Fragment
H -3.004500 -35.898100 -3.318900
O -2.794100 -33.495000 -3.519100
N -2.394100 -35.701100 -3.836700
C -2.139600 -34.355200 -4.036800
H -1.915300 -37.566700 -4.231300
C -1.672800 -36.661700 -4.416100
N -1.086800 -34.086700 -4.871700
H -0.859500 -33.263300 -4.955500
C -0.631100 -36.368400 -5.236700
O -0.343100 -38.601700 -5.663800
C -0.252700 -34.988600 -5.493900
N 0.068100 -37.453900 -5.843400
O 0.677700 -34.578300 -6.173600
O 1.055300 -37.225100 -6.536300
28
Fragment
O -1.053200 -28.642900 -4.868900
O -0.675600 -31.289700 -5.231500
N -0.066000 -28.414100 -5.561700
C 0.254900 -30.879400 -5.911300
O 0.345300 -27.266300 -5.741300
C 0.633300 -29.499600 -6.168500
H 0.861700 -32.604700 -6.449600
N 1.089000 -31.781300 -6.533400
C 1.675000 -29.206300 -6.989100
H 1.917500 -28.301300 -7.173800
C 2.141700 -31.512800 -7.368300
N 2.396300 -30.166900 -7.568400
O 2.796300 -32.373000 -7.886100
H 3.006700 -29.969900 -8.086200
H -3.004500 -35.898100 -3.318900
O -2.794100 -33.495000 -3.519100
N -2.394100 -35.701100 -3.836700
C -2.139600 -34.355200 -4.036800
H -1.915300 -37.566700 -4.231300
C -1.672800 -36.661700 -4.416100
N -1.086800 -34.086700 -4.871700
H -0.859500 -33.263300 -4.955500
C -0.631100 -36.368400 -5.236700
O -0.343100 -38.601700 -5.663800
C -0.252700 -34.988600 -5.493900
N 0.068100 -37.453900 -5.843400
O 0.677700 -34.578300 -6.173600
O 1.055300 -37.225100 -6.536300
