14
Fragment
O -1.053200 -28.642900 -4.868900
O -0.675600 -31.289700 -5.231500
N -0.066000 -28.414100 -5.561700
C 0.254900 -30.879400 -5.911300
O 0.345300 -27.266300 -5.741300
C 0.633300 -29.499600 -6.168500
H 0.861700 -32.604700 -6.449600
N 1.089000 -31.781300 -6.533400
C 1.675000 -29.206300 -6.989100
H 1.917500 -28.301300 -7.173800
C 2.141700 -31.512800 -7.368300
N 2.396300 -30.166900 -7.568400
O 2.796300 -32.373000 -7.886100
H 3.006700 -29.969900 -8.086200
14
Fragment
O -4.906500 -26.247100 -2.017600
O -4.528800 -23.600300 -2.380300
N -3.919300 -26.475900 -2.710400
C -3.598400 -24.010600 -3.060000
O -3.508000 -27.623700 -2.890100
C -3.220000 -25.390400 -3.317200
H -2.991600 -22.285300 -3.598300
N -2.764300 -23.108700 -3.682100
C -2.178300 -25.683700 -4.137800
H -1.935800 -26.588700 -4.322500
C -1.711600 -23.377200 -4.517000
N -1.457000 -24.723100 -4.717200
O -1.057000 -22.517000 -5.034800
H -0.846600 -24.920100 -5.235000
28
Fragment
O -1.053200 -28.642900 -4.868900
O -0.675600 -31.289700 -5.231500
N -0.066000 -28.414100 -5.561700
C 0.254900 -30.879400 -5.911300
O 0.345300 -27.266300 -5.741300
C 0.633300 -29.499600 -6.168500
H 0.861700 -32.604700 -6.449600
N 1.089000 -31.781300 -6.533400
C 1.675000 -29.206300 -6.989100
H 1.917500 -28.301300 -7.173800
C 2.141700 -31.512800 -7.368300
N 2.396300 -30.166900 -7.568400
O 2.796300 -32.373000 -7.886100
H 3.006700 -29.969900 -8.086200
O -4.906500 -26.247100 -2.017600
O -4.528800 -23.600300 -2.380300
N -3.919300 -26.475900 -2.710400
C -3.598400 -24.010600 -3.060000
O -3.508000 -27.623700 -2.890100
C -3.220000 -25.390400 -3.317200
H -2.991600 -22.285300 -3.598300
N -2.764300 -23.108700 -3.682100
C -2.178300 -25.683700 -4.137800
H -1.935800 -26.588700 -4.322500
C -1.711600 -23.377200 -4.517000
N -1.457000 -24.723100 -4.717200
O -1.057000 -22.517000 -5.034800
H -0.846600 -24.920100 -5.235000
