8
Fragment
H -3.876300 -12.275400 -20.774600
O -3.315800 -12.469600 -20.131100
O -2.723100 -10.316500 -20.612800
C -2.559400 -11.332100 -19.942600
H -1.935800 -12.164700 -18.156300
C -1.577700 -11.509300 -18.822600
H -1.409000 -10.636600 -18.385600
H -0.722700 -11.888900 -19.173000
21
Fragment
H -0.482300 -17.848500 -15.822100
H -0.329800 -13.182300 -16.499900
N 0.029900 -15.854200 -16.087100
C 0.120700 -17.101300 -15.585100
C 0.633800 -12.974700 -16.612000
H 0.816300 -12.021600 -16.398000
H 0.911700 -13.146300 -17.554900
H 1.038500 -19.241100 -14.384800
C 1.053200 -15.190200 -15.496800
N 1.139800 -17.255200 -14.699600
H 1.266500 -18.394800 -13.020300
N 1.385100 -13.832800 -15.686000
C 1.518200 -18.473000 -13.978400
C 1.751200 -16.009300 -14.601200
C 2.494500 -13.287900 -15.018100
H 2.503000 -18.616000 -14.040800
O 2.850700 -12.103200 -15.157000
C 2.875000 -15.551600 -13.818100
N 3.141800 -14.167000 -14.118600
O 3.533000 -16.177200 -12.969300
H 3.842900 -13.786700 -13.663700
29
Fragment
H -3.876300 -12.275400 -20.774600
O -3.315800 -12.469600 -20.131100
O -2.723100 -10.316500 -20.612800
C -2.559400 -11.332100 -19.942600
H -1.935800 -12.164700 -18.156300
C -1.577700 -11.509300 -18.822600
H -1.409000 -10.636600 -18.385600
H -0.722700 -11.888900 -19.173000
H -0.482300 -17.848500 -15.822100
H -0.329800 -13.182300 -16.499900
N 0.029900 -15.854200 -16.087100
C 0.120700 -17.101300 -15.585100
C 0.633800 -12.974700 -16.612000
H 0.816300 -12.021600 -16.398000
H 0.911700 -13.146300 -17.554900
H 1.038500 -19.241100 -14.384800
C 1.053200 -15.190200 -15.496800
N 1.139800 -17.255200 -14.699600
H 1.266500 -18.394800 -13.020300
N 1.385100 -13.832800 -15.686000
C 1.518200 -18.473000 -13.978400
C 1.751200 -16.009300 -14.601200
C 2.494500 -13.287900 -15.018100
H 2.503000 -18.616000 -14.040800
O 2.850700 -12.103200 -15.157000
C 2.875000 -15.551600 -13.818100
N 3.141800 -14.167000 -14.118600
O 3.533000 -16.177200 -12.969300
H 3.842900 -13.786700 -13.663700
