8
Fragment
H -3.876300 -12.275400 -20.774600
O -3.315800 -12.469600 -20.131100
O -2.723100 -10.316500 -20.612800
C -2.559400 -11.332100 -19.942600
H -1.935800 -12.164700 -18.156300
C -1.577700 -11.509300 -18.822600
H -1.409000 -10.636600 -18.385600
H -0.722700 -11.888900 -19.173000
8
Fragment
H 1.342200 -12.275400 -20.774600
O 1.902700 -12.469600 -20.131100
O 2.495400 -10.316500 -20.612800
C 2.659100 -11.332100 -19.942600
H 3.282700 -12.164700 -18.156300
C 3.640800 -11.509300 -18.822600
H 3.809500 -10.636600 -18.385600
H 4.495800 -11.888900 -19.173000
16
Fragment
H -3.876300 -12.275400 -20.774600
O -3.315800 -12.469600 -20.131100
O -2.723100 -10.316500 -20.612800
C -2.559400 -11.332100 -19.942600
H -1.935800 -12.164700 -18.156300
C -1.577700 -11.509300 -18.822600
H -1.409000 -10.636600 -18.385600
H -0.722700 -11.888900 -19.173000
H 1.342200 -12.275400 -20.774600
O 1.902700 -12.469600 -20.131100
O 2.495400 -10.316500 -20.612800
C 2.659100 -11.332100 -19.942600
H 3.282700 -12.164700 -18.156300
C 3.640800 -11.509300 -18.822600
H 3.809500 -10.636600 -18.385600
H 4.495800 -11.888900 -19.173000
