28
Fragment
H -7.871200 -13.119700 -20.857700
H -7.689800 -14.839500 -26.218300
H -7.651500 -12.116200 -23.836400
N -7.593300 -12.876600 -24.328000
H -7.563700 -12.134100 -22.081300
H -7.329200 -12.709000 -25.213600
C -7.189600 -12.829200 -21.500100
C -6.927400 -13.961600 -23.730500
C -6.754200 -14.004300 -22.338100
C -6.729800 -14.921500 -26.037800
H -6.510600 -15.936700 -19.888400
C -6.502800 -15.024600 -24.548500
H -6.417700 -12.468800 -21.016700
H -6.382600 -15.725900 -26.477800
H -6.263700 -14.132400 -26.386000
H -6.181800 -17.696500 -25.310700
C -6.177100 -15.143100 -21.754000
H -6.137400 -14.380900 -19.846000
C -5.933800 -15.241600 -20.268900
C -5.920200 -16.159500 -23.976100
C -5.774100 -16.215000 -22.571000
H -5.572500 -17.510100 -21.187900
C -5.427600 -17.301400 -24.826400
N -5.156400 -17.319600 -21.969800
H -5.150200 -18.105300 -22.476900
H -5.014700 -17.980400 -24.253100
H -4.995200 -15.471300 -20.105600
H -4.765400 -16.969300 -25.467900
28
Fragment
H -7.709500 -20.622100 -17.360000
H -7.281200 -22.063300 -15.820300
C -6.905300 -20.091000 -17.183400
H -6.902700 -19.803900 -16.247600
H -6.899100 -19.303500 -17.767800
H -6.515800 -23.308600 -15.696700
N -6.396600 -22.485800 -15.714400
H -5.829600 -19.003800 -19.213900
C -5.680100 -20.928200 -17.456200
C -5.452400 -22.104600 -16.728200
C -4.888400 -19.276900 -19.221500
C -4.721000 -20.527600 -18.399400
H -4.696500 -24.846500 -16.470100
H -4.607400 -19.451700 -20.144400
H -4.425600 -23.955300 -15.168800
H -4.336500 -18.560500 -18.843100
C -4.311900 -22.879400 -16.913800
C -4.144500 -24.130100 -16.091700
C -3.580500 -21.302400 -18.585000
C -3.352900 -22.478800 -17.857000
H -3.203300 -24.403100 -16.099300
N -2.636300 -20.921200 -19.598800
H -2.517200 -20.098400 -19.616500
H -2.133900 -24.103500 -17.545400
H -2.130200 -23.603100 -19.065600
C -2.127700 -23.316000 -18.129800
H -1.751700 -21.343600 -19.492900
H -1.323400 -22.784900 -17.953200
56
Fragment
H -7.871200 -13.119700 -20.857700
H -7.689800 -14.839500 -26.218300
H -7.651500 -12.116200 -23.836400
N -7.593300 -12.876600 -24.328000
H -7.563700 -12.134100 -22.081300
H -7.329200 -12.709000 -25.213600
C -7.189600 -12.829200 -21.500100
C -6.927400 -13.961600 -23.730500
C -6.754200 -14.004300 -22.338100
C -6.729800 -14.921500 -26.037800
H -6.510600 -15.936700 -19.888400
C -6.502800 -15.024600 -24.548500
H -6.417700 -12.468800 -21.016700
H -6.382600 -15.725900 -26.477800
H -6.263700 -14.132400 -26.386000
H -6.181800 -17.696500 -25.310700
C -6.177100 -15.143100 -21.754000
H -6.137400 -14.380900 -19.846000
C -5.933800 -15.241600 -20.268900
C -5.920200 -16.159500 -23.976100
C -5.774100 -16.215000 -22.571000
H -5.572500 -17.510100 -21.187900
C -5.427600 -17.301400 -24.826400
N -5.156400 -17.319600 -21.969800
H -5.150200 -18.105300 -22.476900
H -5.014700 -17.980400 -24.253100
H -4.995200 -15.471300 -20.105600
H -4.765400 -16.969300 -25.467900
H -7.709500 -20.622100 -17.360000
H -7.281200 -22.063300 -15.820300
C -6.905300 -20.091000 -17.183400
H -6.902700 -19.803900 -16.247600
H -6.899100 -19.303500 -17.767800
H -6.515800 -23.308600 -15.696700
N -6.396600 -22.485800 -15.714400
H -5.829600 -19.003800 -19.213900
C -5.680100 -20.928200 -17.456200
C -5.452400 -22.104600 -16.728200
C -4.888400 -19.276900 -19.221500
C -4.721000 -20.527600 -18.399400
H -4.696500 -24.846500 -16.470100
H -4.607400 -19.451700 -20.144400
H -4.425600 -23.955300 -15.168800
H -4.336500 -18.560500 -18.843100
C -4.311900 -22.879400 -16.913800
C -4.144500 -24.130100 -16.091700
C -3.580500 -21.302400 -18.585000
C -3.352900 -22.478800 -17.857000
H -3.203300 -24.403100 -16.099300
N -2.636300 -20.921200 -19.598800
H -2.517200 -20.098400 -19.616500
H -2.133900 -24.103500 -17.545400
H -2.130200 -23.603100 -19.065600
C -2.127700 -23.316000 -18.129800
H -1.751700 -21.343600 -19.492900
H -1.323400 -22.784900 -17.953200
