28
Fragment
H -7.871200 -13.119700 -20.857700
H -7.689800 -14.839500 -26.218300
H -7.651500 -12.116200 -23.836400
N -7.593300 -12.876600 -24.328000
H -7.563700 -12.134100 -22.081300
H -7.329200 -12.709000 -25.213600
C -7.189600 -12.829200 -21.500100
C -6.927400 -13.961600 -23.730500
C -6.754200 -14.004300 -22.338100
C -6.729800 -14.921500 -26.037800
H -6.510600 -15.936700 -19.888400
C -6.502800 -15.024600 -24.548500
H -6.417700 -12.468800 -21.016700
H -6.382600 -15.725900 -26.477800
H -6.263700 -14.132400 -26.386000
H -6.181800 -17.696500 -25.310700
C -6.177100 -15.143100 -21.754000
H -6.137400 -14.380900 -19.846000
C -5.933800 -15.241600 -20.268900
C -5.920200 -16.159500 -23.976100
C -5.774100 -16.215000 -22.571000
H -5.572500 -17.510100 -21.187900
C -5.427600 -17.301400 -24.826400
N -5.156400 -17.319600 -21.969800
H -5.150200 -18.105300 -22.476900
H -5.014700 -17.980400 -24.253100
H -4.995200 -15.471300 -20.105600
H -4.765400 -16.969300 -25.467900
28
Fragment
H -15.320400 -11.750900 -17.360000
H -14.892100 -13.192100 -15.820300
C -14.516200 -11.219800 -17.183400
H -14.513600 -10.932700 -16.247600
H -14.510000 -10.432300 -17.767800
H -14.126700 -14.437400 -15.696700
N -14.007600 -13.614600 -15.714400
H -13.440500 -10.132600 -19.213900
C -13.291000 -12.057000 -17.456200
C -13.063300 -13.233400 -16.728200
C -12.499300 -10.405700 -19.221500
C -12.331900 -11.656400 -18.399400
H -12.307400 -15.975300 -16.470100
H -12.218300 -10.580500 -20.144400
H -12.036500 -15.084100 -15.168800
H -11.947400 -9.689300 -18.843100
C -11.922900 -14.008200 -16.913800
C -11.755400 -15.258900 -16.091700
C -11.191400 -12.431200 -18.585000
C -10.963800 -13.607600 -17.857000
H -10.814200 -15.531900 -16.099300
N -10.247200 -12.050000 -19.598800
H -10.128100 -11.227200 -19.616500
H -9.744800 -15.232300 -17.545400
H -9.741100 -14.731900 -19.065600
C -9.738600 -14.444800 -18.129800
H -9.362700 -12.472400 -19.492900
H -8.934400 -13.913700 -17.953200
56
Fragment
H -7.871200 -13.119700 -20.857700
H -7.689800 -14.839500 -26.218300
H -7.651500 -12.116200 -23.836400
N -7.593300 -12.876600 -24.328000
H -7.563700 -12.134100 -22.081300
H -7.329200 -12.709000 -25.213600
C -7.189600 -12.829200 -21.500100
C -6.927400 -13.961600 -23.730500
C -6.754200 -14.004300 -22.338100
C -6.729800 -14.921500 -26.037800
H -6.510600 -15.936700 -19.888400
C -6.502800 -15.024600 -24.548500
H -6.417700 -12.468800 -21.016700
H -6.382600 -15.725900 -26.477800
H -6.263700 -14.132400 -26.386000
H -6.181800 -17.696500 -25.310700
C -6.177100 -15.143100 -21.754000
H -6.137400 -14.380900 -19.846000
C -5.933800 -15.241600 -20.268900
C -5.920200 -16.159500 -23.976100
C -5.774100 -16.215000 -22.571000
H -5.572500 -17.510100 -21.187900
C -5.427600 -17.301400 -24.826400
N -5.156400 -17.319600 -21.969800
H -5.150200 -18.105300 -22.476900
H -5.014700 -17.980400 -24.253100
H -4.995200 -15.471300 -20.105600
H -4.765400 -16.969300 -25.467900
H -15.320400 -11.750900 -17.360000
H -14.892100 -13.192100 -15.820300
C -14.516200 -11.219800 -17.183400
H -14.513600 -10.932700 -16.247600
H -14.510000 -10.432300 -17.767800
H -14.126700 -14.437400 -15.696700
N -14.007600 -13.614600 -15.714400
H -13.440500 -10.132600 -19.213900
C -13.291000 -12.057000 -17.456200
C -13.063300 -13.233400 -16.728200
C -12.499300 -10.405700 -19.221500
C -12.331900 -11.656400 -18.399400
H -12.307400 -15.975300 -16.470100
H -12.218300 -10.580500 -20.144400
H -12.036500 -15.084100 -15.168800
H -11.947400 -9.689300 -18.843100
C -11.922900 -14.008200 -16.913800
C -11.755400 -15.258900 -16.091700
C -11.191400 -12.431200 -18.585000
C -10.963800 -13.607600 -17.857000
H -10.814200 -15.531900 -16.099300
N -10.247200 -12.050000 -19.598800
H -10.128100 -11.227200 -19.616500
H -9.744800 -15.232300 -17.545400
H -9.741100 -14.731900 -19.065600
C -9.738600 -14.444800 -18.129800
H -9.362700 -12.472400 -19.492900
H -8.934400 -13.913700 -17.953200
