28
Fragment
H -7.871200 -13.119700 -20.857700
H -7.689800 -14.839500 -26.218300
H -7.651500 -12.116200 -23.836400
N -7.593300 -12.876600 -24.328000
H -7.563700 -12.134100 -22.081300
H -7.329200 -12.709000 -25.213600
C -7.189600 -12.829200 -21.500100
C -6.927400 -13.961600 -23.730500
C -6.754200 -14.004300 -22.338100
C -6.729800 -14.921500 -26.037800
H -6.510600 -15.936700 -19.888400
C -6.502800 -15.024600 -24.548500
H -6.417700 -12.468800 -21.016700
H -6.382600 -15.725900 -26.477800
H -6.263700 -14.132400 -26.386000
H -6.181800 -17.696500 -25.310700
C -6.177100 -15.143100 -21.754000
H -6.137400 -14.380900 -19.846000
C -5.933800 -15.241600 -20.268900
C -5.920200 -16.159500 -23.976100
C -5.774100 -16.215000 -22.571000
H -5.572500 -17.510100 -21.187900
C -5.427600 -17.301400 -24.826400
N -5.156400 -17.319600 -21.969800
H -5.150200 -18.105300 -22.476900
H -5.014700 -17.980400 -24.253100
H -4.995200 -15.471300 -20.105600
H -4.765400 -16.969300 -25.467900
18
Fragment
O -4.153700 -19.949000 -22.993800
H -3.883000 -20.852300 -25.231300
C -3.622800 -20.997800 -23.282900
N -3.512200 -21.436300 -24.596200
H -3.135000 -21.512800 -21.452800
N -3.076900 -21.838600 -22.333800
C -2.940300 -22.597100 -25.041500
O -2.877100 -22.870900 -26.239100
C -2.575400 -23.061200 -22.626100
C -2.453200 -23.499600 -23.971800
N -2.194400 -23.836500 -21.602300
N -1.939900 -24.675400 -24.287500
C -1.707800 -25.033200 -21.934100
C -1.555600 -25.453600 -23.258000
C -1.344400 -25.921600 -20.862000
N -1.048700 -26.673100 -20.035500
C -1.010600 -26.749600 -23.524600
N -0.572400 -27.808700 -23.630200
46
Fragment
H -7.871200 -13.119700 -20.857700
H -7.689800 -14.839500 -26.218300
H -7.651500 -12.116200 -23.836400
N -7.593300 -12.876600 -24.328000
H -7.563700 -12.134100 -22.081300
H -7.329200 -12.709000 -25.213600
C -7.189600 -12.829200 -21.500100
C -6.927400 -13.961600 -23.730500
C -6.754200 -14.004300 -22.338100
C -6.729800 -14.921500 -26.037800
H -6.510600 -15.936700 -19.888400
C -6.502800 -15.024600 -24.548500
H -6.417700 -12.468800 -21.016700
H -6.382600 -15.725900 -26.477800
H -6.263700 -14.132400 -26.386000
H -6.181800 -17.696500 -25.310700
C -6.177100 -15.143100 -21.754000
H -6.137400 -14.380900 -19.846000
C -5.933800 -15.241600 -20.268900
C -5.920200 -16.159500 -23.976100
C -5.774100 -16.215000 -22.571000
H -5.572500 -17.510100 -21.187900
C -5.427600 -17.301400 -24.826400
N -5.156400 -17.319600 -21.969800
H -5.150200 -18.105300 -22.476900
H -5.014700 -17.980400 -24.253100
H -4.995200 -15.471300 -20.105600
H -4.765400 -16.969300 -25.467900
O -4.153700 -19.949000 -22.993800
H -3.883000 -20.852300 -25.231300
C -3.622800 -20.997800 -23.282900
N -3.512200 -21.436300 -24.596200
H -3.135000 -21.512800 -21.452800
N -3.076900 -21.838600 -22.333800
C -2.940300 -22.597100 -25.041500
O -2.877100 -22.870900 -26.239100
C -2.575400 -23.061200 -22.626100
C -2.453200 -23.499600 -23.971800
N -2.194400 -23.836500 -21.602300
N -1.939900 -24.675400 -24.287500
C -1.707800 -25.033200 -21.934100
C -1.555600 -25.453600 -23.258000
C -1.344400 -25.921600 -20.862000
N -1.048700 -26.673100 -20.035500
C -1.010600 -26.749600 -23.524600
N -0.572400 -27.808700 -23.630200
