18
Fragment
O -8.841300 -34.670600 -31.075600
H -8.007800 -35.494400 -28.965000
C -7.850500 -34.306700 -30.476700
N -7.477000 -34.869000 -29.284400
N -7.259000 -32.557800 -32.046900
N -7.029800 -30.299200 -34.559400
C -6.950400 -33.220800 -30.941700
C -6.737200 -30.865300 -33.611100
C -6.415200 -31.590600 -32.402500
C -6.369300 -34.567100 -28.533500
O -6.153300 -35.138600 -27.469900
C -5.798600 -32.915800 -30.186000
N -5.524800 -33.619000 -29.042900
C -5.265400 -31.299900 -31.651900
N -4.947400 -31.955900 -30.541000
H -4.772400 -33.454800 -28.617400
C -4.379600 -30.227500 -32.072600
N -3.728600 -29.351100 -32.419000
18
Fragment
N -11.073600 -43.318800 -27.512600
C -10.422700 -42.442400 -27.859000
H -10.029900 -39.215100 -31.314300
N -9.854900 -40.714000 -29.390700
C -9.536800 -41.370000 -28.279800
N -9.277500 -39.050900 -30.888800
C -9.003700 -39.754100 -29.745700
O -8.649000 -37.531300 -32.461800
C -8.433000 -38.102800 -31.398200
C -8.387100 -41.079300 -27.529200
C -8.065100 -41.804600 -26.320600
C -7.851900 -39.449100 -28.990000
N -7.772500 -42.370700 -25.372300
N -7.543200 -40.112100 -27.884800
N -7.325300 -37.800900 -30.647300
C -6.951700 -38.363200 -29.455000
H -6.794400 -37.175500 -30.966700
O -5.961000 -37.999300 -28.856100
36
Fragment
O -8.841300 -34.670600 -31.075600
H -8.007800 -35.494400 -28.965000
C -7.850500 -34.306700 -30.476700
N -7.477000 -34.869000 -29.284400
N -7.259000 -32.557800 -32.046900
N -7.029800 -30.299200 -34.559400
C -6.950400 -33.220800 -30.941700
C -6.737200 -30.865300 -33.611100
C -6.415200 -31.590600 -32.402500
C -6.369300 -34.567100 -28.533500
O -6.153300 -35.138600 -27.469900
C -5.798600 -32.915800 -30.186000
N -5.524800 -33.619000 -29.042900
C -5.265400 -31.299900 -31.651900
N -4.947400 -31.955900 -30.541000
H -4.772400 -33.454800 -28.617400
C -4.379600 -30.227500 -32.072600
N -3.728600 -29.351100 -32.419000
N -11.073600 -43.318800 -27.512600
C -10.422700 -42.442400 -27.859000
H -10.029900 -39.215100 -31.314300
N -9.854900 -40.714000 -29.390700
C -9.536800 -41.370000 -28.279800
N -9.277500 -39.050900 -30.888800
C -9.003700 -39.754100 -29.745700
O -8.649000 -37.531300 -32.461800
C -8.433000 -38.102800 -31.398200
C -8.387100 -41.079300 -27.529200
C -8.065100 -41.804600 -26.320600
C -7.851900 -39.449100 -28.990000
N -7.772500 -42.370700 -25.372300
N -7.543200 -40.112100 -27.884800
N -7.325300 -37.800900 -30.647300
C -6.951700 -38.363200 -29.455000
H -6.794400 -37.175500 -30.966700
O -5.961000 -37.999300 -28.856100
