18
Fragment
O -8.841300 -34.670600 -31.075600
H -8.007800 -35.494400 -28.965000
C -7.850500 -34.306700 -30.476700
N -7.477000 -34.869000 -29.284400
N -7.259000 -32.557800 -32.046900
N -7.029800 -30.299200 -34.559400
C -6.950400 -33.220800 -30.941700
C -6.737200 -30.865300 -33.611100
C -6.415200 -31.590600 -32.402500
C -6.369300 -34.567100 -28.533500
O -6.153300 -35.138600 -27.469900
C -5.798600 -32.915800 -30.186000
N -5.524800 -33.619000 -29.042900
C -5.265400 -31.299900 -31.651900
N -4.947400 -31.955900 -30.541000
H -4.772400 -33.454800 -28.617400
C -4.379600 -30.227500 -32.072600
N -3.728600 -29.351100 -32.419000
18
Fragment
N -11.273600 -31.496600 -26.839400
O -10.650200 -26.765800 -23.563700
C -10.573700 -30.590200 -26.769900
N -10.058600 -28.645000 -25.542700
C -9.716900 -29.434900 -26.571700
C -9.638900 -26.670600 -24.223400
C -9.269400 -27.609500 -25.315500
H -8.883500 -25.088100 -23.399300
N -8.723900 -25.649100 -24.057000
C -8.591700 -29.174100 -27.354600
C -8.210200 -29.994000 -28.487300
C -8.126300 -27.354200 -26.097900
N -7.852700 -30.591100 -29.401500
N -7.782400 -28.134200 -27.126700
C -7.587600 -25.406900 -24.804100
N -7.339100 -26.278400 -25.826400
O -6.844400 -24.470100 -24.554600
H -6.635100 -26.136900 -26.334000
36
Fragment
O -8.841300 -34.670600 -31.075600
H -8.007800 -35.494400 -28.965000
C -7.850500 -34.306700 -30.476700
N -7.477000 -34.869000 -29.284400
N -7.259000 -32.557800 -32.046900
N -7.029800 -30.299200 -34.559400
C -6.950400 -33.220800 -30.941700
C -6.737200 -30.865300 -33.611100
C -6.415200 -31.590600 -32.402500
C -6.369300 -34.567100 -28.533500
O -6.153300 -35.138600 -27.469900
C -5.798600 -32.915800 -30.186000
N -5.524800 -33.619000 -29.042900
C -5.265400 -31.299900 -31.651900
N -4.947400 -31.955900 -30.541000
H -4.772400 -33.454800 -28.617400
C -4.379600 -30.227500 -32.072600
N -3.728600 -29.351100 -32.419000
N -11.273600 -31.496600 -26.839400
O -10.650200 -26.765800 -23.563700
C -10.573700 -30.590200 -26.769900
N -10.058600 -28.645000 -25.542700
C -9.716900 -29.434900 -26.571700
C -9.638900 -26.670600 -24.223400
C -9.269400 -27.609500 -25.315500
H -8.883500 -25.088100 -23.399300
N -8.723900 -25.649100 -24.057000
C -8.591700 -29.174100 -27.354600
C -8.210200 -29.994000 -28.487300
C -8.126300 -27.354200 -26.097900
N -7.852700 -30.591100 -29.401500
N -7.782400 -28.134200 -27.126700
C -7.587600 -25.406900 -24.804100
N -7.339100 -26.278400 -25.826400
O -6.844400 -24.470100 -24.554600
H -6.635100 -26.136900 -26.334000
