18
Fragment
O -8.841300 -34.670600 -31.075600
H -8.007800 -35.494400 -28.965000
C -7.850500 -34.306700 -30.476700
N -7.477000 -34.869000 -29.284400
N -7.259000 -32.557800 -32.046900
N -7.029800 -30.299200 -34.559400
C -6.950400 -33.220800 -30.941700
C -6.737200 -30.865300 -33.611100
C -6.415200 -31.590600 -32.402500
C -6.369300 -34.567100 -28.533500
O -6.153300 -35.138600 -27.469900
C -5.798600 -32.915800 -30.186000
N -5.524800 -33.619000 -29.042900
C -5.265400 -31.299900 -31.651900
N -4.947400 -31.955900 -30.541000
H -4.772400 -33.454800 -28.617400
C -4.379600 -30.227500 -32.072600
N -3.728600 -29.351100 -32.419000
18
Fragment
H -8.499700 -38.248600 -23.609100
O -8.290400 -36.581800 -25.388500
N -7.795800 -38.390100 -24.116700
C -7.547300 -37.518500 -25.138900
N -7.352500 -40.245800 -22.816400
N -7.282100 -42.702800 -20.541600
C -7.008600 -39.465800 -23.845200
C -6.924700 -42.105700 -21.455700
C -6.543200 -41.285700 -22.588500
N -6.411000 -37.760700 -25.886100
H -6.251300 -37.199700 -26.543700
C -5.865500 -39.721100 -24.627500
C -5.496000 -38.782200 -25.719700
C -5.418000 -41.546600 -23.371400
N -5.076300 -40.756700 -24.400400
C -4.561100 -42.701800 -23.173200
O -4.484600 -38.877400 -26.379300
N -3.861300 -43.608200 -23.103700
36
Fragment
O -8.841300 -34.670600 -31.075600
H -8.007800 -35.494400 -28.965000
C -7.850500 -34.306700 -30.476700
N -7.477000 -34.869000 -29.284400
N -7.259000 -32.557800 -32.046900
N -7.029800 -30.299200 -34.559400
C -6.950400 -33.220800 -30.941700
C -6.737200 -30.865300 -33.611100
C -6.415200 -31.590600 -32.402500
C -6.369300 -34.567100 -28.533500
O -6.153300 -35.138600 -27.469900
C -5.798600 -32.915800 -30.186000
N -5.524800 -33.619000 -29.042900
C -5.265400 -31.299900 -31.651900
N -4.947400 -31.955900 -30.541000
H -4.772400 -33.454800 -28.617400
C -4.379600 -30.227500 -32.072600
N -3.728600 -29.351100 -32.419000
H -8.499700 -38.248600 -23.609100
O -8.290400 -36.581800 -25.388500
N -7.795800 -38.390100 -24.116700
C -7.547300 -37.518500 -25.138900
N -7.352500 -40.245800 -22.816400
N -7.282100 -42.702800 -20.541600
C -7.008600 -39.465800 -23.845200
C -6.924700 -42.105700 -21.455700
C -6.543200 -41.285700 -22.588500
N -6.411000 -37.760700 -25.886100
H -6.251300 -37.199700 -26.543700
C -5.865500 -39.721100 -24.627500
C -5.496000 -38.782200 -25.719700
C -5.418000 -41.546600 -23.371400
N -5.076300 -40.756700 -24.400400
C -4.561100 -42.701800 -23.173200
O -4.484600 -38.877400 -26.379300
N -3.861300 -43.608200 -23.103700
