34
Fragment
H -19.038200 -43.841300 -10.156200
N -18.597800 -43.851300 -10.925500
H -18.405300 -44.654900 -11.331800
N -17.937800 -41.671500 -10.545300
H -17.887900 -39.457900 -9.486600
C -17.813400 -42.813000 -11.255100
N -17.294100 -39.512900 -10.109300
C -17.134500 -40.608600 -10.876400
C -16.892300 -42.859700 -12.299000
H -16.773700 -38.801800 -10.334800
N -16.552900 -43.865000 -13.200800
N -16.224600 -40.550500 -11.854800
C -16.154700 -41.710300 -12.537100
C -15.633300 -43.301900 -13.956000
N -15.345500 -41.999600 -13.605600
H -15.207600 -43.751600 -14.676100
H -14.600700 -40.184000 -14.094700
H -14.394900 -41.282300 -15.240400
C -14.361800 -41.129600 -14.262600
H -13.406800 -41.697400 -11.797200
H -13.044800 -40.172400 -12.116900
C -12.940500 -41.381700 -13.765600
C -12.787100 -41.110800 -12.299800
H -12.696500 -42.323700 -13.948100
H -12.314500 -40.803400 -14.269000
N -11.418700 -41.334200 -11.814700
H -11.356500 -43.361600 -11.384700
C -10.896500 -42.530100 -11.398000
H -10.543200 -39.455300 -11.913200
C -10.450100 -40.373300 -11.686700
C -9.606400 -42.325600 -11.005100
C -9.332400 -40.959900 -11.179300
H -9.006300 -42.983700 -10.674800
H -8.512700 -40.523400 -10.979500
34
Fragment
H -23.433300 -36.966600 -11.341800
H -22.939600 -34.506300 -11.646500
C -22.613500 -36.530100 -11.142100
C -22.339500 -35.164400 -11.316200
C -21.495900 -37.116700 -10.634600
H -21.402700 -38.034700 -10.408100
C -21.049400 -34.959900 -10.923300
H -20.589400 -34.128400 -10.936600
N -20.527300 -36.155800 -10.506600
H -19.631500 -36.686600 -8.052300
H -19.249400 -35.166300 -8.373200
C -19.158900 -36.379200 -10.021500
C -19.005500 -36.108300 -8.555800
H -18.901100 -37.317600 -10.204400
H -18.539100 -35.792600 -10.524100
C -17.584200 -36.360400 -8.058700
H -17.551000 -36.207700 -7.080900
H -17.345200 -37.306000 -8.226600
H -16.738400 -33.738400 -7.645200
N -16.600400 -35.490400 -8.715700
C -16.312600 -34.188100 -8.365300
C -15.791300 -35.779700 -9.784200
N -15.721400 -36.939500 -10.466500
N -15.393000 -33.625000 -9.120500
H -15.172200 -38.688200 -11.986500
C -15.053700 -34.630300 -10.022300
C -14.811500 -36.881400 -11.444900
N -14.651900 -37.977100 -12.212000
C -14.132600 -34.677000 -11.066200
H -14.058000 -38.032100 -12.834800
N -14.008200 -35.818500 -11.776000
H -13.540600 -32.835100 -10.989500
N -13.348100 -33.638700 -11.395800
H -12.907800 -33.648700 -12.165100
68
Fragment
H -19.038200 -43.841300 -10.156200
N -18.597800 -43.851300 -10.925500
H -18.405300 -44.654900 -11.331800
N -17.937800 -41.671500 -10.545300
H -17.887900 -39.457900 -9.486600
C -17.813400 -42.813000 -11.255100
N -17.294100 -39.512900 -10.109300
C -17.134500 -40.608600 -10.876400
C -16.892300 -42.859700 -12.299000
H -16.773700 -38.801800 -10.334800
N -16.552900 -43.865000 -13.200800
N -16.224600 -40.550500 -11.854800
C -16.154700 -41.710300 -12.537100
C -15.633300 -43.301900 -13.956000
N -15.345500 -41.999600 -13.605600
H -15.207600 -43.751600 -14.676100
H -14.600700 -40.184000 -14.094700
H -14.394900 -41.282300 -15.240400
C -14.361800 -41.129600 -14.262600
H -13.406800 -41.697400 -11.797200
H -13.044800 -40.172400 -12.116900
C -12.940500 -41.381700 -13.765600
C -12.787100 -41.110800 -12.299800
H -12.696500 -42.323700 -13.948100
H -12.314500 -40.803400 -14.269000
N -11.418700 -41.334200 -11.814700
H -11.356500 -43.361600 -11.384700
C -10.896500 -42.530100 -11.398000
H -10.543200 -39.455300 -11.913200
C -10.450100 -40.373300 -11.686700
C -9.606400 -42.325600 -11.005100
C -9.332400 -40.959900 -11.179300
H -9.006300 -42.983700 -10.674800
H -8.512700 -40.523400 -10.979500
H -23.433300 -36.966600 -11.341800
H -22.939600 -34.506300 -11.646500
C -22.613500 -36.530100 -11.142100
C -22.339500 -35.164400 -11.316200
C -21.495900 -37.116700 -10.634600
H -21.402700 -38.034700 -10.408100
C -21.049400 -34.959900 -10.923300
H -20.589400 -34.128400 -10.936600
N -20.527300 -36.155800 -10.506600
H -19.631500 -36.686600 -8.052300
H -19.249400 -35.166300 -8.373200
C -19.158900 -36.379200 -10.021500
C -19.005500 -36.108300 -8.555800
H -18.901100 -37.317600 -10.204400
H -18.539100 -35.792600 -10.524100
C -17.584200 -36.360400 -8.058700
H -17.551000 -36.207700 -7.080900
H -17.345200 -37.306000 -8.226600
H -16.738400 -33.738400 -7.645200
N -16.600400 -35.490400 -8.715700
C -16.312600 -34.188100 -8.365300
C -15.791300 -35.779700 -9.784200
N -15.721400 -36.939500 -10.466500
N -15.393000 -33.625000 -9.120500
H -15.172200 -38.688200 -11.986500
C -15.053700 -34.630300 -10.022300
C -14.811500 -36.881400 -11.444900
N -14.651900 -37.977100 -12.212000
C -14.132600 -34.677000 -11.066200
H -14.058000 -38.032100 -12.834800
N -14.008200 -35.818500 -11.776000
H -13.540600 -32.835100 -10.989500
N -13.348100 -33.638700 -11.395800
H -12.907800 -33.648700 -12.165100
