34
Fragment
H -19.038200 -43.841300 -10.156200
N -18.597800 -43.851300 -10.925500
H -18.405300 -44.654900 -11.331800
N -17.937800 -41.671500 -10.545300
H -17.887900 -39.457900 -9.486600
C -17.813400 -42.813000 -11.255100
N -17.294100 -39.512900 -10.109300
C -17.134500 -40.608600 -10.876400
C -16.892300 -42.859700 -12.299000
H -16.773700 -38.801800 -10.334800
N -16.552900 -43.865000 -13.200800
N -16.224600 -40.550500 -11.854800
C -16.154700 -41.710300 -12.537100
C -15.633300 -43.301900 -13.956000
N -15.345500 -41.999600 -13.605600
H -15.207600 -43.751600 -14.676100
H -14.600700 -40.184000 -14.094700
H -14.394900 -41.282300 -15.240400
C -14.361800 -41.129600 -14.262600
H -13.406800 -41.697400 -11.797200
H -13.044800 -40.172400 -12.116900
C -12.940500 -41.381700 -13.765600
C -12.787100 -41.110800 -12.299800
H -12.696500 -42.323700 -13.948100
H -12.314500 -40.803400 -14.269000
N -11.418700 -41.334200 -11.814700
H -11.356500 -43.361600 -11.384700
C -10.896500 -42.530100 -11.398000
H -10.543200 -39.455300 -11.913200
C -10.450100 -40.373300 -11.686700
C -9.606400 -42.325600 -11.005100
C -9.332400 -40.959900 -11.179300
H -9.006300 -42.983700 -10.674800
H -8.512700 -40.523400 -10.979500
34
Fragment
H -21.181500 -43.841300 -2.715800
N -20.741200 -43.851300 -3.485100
H -20.548700 -44.654900 -3.891300
N -20.081100 -41.671500 -3.104900
H -20.031300 -39.457900 -2.046100
C -19.956700 -42.813000 -3.814700
N -19.437400 -39.512900 -2.668900
C -19.277800 -40.608600 -3.436000
C -19.035600 -42.859700 -4.858600
H -18.917100 -38.801800 -2.894300
N -18.696300 -43.865000 -5.760400
N -18.367900 -40.550500 -4.414400
C -18.298000 -41.710300 -5.096700
C -17.776700 -43.301900 -6.515600
N -17.488900 -41.999600 -6.165100
H -17.350900 -43.751600 -7.235700
H -16.744100 -40.184000 -6.654300
H -16.538300 -41.282300 -7.800000
C -16.505100 -41.129600 -6.822100
H -15.550200 -41.697400 -4.356700
H -15.188200 -40.172400 -4.676500
C -15.083800 -41.381700 -6.325100
C -14.930400 -41.110800 -4.859300
H -14.839900 -42.323700 -6.507600
H -14.457800 -40.803400 -6.828600
N -13.562000 -41.334200 -4.374200
H -13.499900 -43.361600 -3.944200
C -13.039900 -42.530100 -3.957600
H -12.686500 -39.455300 -4.472700
C -12.593400 -40.373300 -4.246300
C -11.749800 -42.325600 -3.564700
C -11.475800 -40.959900 -3.738800
H -11.149700 -42.983700 -3.234400
H -10.656000 -40.523400 -3.539000
68
Fragment
H -19.038200 -43.841300 -10.156200
N -18.597800 -43.851300 -10.925500
H -18.405300 -44.654900 -11.331800
N -17.937800 -41.671500 -10.545300
H -17.887900 -39.457900 -9.486600
C -17.813400 -42.813000 -11.255100
N -17.294100 -39.512900 -10.109300
C -17.134500 -40.608600 -10.876400
C -16.892300 -42.859700 -12.299000
H -16.773700 -38.801800 -10.334800
N -16.552900 -43.865000 -13.200800
N -16.224600 -40.550500 -11.854800
C -16.154700 -41.710300 -12.537100
C -15.633300 -43.301900 -13.956000
N -15.345500 -41.999600 -13.605600
H -15.207600 -43.751600 -14.676100
H -14.600700 -40.184000 -14.094700
H -14.394900 -41.282300 -15.240400
C -14.361800 -41.129600 -14.262600
H -13.406800 -41.697400 -11.797200
H -13.044800 -40.172400 -12.116900
C -12.940500 -41.381700 -13.765600
C -12.787100 -41.110800 -12.299800
H -12.696500 -42.323700 -13.948100
H -12.314500 -40.803400 -14.269000
N -11.418700 -41.334200 -11.814700
H -11.356500 -43.361600 -11.384700
C -10.896500 -42.530100 -11.398000
H -10.543200 -39.455300 -11.913200
C -10.450100 -40.373300 -11.686700
C -9.606400 -42.325600 -11.005100
C -9.332400 -40.959900 -11.179300
H -9.006300 -42.983700 -10.674800
H -8.512700 -40.523400 -10.979500
H -21.181500 -43.841300 -2.715800
N -20.741200 -43.851300 -3.485100
H -20.548700 -44.654900 -3.891300
N -20.081100 -41.671500 -3.104900
H -20.031300 -39.457900 -2.046100
C -19.956700 -42.813000 -3.814700
N -19.437400 -39.512900 -2.668900
C -19.277800 -40.608600 -3.436000
C -19.035600 -42.859700 -4.858600
H -18.917100 -38.801800 -2.894300
N -18.696300 -43.865000 -5.760400
N -18.367900 -40.550500 -4.414400
C -18.298000 -41.710300 -5.096700
C -17.776700 -43.301900 -6.515600
N -17.488900 -41.999600 -6.165100
H -17.350900 -43.751600 -7.235700
H -16.744100 -40.184000 -6.654300
H -16.538300 -41.282300 -7.800000
C -16.505100 -41.129600 -6.822100
H -15.550200 -41.697400 -4.356700
H -15.188200 -40.172400 -4.676500
C -15.083800 -41.381700 -6.325100
C -14.930400 -41.110800 -4.859300
H -14.839900 -42.323700 -6.507600
H -14.457800 -40.803400 -6.828600
N -13.562000 -41.334200 -4.374200
H -13.499900 -43.361600 -3.944200
C -13.039900 -42.530100 -3.957600
H -12.686500 -39.455300 -4.472700
C -12.593400 -40.373300 -4.246300
C -11.749800 -42.325600 -3.564700
C -11.475800 -40.959900 -3.738800
H -11.149700 -42.983700 -3.234400
H -10.656000 -40.523400 -3.539000
