34
Fragment
H -19.038200 -43.841300 -10.156200
N -18.597800 -43.851300 -10.925500
H -18.405300 -44.654900 -11.331800
N -17.937800 -41.671500 -10.545300
H -17.887900 -39.457900 -9.486600
C -17.813400 -42.813000 -11.255100
N -17.294100 -39.512900 -10.109300
C -17.134500 -40.608600 -10.876400
C -16.892300 -42.859700 -12.299000
H -16.773700 -38.801800 -10.334800
N -16.552900 -43.865000 -13.200800
N -16.224600 -40.550500 -11.854800
C -16.154700 -41.710300 -12.537100
C -15.633300 -43.301900 -13.956000
N -15.345500 -41.999600 -13.605600
H -15.207600 -43.751600 -14.676100
H -14.600700 -40.184000 -14.094700
H -14.394900 -41.282300 -15.240400
C -14.361800 -41.129600 -14.262600
H -13.406800 -41.697400 -11.797200
H -13.044800 -40.172400 -12.116900
C -12.940500 -41.381700 -13.765600
C -12.787100 -41.110800 -12.299800
H -12.696500 -42.323700 -13.948100
H -12.314500 -40.803400 -14.269000
N -11.418700 -41.334200 -11.814700
H -11.356500 -43.361600 -11.384700
C -10.896500 -42.530100 -11.398000
H -10.543200 -39.455300 -11.913200
C -10.450100 -40.373300 -11.686700
C -9.606400 -42.325600 -11.005100
C -9.332400 -40.959900 -11.179300
H -9.006300 -42.983700 -10.674800
H -8.512700 -40.523400 -10.979500
34
Fragment
H -17.966500 -46.563700 -13.876400
N -17.526100 -46.553700 -14.645800
H -17.333600 -45.750100 -15.052000
N -16.866100 -48.733500 -14.265500
H -16.816300 -50.947100 -13.206800
C -16.741700 -47.592000 -14.975400
N -16.222400 -50.892100 -13.829500
C -16.062800 -49.796400 -14.596600
C -15.820600 -47.545300 -16.019300
H -15.702100 -51.603200 -14.055000
N -15.481200 -46.540000 -16.921000
N -15.152900 -49.854500 -15.575100
C -15.083000 -48.694700 -16.257400
C -14.561700 -47.103100 -17.676200
N -14.273900 -48.405400 -17.325800
H -14.135900 -46.653400 -18.396300
H -13.529100 -50.221000 -17.814900
H -13.323200 -49.122700 -18.960600
C -13.290100 -49.275400 -17.982800
H -12.335200 -48.707600 -15.517400
H -11.973200 -50.232600 -15.837100
C -11.868800 -49.023300 -17.485800
C -11.715400 -49.294200 -16.020000
H -11.624900 -48.081300 -17.668300
H -11.242800 -49.601600 -17.989300
N -10.347000 -49.070800 -15.534900
H -10.284900 -47.043400 -15.104900
C -9.824900 -47.874900 -15.118200
H -9.471500 -50.949700 -15.633400
C -9.378400 -50.031700 -15.406900
C -8.534700 -48.079400 -14.725400
C -8.260700 -49.445100 -14.899500
H -7.934700 -47.421300 -14.395000
H -7.441000 -49.881600 -14.699700
68
Fragment
H -19.038200 -43.841300 -10.156200
N -18.597800 -43.851300 -10.925500
H -18.405300 -44.654900 -11.331800
N -17.937800 -41.671500 -10.545300
H -17.887900 -39.457900 -9.486600
C -17.813400 -42.813000 -11.255100
N -17.294100 -39.512900 -10.109300
C -17.134500 -40.608600 -10.876400
C -16.892300 -42.859700 -12.299000
H -16.773700 -38.801800 -10.334800
N -16.552900 -43.865000 -13.200800
N -16.224600 -40.550500 -11.854800
C -16.154700 -41.710300 -12.537100
C -15.633300 -43.301900 -13.956000
N -15.345500 -41.999600 -13.605600
H -15.207600 -43.751600 -14.676100
H -14.600700 -40.184000 -14.094700
H -14.394900 -41.282300 -15.240400
C -14.361800 -41.129600 -14.262600
H -13.406800 -41.697400 -11.797200
H -13.044800 -40.172400 -12.116900
C -12.940500 -41.381700 -13.765600
C -12.787100 -41.110800 -12.299800
H -12.696500 -42.323700 -13.948100
H -12.314500 -40.803400 -14.269000
N -11.418700 -41.334200 -11.814700
H -11.356500 -43.361600 -11.384700
C -10.896500 -42.530100 -11.398000
H -10.543200 -39.455300 -11.913200
C -10.450100 -40.373300 -11.686700
C -9.606400 -42.325600 -11.005100
C -9.332400 -40.959900 -11.179300
H -9.006300 -42.983700 -10.674800
H -8.512700 -40.523400 -10.979500
H -17.966500 -46.563700 -13.876400
N -17.526100 -46.553700 -14.645800
H -17.333600 -45.750100 -15.052000
N -16.866100 -48.733500 -14.265500
H -16.816300 -50.947100 -13.206800
C -16.741700 -47.592000 -14.975400
N -16.222400 -50.892100 -13.829500
C -16.062800 -49.796400 -14.596600
C -15.820600 -47.545300 -16.019300
H -15.702100 -51.603200 -14.055000
N -15.481200 -46.540000 -16.921000
N -15.152900 -49.854500 -15.575100
C -15.083000 -48.694700 -16.257400
C -14.561700 -47.103100 -17.676200
N -14.273900 -48.405400 -17.325800
H -14.135900 -46.653400 -18.396300
H -13.529100 -50.221000 -17.814900
H -13.323200 -49.122700 -18.960600
C -13.290100 -49.275400 -17.982800
H -12.335200 -48.707600 -15.517400
H -11.973200 -50.232600 -15.837100
C -11.868800 -49.023300 -17.485800
C -11.715400 -49.294200 -16.020000
H -11.624900 -48.081300 -17.668300
H -11.242800 -49.601600 -17.989300
N -10.347000 -49.070800 -15.534900
H -10.284900 -47.043400 -15.104900
C -9.824900 -47.874900 -15.118200
H -9.471500 -50.949700 -15.633400
C -9.378400 -50.031700 -15.406900
C -8.534700 -48.079400 -14.725400
C -8.260700 -49.445100 -14.899500
H -7.934700 -47.421300 -14.395000
H -7.441000 -49.881600 -14.699700
