20
Fragment
N -17.894900 -13.984300 -13.944100
C -17.603000 -14.780800 -14.717400
H -17.419200 -13.362200 -16.841000
C -17.235000 -15.749600 -15.709600
C -17.223400 -14.040800 -17.476000
H -17.185400 -12.805700 -19.038200
C -17.083600 -13.712000 -18.772200
C -17.080400 -15.409100 -17.033900
N -17.042000 -11.959500 -21.911600
C -17.014600 -17.087900 -15.245600
C -16.846800 -13.036200 -21.557300
N -16.819400 -18.164600 -14.891300
C -16.780900 -14.715000 -19.769100
C -16.777700 -16.412100 -18.030700
H -16.675900 -17.318400 -17.764800
C -16.637900 -16.083300 -19.326900
C -16.626300 -14.374500 -21.093400
H -16.442100 -16.761900 -19.961900
C -16.258300 -15.343300 -22.085600
N -15.966400 -16.139800 -22.858800
50
Fragment
H -19.077200 -21.270000 -24.497300
H -19.010000 -20.616100 -25.954600
C -18.481100 -21.093400 -25.267500
O -18.043000 -22.338600 -25.806000
H -17.706900 -19.305000 -24.602800
H -17.621800 -22.767200 -25.219800
C -17.357200 -20.205800 -24.817700
O -16.737900 -20.770700 -23.663100
H -16.697400 -25.261600 -13.424500
H -16.690700 -20.114700 -25.543700
H -16.686800 -19.430000 -21.366600
H -16.433900 -26.240200 -15.537000
H -16.127600 -19.703900 -16.839800
C -16.027200 -20.457400 -17.409500
H -16.018900 -21.816100 -15.914800
H -16.002500 -23.702000 -15.289200
H -16.001600 -19.381800 -19.147300
C -15.961500 -21.708200 -16.856500
C -15.949600 -20.262300 -18.794000
C -15.826000 -19.849400 -21.617200
H -15.823700 -19.006300 -23.499900
C -15.806900 -22.845700 -17.696100
C -15.804800 -25.604500 -13.680900
C -15.797400 -21.341900 -19.657300
N -15.788800 -24.357000 -15.790200
N -15.740700 -21.163300 -21.012800
C -15.732200 -24.178400 -17.145600
C -15.724800 -19.915800 -23.122100
C -15.722700 -22.674600 -19.106900
H -15.705800 -26.514000 -13.303000
C -15.703600 -25.671000 -15.185700
C -15.580000 -25.258000 -18.008900
C -15.568100 -23.812200 -19.946400
H -15.528000 -26.138600 -17.655600
H -15.527100 -21.818400 -21.513800
H -15.510700 -23.704200 -20.888100
C -15.502400 -25.062900 -19.393400
H -15.402000 -25.816500 -19.963100
H -15.095700 -19.280200 -21.266000
H -14.842800 -26.090400 -15.436400
H -14.838900 -25.405600 -11.259200
H -14.832200 -20.258700 -23.378400
O -14.791600 -24.749600 -13.139900
C -14.172400 -25.314600 -11.985200
H -13.907800 -22.753100 -11.583100
H -13.822700 -26.215300 -12.200200
O -13.486600 -23.181700 -10.997000
C -13.048500 -24.427000 -11.535400
H -12.519600 -24.904300 -10.848300
H -12.452400 -24.250400 -12.305700
70
Fragment
N -17.894900 -13.984300 -13.944100
C -17.603000 -14.780800 -14.717400
H -17.419200 -13.362200 -16.841000
C -17.235000 -15.749600 -15.709600
C -17.223400 -14.040800 -17.476000
H -17.185400 -12.805700 -19.038200
C -17.083600 -13.712000 -18.772200
C -17.080400 -15.409100 -17.033900
N -17.042000 -11.959500 -21.911600
C -17.014600 -17.087900 -15.245600
C -16.846800 -13.036200 -21.557300
N -16.819400 -18.164600 -14.891300
C -16.780900 -14.715000 -19.769100
C -16.777700 -16.412100 -18.030700
H -16.675900 -17.318400 -17.764800
C -16.637900 -16.083300 -19.326900
C -16.626300 -14.374500 -21.093400
H -16.442100 -16.761900 -19.961900
C -16.258300 -15.343300 -22.085600
N -15.966400 -16.139800 -22.858800
H -19.077200 -21.270000 -24.497300
H -19.010000 -20.616100 -25.954600
C -18.481100 -21.093400 -25.267500
O -18.043000 -22.338600 -25.806000
H -17.706900 -19.305000 -24.602800
H -17.621800 -22.767200 -25.219800
C -17.357200 -20.205800 -24.817700
O -16.737900 -20.770700 -23.663100
H -16.697400 -25.261600 -13.424500
H -16.690700 -20.114700 -25.543700
H -16.686800 -19.430000 -21.366600
H -16.433900 -26.240200 -15.537000
H -16.127600 -19.703900 -16.839800
C -16.027200 -20.457400 -17.409500
H -16.018900 -21.816100 -15.914800
H -16.002500 -23.702000 -15.289200
H -16.001600 -19.381800 -19.147300
C -15.961500 -21.708200 -16.856500
C -15.949600 -20.262300 -18.794000
C -15.826000 -19.849400 -21.617200
H -15.823700 -19.006300 -23.499900
C -15.806900 -22.845700 -17.696100
C -15.804800 -25.604500 -13.680900
C -15.797400 -21.341900 -19.657300
N -15.788800 -24.357000 -15.790200
N -15.740700 -21.163300 -21.012800
C -15.732200 -24.178400 -17.145600
C -15.724800 -19.915800 -23.122100
C -15.722700 -22.674600 -19.106900
H -15.705800 -26.514000 -13.303000
C -15.703600 -25.671000 -15.185700
C -15.580000 -25.258000 -18.008900
C -15.568100 -23.812200 -19.946400
H -15.528000 -26.138600 -17.655600
H -15.527100 -21.818400 -21.513800
H -15.510700 -23.704200 -20.888100
C -15.502400 -25.062900 -19.393400
H -15.402000 -25.816500 -19.963100
H -15.095700 -19.280200 -21.266000
H -14.842800 -26.090400 -15.436400
H -14.838900 -25.405600 -11.259200
H -14.832200 -20.258700 -23.378400
O -14.791600 -24.749600 -13.139900
C -14.172400 -25.314600 -11.985200
H -13.907800 -22.753100 -11.583100
H -13.822700 -26.215300 -12.200200
O -13.486600 -23.181700 -10.997000
C -13.048500 -24.427000 -11.535400
H -12.519600 -24.904300 -10.848300
H -12.452400 -24.250400 -12.305700
