20
Fragment
N -17.894900 -13.984300 -13.944100
C -17.603000 -14.780800 -14.717400
H -17.419200 -13.362200 -16.841000
C -17.235000 -15.749600 -15.709600
C -17.223400 -14.040800 -17.476000
H -17.185400 -12.805700 -19.038200
C -17.083600 -13.712000 -18.772200
C -17.080400 -15.409100 -17.033900
N -17.042000 -11.959500 -21.911600
C -17.014600 -17.087900 -15.245600
C -16.846800 -13.036200 -21.557300
N -16.819400 -18.164600 -14.891300
C -16.780900 -14.715000 -19.769100
C -16.777700 -16.412100 -18.030700
H -16.675900 -17.318400 -17.764800
C -16.637900 -16.083300 -19.326900
C -16.626300 -14.374500 -21.093400
H -16.442100 -16.761900 -19.961900
C -16.258300 -15.343300 -22.085600
N -15.966400 -16.139800 -22.858800
50
Fragment
H -17.729100 -21.492800 -12.229600
H -17.661900 -20.838900 -13.687000
C -17.133000 -21.316200 -12.999900
O -16.694900 -22.561400 -13.538300
H -16.358800 -19.527800 -12.335100
H -16.273700 -22.990000 -12.952200
C -16.009100 -20.428600 -12.550000
O -15.389900 -20.993500 -11.395400
H -15.349400 -25.484400 -1.156800
H -15.342600 -20.337500 -13.276000
H -15.338700 -19.652800 -9.098900
H -15.085800 -26.463000 -3.269300
H -14.779500 -19.926700 -4.572100
C -14.679100 -20.680300 -5.141900
H -14.670800 -22.038900 -3.647200
H -14.654400 -23.924800 -3.021500
H -14.653500 -19.604600 -6.879700
C -14.613400 -21.931000 -4.588800
C -14.601500 -20.485100 -6.526400
C -14.477900 -20.072200 -9.349500
H -14.475700 -19.229200 -11.232300
C -14.458800 -23.068600 -5.428400
C -14.456700 -25.827400 -1.413200
C -14.449300 -21.564700 -7.389700
N -14.440800 -24.579800 -3.522500
N -14.392700 -21.386200 -8.745100
C -14.384100 -24.401200 -4.878000
C -14.376700 -20.138600 -10.854400
C -14.374600 -22.897400 -6.839200
H -14.357800 -26.736800 -1.035400
C -14.355500 -25.893800 -2.918100
C -14.231900 -25.480900 -5.741300
C -14.220000 -24.035000 -7.678800
H -14.180000 -26.361400 -5.387900
H -14.179000 -22.041200 -9.246100
H -14.162600 -23.927000 -8.620500
C -14.154400 -25.285700 -7.125800
H -14.053900 -26.039300 -7.695500
H -13.747600 -19.503000 -8.998300
H -13.494700 -26.313200 -3.168700
H -13.490800 -25.628500 1.008400
H -13.484100 -20.481500 -11.110800
O -13.443600 -24.972500 -0.872200
C -12.824300 -25.537400 0.282400
H -12.559800 -22.976000 0.684500
H -12.474600 -26.438200 0.067500
O -12.138500 -23.404500 1.270700
C -11.700400 -24.649800 0.732300
H -11.171500 -25.127100 1.419400
H -11.104300 -24.473200 -0.038000
70
Fragment
N -17.894900 -13.984300 -13.944100
C -17.603000 -14.780800 -14.717400
H -17.419200 -13.362200 -16.841000
C -17.235000 -15.749600 -15.709600
C -17.223400 -14.040800 -17.476000
H -17.185400 -12.805700 -19.038200
C -17.083600 -13.712000 -18.772200
C -17.080400 -15.409100 -17.033900
N -17.042000 -11.959500 -21.911600
C -17.014600 -17.087900 -15.245600
C -16.846800 -13.036200 -21.557300
N -16.819400 -18.164600 -14.891300
C -16.780900 -14.715000 -19.769100
C -16.777700 -16.412100 -18.030700
H -16.675900 -17.318400 -17.764800
C -16.637900 -16.083300 -19.326900
C -16.626300 -14.374500 -21.093400
H -16.442100 -16.761900 -19.961900
C -16.258300 -15.343300 -22.085600
N -15.966400 -16.139800 -22.858800
H -17.729100 -21.492800 -12.229600
H -17.661900 -20.838900 -13.687000
C -17.133000 -21.316200 -12.999900
O -16.694900 -22.561400 -13.538300
H -16.358800 -19.527800 -12.335100
H -16.273700 -22.990000 -12.952200
C -16.009100 -20.428600 -12.550000
O -15.389900 -20.993500 -11.395400
H -15.349400 -25.484400 -1.156800
H -15.342600 -20.337500 -13.276000
H -15.338700 -19.652800 -9.098900
H -15.085800 -26.463000 -3.269300
H -14.779500 -19.926700 -4.572100
C -14.679100 -20.680300 -5.141900
H -14.670800 -22.038900 -3.647200
H -14.654400 -23.924800 -3.021500
H -14.653500 -19.604600 -6.879700
C -14.613400 -21.931000 -4.588800
C -14.601500 -20.485100 -6.526400
C -14.477900 -20.072200 -9.349500
H -14.475700 -19.229200 -11.232300
C -14.458800 -23.068600 -5.428400
C -14.456700 -25.827400 -1.413200
C -14.449300 -21.564700 -7.389700
N -14.440800 -24.579800 -3.522500
N -14.392700 -21.386200 -8.745100
C -14.384100 -24.401200 -4.878000
C -14.376700 -20.138600 -10.854400
C -14.374600 -22.897400 -6.839200
H -14.357800 -26.736800 -1.035400
C -14.355500 -25.893800 -2.918100
C -14.231900 -25.480900 -5.741300
C -14.220000 -24.035000 -7.678800
H -14.180000 -26.361400 -5.387900
H -14.179000 -22.041200 -9.246100
H -14.162600 -23.927000 -8.620500
C -14.154400 -25.285700 -7.125800
H -14.053900 -26.039300 -7.695500
H -13.747600 -19.503000 -8.998300
H -13.494700 -26.313200 -3.168700
H -13.490800 -25.628500 1.008400
H -13.484100 -20.481500 -11.110800
O -13.443600 -24.972500 -0.872200
C -12.824300 -25.537400 0.282400
H -12.559800 -22.976000 0.684500
H -12.474600 -26.438200 0.067500
O -12.138500 -23.404500 1.270700
C -11.700400 -24.649800 0.732300
H -11.171500 -25.127100 1.419400
H -11.104300 -24.473200 -0.038000
