20
Fragment
N -17.894900 -13.984300 -13.944100
C -17.603000 -14.780800 -14.717400
H -17.419200 -13.362200 -16.841000
C -17.235000 -15.749600 -15.709600
C -17.223400 -14.040800 -17.476000
H -17.185400 -12.805700 -19.038200
C -17.083600 -13.712000 -18.772200
C -17.080400 -15.409100 -17.033900
N -17.042000 -11.959500 -21.911600
C -17.014600 -17.087900 -15.245600
C -16.846800 -13.036200 -21.557300
N -16.819400 -18.164600 -14.891300
C -16.780900 -14.715000 -19.769100
C -16.777700 -16.412100 -18.030700
H -16.675900 -17.318400 -17.764800
C -16.637900 -16.083300 -19.326900
C -16.626300 -14.374500 -21.093400
H -16.442100 -16.761900 -19.961900
C -16.258300 -15.343300 -22.085600
N -15.966400 -16.139800 -22.858800
50
Fragment
H -23.691100 -13.571800 -24.497300
H -23.623900 -12.917900 -25.954600
C -23.095000 -13.395200 -25.267500
O -22.656900 -14.640500 -25.806000
H -22.320800 -11.606900 -24.602800
H -22.235700 -15.069100 -25.219800
C -21.971100 -12.507700 -24.817700
O -21.351900 -13.072600 -23.663100
H -21.311300 -17.563500 -13.424500
H -21.304600 -12.416600 -25.543700
H -21.300700 -11.731900 -21.366600
H -21.047800 -18.542000 -15.537000
H -20.741500 -12.005800 -16.839800
C -20.641100 -12.759300 -17.409500
H -20.632800 -14.118000 -15.914800
H -20.616400 -16.003900 -15.289200
H -20.615500 -11.683600 -19.147300
C -20.575400 -14.010100 -16.856500
C -20.563500 -12.564200 -18.794000
C -20.439900 -12.151200 -21.617200
H -20.437700 -11.308200 -23.499900
C -20.420800 -15.147600 -17.696100
C -20.418700 -17.906400 -13.680900
C -20.411300 -13.643800 -19.657300
N -20.402800 -16.658900 -15.790200
N -20.354700 -13.465200 -21.012800
C -20.346100 -16.480300 -17.145600
C -20.338700 -12.217700 -23.122100
C -20.336600 -14.976500 -19.106900
H -20.319800 -18.815900 -13.303000
C -20.317500 -17.972800 -15.185700
C -20.193900 -17.559900 -18.008900
C -20.182000 -16.114000 -19.946400
H -20.141900 -18.440400 -17.655600
H -20.141000 -14.120200 -21.513800
H -20.124600 -16.006100 -20.888100
C -20.116300 -17.364800 -19.393400
H -20.015900 -18.118300 -19.963100
H -19.709600 -11.582000 -21.266000
H -19.456700 -18.392200 -15.436400
H -19.452800 -17.707500 -11.259200
H -19.446100 -12.560600 -23.378400
O -19.405600 -17.051500 -13.139900
C -18.786300 -17.616400 -11.985200
H -18.521700 -15.055000 -11.583100
H -18.436600 -18.517200 -12.200200
O -18.100500 -15.483600 -10.997000
C -17.662400 -16.728800 -11.535400
H -17.133500 -17.206100 -10.848300
H -17.066300 -16.552300 -12.305700
70
Fragment
N -17.894900 -13.984300 -13.944100
C -17.603000 -14.780800 -14.717400
H -17.419200 -13.362200 -16.841000
C -17.235000 -15.749600 -15.709600
C -17.223400 -14.040800 -17.476000
H -17.185400 -12.805700 -19.038200
C -17.083600 -13.712000 -18.772200
C -17.080400 -15.409100 -17.033900
N -17.042000 -11.959500 -21.911600
C -17.014600 -17.087900 -15.245600
C -16.846800 -13.036200 -21.557300
N -16.819400 -18.164600 -14.891300
C -16.780900 -14.715000 -19.769100
C -16.777700 -16.412100 -18.030700
H -16.675900 -17.318400 -17.764800
C -16.637900 -16.083300 -19.326900
C -16.626300 -14.374500 -21.093400
H -16.442100 -16.761900 -19.961900
C -16.258300 -15.343300 -22.085600
N -15.966400 -16.139800 -22.858800
H -23.691100 -13.571800 -24.497300
H -23.623900 -12.917900 -25.954600
C -23.095000 -13.395200 -25.267500
O -22.656900 -14.640500 -25.806000
H -22.320800 -11.606900 -24.602800
H -22.235700 -15.069100 -25.219800
C -21.971100 -12.507700 -24.817700
O -21.351900 -13.072600 -23.663100
H -21.311300 -17.563500 -13.424500
H -21.304600 -12.416600 -25.543700
H -21.300700 -11.731900 -21.366600
H -21.047800 -18.542000 -15.537000
H -20.741500 -12.005800 -16.839800
C -20.641100 -12.759300 -17.409500
H -20.632800 -14.118000 -15.914800
H -20.616400 -16.003900 -15.289200
H -20.615500 -11.683600 -19.147300
C -20.575400 -14.010100 -16.856500
C -20.563500 -12.564200 -18.794000
C -20.439900 -12.151200 -21.617200
H -20.437700 -11.308200 -23.499900
C -20.420800 -15.147600 -17.696100
C -20.418700 -17.906400 -13.680900
C -20.411300 -13.643800 -19.657300
N -20.402800 -16.658900 -15.790200
N -20.354700 -13.465200 -21.012800
C -20.346100 -16.480300 -17.145600
C -20.338700 -12.217700 -23.122100
C -20.336600 -14.976500 -19.106900
H -20.319800 -18.815900 -13.303000
C -20.317500 -17.972800 -15.185700
C -20.193900 -17.559900 -18.008900
C -20.182000 -16.114000 -19.946400
H -20.141900 -18.440400 -17.655600
H -20.141000 -14.120200 -21.513800
H -20.124600 -16.006100 -20.888100
C -20.116300 -17.364800 -19.393400
H -20.015900 -18.118300 -19.963100
H -19.709600 -11.582000 -21.266000
H -19.456700 -18.392200 -15.436400
H -19.452800 -17.707500 -11.259200
H -19.446100 -12.560600 -23.378400
O -19.405600 -17.051500 -13.139900
C -18.786300 -17.616400 -11.985200
H -18.521700 -15.055000 -11.583100
H -18.436600 -18.517200 -12.200200
O -18.100500 -15.483600 -10.997000
C -17.662400 -16.728800 -11.535400
H -17.133500 -17.206100 -10.848300
H -17.066300 -16.552300 -12.305700
