18
Fragment
H -51.272900 -12.023600 -21.515000
O -51.226900 -11.220800 -19.429500
O -50.470400 -12.189800 -21.269300
C -50.299100 -11.672600 -20.079700
H -49.926900 -10.643900 -17.158900
H -49.805300 -9.470500 -18.239700
C -49.301900 -10.083800 -17.664100
C -48.880400 -11.682900 -19.590300
H -48.749900 -9.566600 -17.041200
C -48.431800 -10.942600 -18.499400
H -48.261300 -12.944000 -21.108800
C -47.955500 -12.454900 -20.352400
C -47.055400 -11.000500 -18.175100
H -46.733500 -10.502900 -17.433000
C -46.623100 -12.496000 -20.002200
C -46.174600 -11.752000 -18.904200
H -46.013900 -13.025300 -20.503100
H -45.254600 -11.769700 -18.663100
18
Fragment
O -51.363600 -6.246100 -23.320400
H -51.039200 -7.514800 -25.189300
C -50.501500 -7.075100 -23.525800
O -50.393500 -7.707100 -24.683100
H -49.836100 -5.696300 -21.461900
H -49.759300 -9.897100 -23.735400
C -49.505500 -7.449400 -22.470900
C -49.353200 -6.513100 -21.424600
C -48.826600 -9.719700 -23.489900
C -48.782500 -8.657400 -22.425000
C -48.517400 -6.754900 -20.346700
H -48.427700 -6.113600 -19.652000
H -48.417200 -10.542100 -23.148300
H -48.332500 -9.411600 -24.279400
C -47.949700 -8.874900 -21.312600
C -47.813900 -7.947000 -20.299300
H -47.463400 -9.688900 -21.256600
H -47.235100 -8.127100 -19.567300
36
Fragment
H -51.272900 -12.023600 -21.515000
O -51.226900 -11.220800 -19.429500
O -50.470400 -12.189800 -21.269300
C -50.299100 -11.672600 -20.079700
H -49.926900 -10.643900 -17.158900
H -49.805300 -9.470500 -18.239700
C -49.301900 -10.083800 -17.664100
C -48.880400 -11.682900 -19.590300
H -48.749900 -9.566600 -17.041200
C -48.431800 -10.942600 -18.499400
H -48.261300 -12.944000 -21.108800
C -47.955500 -12.454900 -20.352400
C -47.055400 -11.000500 -18.175100
H -46.733500 -10.502900 -17.433000
C -46.623100 -12.496000 -20.002200
C -46.174600 -11.752000 -18.904200
H -46.013900 -13.025300 -20.503100
H -45.254600 -11.769700 -18.663100
O -51.363600 -6.246100 -23.320400
H -51.039200 -7.514800 -25.189300
C -50.501500 -7.075100 -23.525800
O -50.393500 -7.707100 -24.683100
H -49.836100 -5.696300 -21.461900
H -49.759300 -9.897100 -23.735400
C -49.505500 -7.449400 -22.470900
C -49.353200 -6.513100 -21.424600
C -48.826600 -9.719700 -23.489900
C -48.782500 -8.657400 -22.425000
C -48.517400 -6.754900 -20.346700
H -48.427700 -6.113600 -19.652000
H -48.417200 -10.542100 -23.148300
H -48.332500 -9.411600 -24.279400
C -47.949700 -8.874900 -21.312600
C -47.813900 -7.947000 -20.299300
H -47.463400 -9.688900 -21.256600
H -47.235100 -8.127100 -19.567300
