18
Fragment
H -51.272900 -12.023600 -21.515000
O -51.226900 -11.220800 -19.429500
O -50.470400 -12.189800 -21.269300
C -50.299100 -11.672600 -20.079700
H -49.926900 -10.643900 -17.158900
H -49.805300 -9.470500 -18.239700
C -49.301900 -10.083800 -17.664100
C -48.880400 -11.682900 -19.590300
H -48.749900 -9.566600 -17.041200
C -48.431800 -10.942600 -18.499400
H -48.261300 -12.944000 -21.108800
C -47.955500 -12.454900 -20.352400
C -47.055400 -11.000500 -18.175100
H -46.733500 -10.502900 -17.433000
C -46.623100 -12.496000 -20.002200
C -46.174600 -11.752000 -18.904200
H -46.013900 -13.025300 -20.503100
H -45.254600 -11.769700 -18.663100
18
Fragment
O -51.391400 -7.756500 -16.144000
H -51.067100 -6.487900 -18.012900
C -50.529300 -6.927600 -16.349400
O -50.421300 -6.295600 -17.506700
H -49.863900 -8.306400 -14.285400
H -49.787100 -4.105600 -16.558900
C -49.533300 -6.553200 -15.294400
C -49.381000 -7.489600 -14.248100
C -48.854400 -4.282900 -16.313500
C -48.810300 -5.345300 -15.248500
C -48.545200 -7.247800 -13.170200
H -48.455500 -7.889100 -12.475500
H -48.445000 -3.460500 -15.971900
H -48.360300 -4.591000 -17.102900
C -47.977500 -5.127800 -14.136200
C -47.841700 -6.055700 -13.122800
H -47.491200 -4.313700 -14.080200
H -47.262900 -5.875500 -12.390900
36
Fragment
H -51.272900 -12.023600 -21.515000
O -51.226900 -11.220800 -19.429500
O -50.470400 -12.189800 -21.269300
C -50.299100 -11.672600 -20.079700
H -49.926900 -10.643900 -17.158900
H -49.805300 -9.470500 -18.239700
C -49.301900 -10.083800 -17.664100
C -48.880400 -11.682900 -19.590300
H -48.749900 -9.566600 -17.041200
C -48.431800 -10.942600 -18.499400
H -48.261300 -12.944000 -21.108800
C -47.955500 -12.454900 -20.352400
C -47.055400 -11.000500 -18.175100
H -46.733500 -10.502900 -17.433000
C -46.623100 -12.496000 -20.002200
C -46.174600 -11.752000 -18.904200
H -46.013900 -13.025300 -20.503100
H -45.254600 -11.769700 -18.663100
O -51.391400 -7.756500 -16.144000
H -51.067100 -6.487900 -18.012900
C -50.529300 -6.927600 -16.349400
O -50.421300 -6.295600 -17.506700
H -49.863900 -8.306400 -14.285400
H -49.787100 -4.105600 -16.558900
C -49.533300 -6.553200 -15.294400
C -49.381000 -7.489600 -14.248100
C -48.854400 -4.282900 -16.313500
C -48.810300 -5.345300 -15.248500
C -48.545200 -7.247800 -13.170200
H -48.455500 -7.889100 -12.475500
H -48.445000 -3.460500 -15.971900
H -48.360300 -4.591000 -17.102900
C -47.977500 -5.127800 -14.136200
C -47.841700 -6.055700 -13.122800
H -47.491200 -4.313700 -14.080200
H -47.262900 -5.875500 -12.390900
