18
Fragment
H -51.272900 -12.023600 -21.515000
O -51.226900 -11.220800 -19.429500
O -50.470400 -12.189800 -21.269300
C -50.299100 -11.672600 -20.079700
H -49.926900 -10.643900 -17.158900
H -49.805300 -9.470500 -18.239700
C -49.301900 -10.083800 -17.664100
C -48.880400 -11.682900 -19.590300
H -48.749900 -9.566600 -17.041200
C -48.431800 -10.942600 -18.499400
H -48.261300 -12.944000 -21.108800
C -47.955500 -12.454900 -20.352400
C -47.055400 -11.000500 -18.175100
H -46.733500 -10.502900 -17.433000
C -46.623100 -12.496000 -20.002200
C -46.174600 -11.752000 -18.904200
H -46.013900 -13.025300 -20.503100
H -45.254600 -11.769700 -18.663100
18
Fragment
H -47.318400 -16.437200 -17.219200
H -46.559100 -17.692800 -15.379100
C -46.398400 -16.419500 -16.978000
C -45.949900 -17.163500 -15.880000
H -45.839500 -15.170500 -18.449200
C -45.517600 -15.668000 -17.707200
C -44.617400 -17.122400 -15.529800
H -44.311600 -17.611600 -14.773400
C -44.141100 -15.610200 -17.382800
H -43.823000 -14.234200 -18.841000
C -43.692600 -16.350400 -16.292000
C -43.271000 -14.751300 -18.218100
H -42.767700 -14.138000 -17.642600
H -42.646100 -15.311400 -18.723300
C -42.273900 -16.340200 -15.802500
O -42.102600 -16.857300 -14.613000
O -41.346100 -15.888300 -16.452700
H -41.300100 -16.691200 -14.367200
36
Fragment
H -51.272900 -12.023600 -21.515000
O -51.226900 -11.220800 -19.429500
O -50.470400 -12.189800 -21.269300
C -50.299100 -11.672600 -20.079700
H -49.926900 -10.643900 -17.158900
H -49.805300 -9.470500 -18.239700
C -49.301900 -10.083800 -17.664100
C -48.880400 -11.682900 -19.590300
H -48.749900 -9.566600 -17.041200
C -48.431800 -10.942600 -18.499400
H -48.261300 -12.944000 -21.108800
C -47.955500 -12.454900 -20.352400
C -47.055400 -11.000500 -18.175100
H -46.733500 -10.502900 -17.433000
C -46.623100 -12.496000 -20.002200
C -46.174600 -11.752000 -18.904200
H -46.013900 -13.025300 -20.503100
H -45.254600 -11.769700 -18.663100
H -47.318400 -16.437200 -17.219200
H -46.559100 -17.692800 -15.379100
C -46.398400 -16.419500 -16.978000
C -45.949900 -17.163500 -15.880000
H -45.839500 -15.170500 -18.449200
C -45.517600 -15.668000 -17.707200
C -44.617400 -17.122400 -15.529800
H -44.311600 -17.611600 -14.773400
C -44.141100 -15.610200 -17.382800
H -43.823000 -14.234200 -18.841000
C -43.692600 -16.350400 -16.292000
C -43.271000 -14.751300 -18.218100
H -42.767700 -14.138000 -17.642600
H -42.646100 -15.311400 -18.723300
C -42.273900 -16.340200 -15.802500
O -42.102600 -16.857300 -14.613000
O -41.346100 -15.888300 -16.452700
H -41.300100 -16.691200 -14.367200
