18
Fragment
H -51.272900 -12.023600 -21.515000
O -51.226900 -11.220800 -19.429500
O -50.470400 -12.189800 -21.269300
C -50.299100 -11.672600 -20.079700
H -49.926900 -10.643900 -17.158900
H -49.805300 -9.470500 -18.239700
C -49.301900 -10.083800 -17.664100
C -48.880400 -11.682900 -19.590300
H -48.749900 -9.566600 -17.041200
C -48.431800 -10.942600 -18.499400
H -48.261300 -12.944000 -21.108800
C -47.955500 -12.454900 -20.352400
C -47.055400 -11.000500 -18.175100
H -46.733500 -10.502900 -17.433000
C -46.623100 -12.496000 -20.002200
C -46.174600 -11.752000 -18.904200
H -46.013900 -13.025300 -20.503100
H -45.254600 -11.769700 -18.663100
18
Fragment
H -45.310000 -10.543100 -23.491400
H -45.081700 -8.981300 -21.802000
C -44.731300 -10.723200 -22.759400
C -44.595500 -9.795300 -21.746100
H -44.212700 -9.258600 -18.779300
H -44.127900 -8.128100 -19.910300
H -44.117500 -12.556600 -23.406700
C -44.027800 -11.915300 -22.712000
C -43.762600 -10.012800 -20.633700
C -43.718500 -8.950500 -19.568700
C -43.192000 -12.157100 -21.634100
C -43.039700 -11.220800 -20.587800
H -42.785900 -8.773100 -19.323300
H -42.709100 -12.973900 -21.596800
O -42.151700 -10.963100 -18.375600
C -42.043700 -11.595100 -19.532900
H -41.505900 -11.155400 -17.869400
O -41.181600 -12.424100 -19.738200
36
Fragment
H -51.272900 -12.023600 -21.515000
O -51.226900 -11.220800 -19.429500
O -50.470400 -12.189800 -21.269300
C -50.299100 -11.672600 -20.079700
H -49.926900 -10.643900 -17.158900
H -49.805300 -9.470500 -18.239700
C -49.301900 -10.083800 -17.664100
C -48.880400 -11.682900 -19.590300
H -48.749900 -9.566600 -17.041200
C -48.431800 -10.942600 -18.499400
H -48.261300 -12.944000 -21.108800
C -47.955500 -12.454900 -20.352400
C -47.055400 -11.000500 -18.175100
H -46.733500 -10.502900 -17.433000
C -46.623100 -12.496000 -20.002200
C -46.174600 -11.752000 -18.904200
H -46.013900 -13.025300 -20.503100
H -45.254600 -11.769700 -18.663100
H -45.310000 -10.543100 -23.491400
H -45.081700 -8.981300 -21.802000
C -44.731300 -10.723200 -22.759400
C -44.595500 -9.795300 -21.746100
H -44.212700 -9.258600 -18.779300
H -44.127900 -8.128100 -19.910300
H -44.117500 -12.556600 -23.406700
C -44.027800 -11.915300 -22.712000
C -43.762600 -10.012800 -20.633700
C -43.718500 -8.950500 -19.568700
C -43.192000 -12.157100 -21.634100
C -43.039700 -11.220800 -20.587800
H -42.785900 -8.773100 -19.323300
H -42.709100 -12.973900 -21.596800
O -42.151700 -10.963100 -18.375600
C -42.043700 -11.595100 -19.532900
H -41.505900 -11.155400 -17.869400
O -41.181600 -12.424100 -19.738200
