34
Fragment
H -11.233000 -19.806500 -22.769400
O -10.960500 -19.839600 -21.975300
H -9.654200 -18.561400 -19.870900
C -9.650900 -19.375400 -21.915800
H -9.535900 -18.538500 -22.450900
H -9.279700 -21.435800 -23.894500
N -9.180400 -21.354400 -18.954300
C -9.149000 -19.190900 -20.462500
N -9.113700 -20.607800 -20.082600
N -8.926200 -22.580400 -19.355200
C -8.782400 -21.386200 -21.117300
N -8.664800 -22.636400 -20.716300
C -8.562200 -20.432300 -22.269900
C -8.438700 -20.981700 -23.637500
H -8.398200 -20.144800 -25.320300
O -8.165500 -19.918400 -24.546000
H -7.733500 -14.665700 -24.377900
O -7.723100 -16.966500 -18.868300
H -7.705400 -21.646900 -23.668200
C -7.666900 -18.873000 -20.750300
C -7.577400 -16.578600 -20.029300
H -7.529700 -14.682200 -19.693100
O -7.524400 -13.512100 -21.810600
N -7.517200 -15.259700 -20.357500
N -7.472800 -17.446000 -21.086500
C -7.437500 -14.742000 -21.632900
O -7.345400 -19.692100 -21.884600
C -7.265000 -17.003400 -22.373300
C -7.218600 -15.701000 -22.680500
H -7.151300 -17.643100 -23.065200
H -7.099000 -19.126100 -19.966300
C -6.961100 -15.187200 -24.074000
H -6.818600 -15.943900 -24.680200
H -6.163800 -14.617400 -24.069100
34
Fragment
H -7.965500 -11.989700 -25.727700
O -7.693000 -11.956700 -26.521800
H -6.386700 -13.234900 -28.626200
C -6.383400 -12.420900 -26.581300
H -6.268400 -13.257800 -26.046200
H -6.012200 -10.360500 -24.602600
N -5.912900 -10.441900 -29.542800
C -5.881500 -12.605300 -28.034600
N -5.846200 -11.188500 -28.414500
N -5.658700 -9.215800 -29.141900
C -5.514900 -10.410100 -27.379800
N -5.397300 -9.159900 -27.780800
C -5.294700 -11.364000 -26.227200
C -5.171200 -10.814500 -24.859600
H -5.130600 -11.651400 -23.176800
O -4.898000 -11.877800 -23.951100
H -4.466000 -17.130500 -24.119200
O -4.455600 -14.829800 -29.628800
H -4.437900 -10.149400 -24.828900
C -4.399400 -12.923300 -27.746800
C -4.309800 -15.217700 -28.467800
H -4.262100 -17.114000 -28.804000
O -4.256900 -18.284100 -26.686500
N -4.249700 -16.536600 -28.139600
N -4.205300 -14.350300 -27.410600
C -4.170000 -17.054200 -26.864200
O -4.077900 -12.104200 -26.612500
C -3.997500 -14.792900 -26.123800
C -3.951100 -16.095300 -25.816600
H -3.883800 -14.153100 -25.431900
H -3.831500 -12.670200 -28.530800
C -3.693600 -16.609100 -24.423100
H -3.551100 -15.852300 -23.816900
H -2.896300 -17.178900 -24.428000
68
Fragment
H -11.233000 -19.806500 -22.769400
O -10.960500 -19.839600 -21.975300
H -9.654200 -18.561400 -19.870900
C -9.650900 -19.375400 -21.915800
H -9.535900 -18.538500 -22.450900
H -9.279700 -21.435800 -23.894500
N -9.180400 -21.354400 -18.954300
C -9.149000 -19.190900 -20.462500
N -9.113700 -20.607800 -20.082600
N -8.926200 -22.580400 -19.355200
C -8.782400 -21.386200 -21.117300
N -8.664800 -22.636400 -20.716300
C -8.562200 -20.432300 -22.269900
C -8.438700 -20.981700 -23.637500
H -8.398200 -20.144800 -25.320300
O -8.165500 -19.918400 -24.546000
H -7.733500 -14.665700 -24.377900
O -7.723100 -16.966500 -18.868300
H -7.705400 -21.646900 -23.668200
C -7.666900 -18.873000 -20.750300
C -7.577400 -16.578600 -20.029300
H -7.529700 -14.682200 -19.693100
O -7.524400 -13.512100 -21.810600
N -7.517200 -15.259700 -20.357500
N -7.472800 -17.446000 -21.086500
C -7.437500 -14.742000 -21.632900
O -7.345400 -19.692100 -21.884600
C -7.265000 -17.003400 -22.373300
C -7.218600 -15.701000 -22.680500
H -7.151300 -17.643100 -23.065200
H -7.099000 -19.126100 -19.966300
C -6.961100 -15.187200 -24.074000
H -6.818600 -15.943900 -24.680200
H -6.163800 -14.617400 -24.069100
H -7.965500 -11.989700 -25.727700
O -7.693000 -11.956700 -26.521800
H -6.386700 -13.234900 -28.626200
C -6.383400 -12.420900 -26.581300
H -6.268400 -13.257800 -26.046200
H -6.012200 -10.360500 -24.602600
N -5.912900 -10.441900 -29.542800
C -5.881500 -12.605300 -28.034600
N -5.846200 -11.188500 -28.414500
N -5.658700 -9.215800 -29.141900
C -5.514900 -10.410100 -27.379800
N -5.397300 -9.159900 -27.780800
C -5.294700 -11.364000 -26.227200
C -5.171200 -10.814500 -24.859600
H -5.130600 -11.651400 -23.176800
O -4.898000 -11.877800 -23.951100
H -4.466000 -17.130500 -24.119200
O -4.455600 -14.829800 -29.628800
H -4.437900 -10.149400 -24.828900
C -4.399400 -12.923300 -27.746800
C -4.309800 -15.217700 -28.467800
H -4.262100 -17.114000 -28.804000
O -4.256900 -18.284100 -26.686500
N -4.249700 -16.536600 -28.139600
N -4.205300 -14.350300 -27.410600
C -4.170000 -17.054200 -26.864200
O -4.077900 -12.104200 -26.612500
C -3.997500 -14.792900 -26.123800
C -3.951100 -16.095300 -25.816600
H -3.883800 -14.153100 -25.431900
H -3.831500 -12.670200 -28.530800
C -3.693600 -16.609100 -24.423100
H -3.551100 -15.852300 -23.816900
H -2.896300 -17.178900 -24.428000
