35
Fragment
H -14.561700 -11.840000 -25.744900
O -14.234300 -11.716200 -26.508900
C -12.937900 -12.234500 -26.549600
H -12.892000 -12.911700 -28.630500
H -12.870300 -13.105300 -26.062300
H -12.572800 -10.369800 -24.409000
C -12.385700 -12.336900 -27.987000
N -12.334500 -10.159800 -29.407100
N -12.292500 -10.903500 -28.298100
N -12.074500 -8.919600 -29.008600
C -11.975300 -10.189800 -27.200800
C -11.836800 -8.912500 -27.659100
C -11.823600 -11.242600 -26.117700
C -11.725200 -10.797200 -24.690600
H -11.645000 -11.769200 -23.082800
H -11.615500 -8.151900 -27.134300
O -11.463800 -11.942900 -23.884700
H -11.292400 -17.018600 -24.141800
O -11.064000 -14.618300 -29.599600
O -10.995500 -18.161900 -26.764100
H -10.994300 -10.137000 -24.590400
H -10.980600 -16.932600 -28.834500
C -10.954900 -15.037300 -28.453700
N -10.946000 -16.374600 -28.155400
C -10.932000 -12.750500 -27.663600
C -10.888000 -16.935000 -26.891400
N -10.846000 -14.200300 -27.367900
C -10.681800 -14.689200 -26.087700
C -10.680500 -16.002000 -25.806000
O -10.617700 -12.003100 -26.494800
H -10.565600 -14.070600 -25.375700
C -10.483500 -16.543100 -24.424700
H -10.318700 -12.505500 -28.415100
H -10.306900 -15.804000 -23.806700
H -9.723100 -17.160300 -24.422000
35
Fragment
H -17.844800 -19.790700 -22.833500
O -17.517400 -19.914600 -22.069500
C -16.221000 -19.396200 -22.028800
H -16.175000 -18.719100 -19.947900
H -16.153400 -18.525500 -22.516100
H -15.855900 -21.260900 -24.169400
C -15.668800 -19.293900 -20.591400
N -15.617600 -21.471000 -19.171300
N -15.575500 -20.727300 -20.280300
N -15.357500 -22.711100 -19.569800
C -15.258400 -21.441000 -21.377600
C -15.119900 -22.718200 -20.919300
C -15.106700 -20.388200 -22.460700
C -15.008200 -20.833500 -23.887800
H -14.928100 -19.861600 -25.495600
H -14.898600 -23.478900 -21.444100
O -14.746800 -19.687900 -24.693700
H -14.575500 -14.612100 -24.436600
O -14.347100 -17.012400 -18.978800
O -14.278600 -13.468900 -21.814300
H -14.277400 -21.493700 -23.988000
H -14.263600 -14.698200 -19.743900
C -14.238000 -16.593500 -20.124700
N -14.229100 -15.256100 -20.423000
C -14.215000 -18.880300 -20.914800
C -14.171000 -14.695800 -21.687000
N -14.129000 -17.430400 -21.210500
C -13.964900 -16.941600 -22.490700
C -13.963600 -15.628800 -22.772400
O -13.900800 -19.627600 -22.083600
H -13.848600 -17.560100 -23.202700
C -13.766600 -15.087600 -24.153700
H -13.601800 -19.125200 -20.163300
H -13.589900 -15.826800 -24.771700
H -13.006200 -14.470400 -24.156400
70
Fragment
H -14.561700 -11.840000 -25.744900
O -14.234300 -11.716200 -26.508900
C -12.937900 -12.234500 -26.549600
H -12.892000 -12.911700 -28.630500
H -12.870300 -13.105300 -26.062300
H -12.572800 -10.369800 -24.409000
C -12.385700 -12.336900 -27.987000
N -12.334500 -10.159800 -29.407100
N -12.292500 -10.903500 -28.298100
N -12.074500 -8.919600 -29.008600
C -11.975300 -10.189800 -27.200800
C -11.836800 -8.912500 -27.659100
C -11.823600 -11.242600 -26.117700
C -11.725200 -10.797200 -24.690600
H -11.645000 -11.769200 -23.082800
H -11.615500 -8.151900 -27.134300
O -11.463800 -11.942900 -23.884700
H -11.292400 -17.018600 -24.141800
O -11.064000 -14.618300 -29.599600
O -10.995500 -18.161900 -26.764100
H -10.994300 -10.137000 -24.590400
H -10.980600 -16.932600 -28.834500
C -10.954900 -15.037300 -28.453700
N -10.946000 -16.374600 -28.155400
C -10.932000 -12.750500 -27.663600
C -10.888000 -16.935000 -26.891400
N -10.846000 -14.200300 -27.367900
C -10.681800 -14.689200 -26.087700
C -10.680500 -16.002000 -25.806000
O -10.617700 -12.003100 -26.494800
H -10.565600 -14.070600 -25.375700
C -10.483500 -16.543100 -24.424700
H -10.318700 -12.505500 -28.415100
H -10.306900 -15.804000 -23.806700
H -9.723100 -17.160300 -24.422000
H -17.844800 -19.790700 -22.833500
O -17.517400 -19.914600 -22.069500
C -16.221000 -19.396200 -22.028800
H -16.175000 -18.719100 -19.947900
H -16.153400 -18.525500 -22.516100
H -15.855900 -21.260900 -24.169400
C -15.668800 -19.293900 -20.591400
N -15.617600 -21.471000 -19.171300
N -15.575500 -20.727300 -20.280300
N -15.357500 -22.711100 -19.569800
C -15.258400 -21.441000 -21.377600
C -15.119900 -22.718200 -20.919300
C -15.106700 -20.388200 -22.460700
C -15.008200 -20.833500 -23.887800
H -14.928100 -19.861600 -25.495600
H -14.898600 -23.478900 -21.444100
O -14.746800 -19.687900 -24.693700
H -14.575500 -14.612100 -24.436600
O -14.347100 -17.012400 -18.978800
O -14.278600 -13.468900 -21.814300
H -14.277400 -21.493700 -23.988000
H -14.263600 -14.698200 -19.743900
C -14.238000 -16.593500 -20.124700
N -14.229100 -15.256100 -20.423000
C -14.215000 -18.880300 -20.914800
C -14.171000 -14.695800 -21.687000
N -14.129000 -17.430400 -21.210500
C -13.964900 -16.941600 -22.490700
C -13.963600 -15.628800 -22.772400
O -13.900800 -19.627600 -22.083600
H -13.848600 -17.560100 -23.202700
C -13.766600 -15.087600 -24.153700
H -13.601800 -19.125200 -20.163300
H -13.589900 -15.826800 -24.771700
H -13.006200 -14.470400 -24.156400
