3
Fragment
H -37.234100 -15.281400 -10.548500
O -36.628500 -14.827800 -10.301200
H -36.022900 -15.281400 -10.054000
23
Fragment
H -34.706700 -16.870400 -7.767100
N -34.076000 -16.081000 -9.490300
C -33.983200 -16.763900 -8.340700
C -32.860900 -16.175300 -9.974100
N -32.802300 -17.271200 -8.077000
H -32.579800 -15.797900 -10.775900
N -32.087800 -16.882000 -9.165600
C -30.674900 -17.162600 -9.242300
H -30.514000 -18.073800 -8.953000
O -30.427500 -15.261100 -7.862700
H -30.382100 -17.084500 -10.163600
C -29.868100 -16.212900 -8.379400
C -28.428400 -16.461500 -8.207200
H -28.238100 -18.093100 -9.367500
H -28.133100 -14.885600 -6.984200
C -27.763900 -17.502600 -8.827800
C -27.702900 -15.595900 -7.402900
C -26.408400 -17.677100 -8.656300
C -26.355200 -15.780600 -7.219100
H -25.957400 -18.369100 -9.084900
H -25.867000 -15.206300 -6.674400
C -25.752000 -16.816600 -7.849600
F -24.415800 -16.976900 -7.691300
26
Fragment
H -37.234100 -15.281400 -10.548500
O -36.628500 -14.827800 -10.301200
H -36.022900 -15.281400 -10.054000
H -34.706700 -16.870400 -7.767100
N -34.076000 -16.081000 -9.490300
C -33.983200 -16.763900 -8.340700
C -32.860900 -16.175300 -9.974100
N -32.802300 -17.271200 -8.077000
H -32.579800 -15.797900 -10.775900
N -32.087800 -16.882000 -9.165600
C -30.674900 -17.162600 -9.242300
H -30.514000 -18.073800 -8.953000
O -30.427500 -15.261100 -7.862700
H -30.382100 -17.084500 -10.163600
C -29.868100 -16.212900 -8.379400
C -28.428400 -16.461500 -8.207200
H -28.238100 -18.093100 -9.367500
H -28.133100 -14.885600 -6.984200
C -27.763900 -17.502600 -8.827800
C -27.702900 -15.595900 -7.402900
C -26.408400 -17.677100 -8.656300
C -26.355200 -15.780600 -7.219100
H -25.957400 -18.369100 -9.084900
H -25.867000 -15.206300 -6.674400
C -25.752000 -16.816600 -7.849600
F -24.415800 -16.976900 -7.691300
