34
Fragment
H -11.233000 -19.806500 -22.769400
O -10.960500 -19.839600 -21.975300
H -9.654200 -18.561400 -19.870900
C -9.650900 -19.375400 -21.915800
H -9.535900 -18.538500 -22.450900
H -9.279700 -21.435800 -23.894500
N -9.180400 -21.354400 -18.954300
C -9.149000 -19.190900 -20.462500
N -9.113700 -20.607800 -20.082600
N -8.926200 -22.580400 -19.355200
C -8.782400 -21.386200 -21.117300
N -8.664800 -22.636400 -20.716300
C -8.562200 -20.432300 -22.269900
C -8.438700 -20.981700 -23.637500
H -8.398200 -20.144800 -25.320300
O -8.165500 -19.918400 -24.546000
H -7.733500 -14.665700 -24.377900
O -7.723100 -16.966500 -18.868300
H -7.705400 -21.646900 -23.668200
C -7.666900 -18.873000 -20.750300
C -7.577400 -16.578600 -20.029300
H -7.529700 -14.682200 -19.693100
O -7.524400 -13.512100 -21.810600
N -7.517200 -15.259700 -20.357500
N -7.472800 -17.446000 -21.086500
C -7.437500 -14.742000 -21.632900
O -7.345400 -19.692100 -21.884600
C -7.265000 -17.003400 -22.373300
C -7.218600 -15.701000 -22.680500
H -7.151300 -17.643100 -23.065200
H -7.099000 -19.126100 -19.966300
C -6.961100 -15.187200 -24.074000
H -6.818600 -15.943900 -24.680200
H -6.163800 -14.617400 -24.069100
34
Fragment
H -17.768100 -19.806500 -22.769400
O -17.495600 -19.839600 -21.975300
H -16.189200 -18.561400 -19.870900
C -16.185900 -19.375400 -21.915800
H -16.070900 -18.538500 -22.450900
H -15.814700 -21.435800 -23.894500
N -15.715400 -21.354400 -18.954300
C -15.684000 -19.190900 -20.462500
N -15.648800 -20.607800 -20.082600
N -15.461200 -22.580400 -19.355200
C -15.317400 -21.386200 -21.117300
N -15.199800 -22.636400 -20.716300
C -15.097200 -20.432300 -22.269900
C -14.973700 -20.981700 -23.637500
H -14.933200 -20.144800 -25.320300
O -14.700500 -19.918400 -24.546000
H -14.268600 -14.665700 -24.377900
O -14.258100 -16.966500 -18.868300
H -14.240500 -21.646900 -23.668200
C -14.201900 -18.873000 -20.750300
C -14.112400 -16.578600 -20.029300
H -14.064700 -14.682200 -19.693100
O -14.059400 -13.512100 -21.810600
N -14.052300 -15.259700 -20.357500
N -14.007800 -17.446000 -21.086500
C -13.972500 -14.742000 -21.632900
O -13.880400 -19.692100 -21.884600
C -13.800000 -17.003400 -22.373300
C -13.753600 -15.701000 -22.680500
H -13.686300 -17.643100 -23.065200
H -13.634000 -19.126100 -19.966300
C -13.496100 -15.187200 -24.074000
H -13.353700 -15.943900 -24.680200
H -12.698900 -14.617400 -24.069100
68
Fragment
H -11.233000 -19.806500 -22.769400
O -10.960500 -19.839600 -21.975300
H -9.654200 -18.561400 -19.870900
C -9.650900 -19.375400 -21.915800
H -9.535900 -18.538500 -22.450900
H -9.279700 -21.435800 -23.894500
N -9.180400 -21.354400 -18.954300
C -9.149000 -19.190900 -20.462500
N -9.113700 -20.607800 -20.082600
N -8.926200 -22.580400 -19.355200
C -8.782400 -21.386200 -21.117300
N -8.664800 -22.636400 -20.716300
C -8.562200 -20.432300 -22.269900
C -8.438700 -20.981700 -23.637500
H -8.398200 -20.144800 -25.320300
O -8.165500 -19.918400 -24.546000
H -7.733500 -14.665700 -24.377900
O -7.723100 -16.966500 -18.868300
H -7.705400 -21.646900 -23.668200
C -7.666900 -18.873000 -20.750300
C -7.577400 -16.578600 -20.029300
H -7.529700 -14.682200 -19.693100
O -7.524400 -13.512100 -21.810600
N -7.517200 -15.259700 -20.357500
N -7.472800 -17.446000 -21.086500
C -7.437500 -14.742000 -21.632900
O -7.345400 -19.692100 -21.884600
C -7.265000 -17.003400 -22.373300
C -7.218600 -15.701000 -22.680500
H -7.151300 -17.643100 -23.065200
H -7.099000 -19.126100 -19.966300
C -6.961100 -15.187200 -24.074000
H -6.818600 -15.943900 -24.680200
H -6.163800 -14.617400 -24.069100
H -17.768100 -19.806500 -22.769400
O -17.495600 -19.839600 -21.975300
H -16.189200 -18.561400 -19.870900
C -16.185900 -19.375400 -21.915800
H -16.070900 -18.538500 -22.450900
H -15.814700 -21.435800 -23.894500
N -15.715400 -21.354400 -18.954300
C -15.684000 -19.190900 -20.462500
N -15.648800 -20.607800 -20.082600
N -15.461200 -22.580400 -19.355200
C -15.317400 -21.386200 -21.117300
N -15.199800 -22.636400 -20.716300
C -15.097200 -20.432300 -22.269900
C -14.973700 -20.981700 -23.637500
H -14.933200 -20.144800 -25.320300
O -14.700500 -19.918400 -24.546000
H -14.268600 -14.665700 -24.377900
O -14.258100 -16.966500 -18.868300
H -14.240500 -21.646900 -23.668200
C -14.201900 -18.873000 -20.750300
C -14.112400 -16.578600 -20.029300
H -14.064700 -14.682200 -19.693100
O -14.059400 -13.512100 -21.810600
N -14.052300 -15.259700 -20.357500
N -14.007800 -17.446000 -21.086500
C -13.972500 -14.742000 -21.632900
O -13.880400 -19.692100 -21.884600
C -13.800000 -17.003400 -22.373300
C -13.753600 -15.701000 -22.680500
H -13.686300 -17.643100 -23.065200
H -13.634000 -19.126100 -19.966300
C -13.496100 -15.187200 -24.074000
H -13.353700 -15.943900 -24.680200
H -12.698900 -14.617400 -24.069100
