35
Fragment
H -14.561700 -11.840000 -25.744900
O -14.234300 -11.716200 -26.508900
C -12.937900 -12.234500 -26.549600
H -12.892000 -12.911700 -28.630500
H -12.870300 -13.105300 -26.062300
H -12.572800 -10.369800 -24.409000
C -12.385700 -12.336900 -27.987000
N -12.334500 -10.159800 -29.407100
N -12.292500 -10.903500 -28.298100
N -12.074500 -8.919600 -29.008600
C -11.975300 -10.189800 -27.200800
C -11.836800 -8.912500 -27.659100
C -11.823600 -11.242600 -26.117700
C -11.725200 -10.797200 -24.690600
H -11.645000 -11.769200 -23.082800
H -11.615500 -8.151900 -27.134300
O -11.463800 -11.942900 -23.884700
H -11.292400 -17.018600 -24.141800
O -11.064000 -14.618300 -29.599600
O -10.995500 -18.161900 -26.764100
H -10.994300 -10.137000 -24.590400
H -10.980600 -16.932600 -28.834500
C -10.954900 -15.037300 -28.453700
N -10.946000 -16.374600 -28.155400
C -10.932000 -12.750500 -27.663600
C -10.888000 -16.935000 -26.891400
N -10.846000 -14.200300 -27.367900
C -10.681800 -14.689200 -26.087700
C -10.680500 -16.002000 -25.806000
O -10.617700 -12.003100 -26.494800
H -10.565600 -14.070600 -25.375700
C -10.483500 -16.543100 -24.424700
H -10.318700 -12.505500 -28.415100
H -10.306900 -15.804000 -23.806700
H -9.723100 -17.160300 -24.422000
35
Fragment
H -7.995600 -11.840000 -25.744900
O -7.668200 -11.716200 -26.508900
C -6.371800 -12.234500 -26.549600
H -6.325800 -12.911700 -28.630500
H -6.304200 -13.105300 -26.062300
H -6.006700 -10.369800 -24.409000
C -5.819600 -12.336900 -27.987000
N -5.768400 -10.159800 -29.407100
N -5.726300 -10.903500 -28.298100
N -5.508300 -8.919600 -29.008600
C -5.409200 -10.189800 -27.200800
C -5.270600 -8.912500 -27.659100
C -5.257500 -11.242600 -26.117700
C -5.159000 -10.797200 -24.690600
H -5.078900 -11.769200 -23.082800
H -5.049400 -8.151900 -27.134300
O -4.897600 -11.942900 -23.884700
H -4.726300 -17.018600 -24.141800
O -4.497900 -14.618300 -29.599600
O -4.429400 -18.161900 -26.764100
H -4.428200 -10.137000 -24.590400
H -4.414400 -16.932600 -28.834500
C -4.388800 -15.037300 -28.453700
N -4.379900 -16.374600 -28.155400
C -4.365800 -12.750500 -27.663600
C -4.321800 -16.935000 -26.891400
N -4.279800 -14.200300 -27.367900
C -4.115700 -14.689200 -26.087700
C -4.114300 -16.002000 -25.806000
O -4.051600 -12.003100 -26.494800
H -3.999400 -14.070600 -25.375700
C -3.917400 -16.543100 -24.424700
H -3.752500 -12.505500 -28.415100
H -3.740700 -15.804000 -23.806700
H -3.157000 -17.160300 -24.422000
70
Fragment
H -14.561700 -11.840000 -25.744900
O -14.234300 -11.716200 -26.508900
C -12.937900 -12.234500 -26.549600
H -12.892000 -12.911700 -28.630500
H -12.870300 -13.105300 -26.062300
H -12.572800 -10.369800 -24.409000
C -12.385700 -12.336900 -27.987000
N -12.334500 -10.159800 -29.407100
N -12.292500 -10.903500 -28.298100
N -12.074500 -8.919600 -29.008600
C -11.975300 -10.189800 -27.200800
C -11.836800 -8.912500 -27.659100
C -11.823600 -11.242600 -26.117700
C -11.725200 -10.797200 -24.690600
H -11.645000 -11.769200 -23.082800
H -11.615500 -8.151900 -27.134300
O -11.463800 -11.942900 -23.884700
H -11.292400 -17.018600 -24.141800
O -11.064000 -14.618300 -29.599600
O -10.995500 -18.161900 -26.764100
H -10.994300 -10.137000 -24.590400
H -10.980600 -16.932600 -28.834500
C -10.954900 -15.037300 -28.453700
N -10.946000 -16.374600 -28.155400
C -10.932000 -12.750500 -27.663600
C -10.888000 -16.935000 -26.891400
N -10.846000 -14.200300 -27.367900
C -10.681800 -14.689200 -26.087700
C -10.680500 -16.002000 -25.806000
O -10.617700 -12.003100 -26.494800
H -10.565600 -14.070600 -25.375700
C -10.483500 -16.543100 -24.424700
H -10.318700 -12.505500 -28.415100
H -10.306900 -15.804000 -23.806700
H -9.723100 -17.160300 -24.422000
H -7.995600 -11.840000 -25.744900
O -7.668200 -11.716200 -26.508900
C -6.371800 -12.234500 -26.549600
H -6.325800 -12.911700 -28.630500
H -6.304200 -13.105300 -26.062300
H -6.006700 -10.369800 -24.409000
C -5.819600 -12.336900 -27.987000
N -5.768400 -10.159800 -29.407100
N -5.726300 -10.903500 -28.298100
N -5.508300 -8.919600 -29.008600
C -5.409200 -10.189800 -27.200800
C -5.270600 -8.912500 -27.659100
C -5.257500 -11.242600 -26.117700
C -5.159000 -10.797200 -24.690600
H -5.078900 -11.769200 -23.082800
H -5.049400 -8.151900 -27.134300
O -4.897600 -11.942900 -23.884700
H -4.726300 -17.018600 -24.141800
O -4.497900 -14.618300 -29.599600
O -4.429400 -18.161900 -26.764100
H -4.428200 -10.137000 -24.590400
H -4.414400 -16.932600 -28.834500
C -4.388800 -15.037300 -28.453700
N -4.379900 -16.374600 -28.155400
C -4.365800 -12.750500 -27.663600
C -4.321800 -16.935000 -26.891400
N -4.279800 -14.200300 -27.367900
C -4.115700 -14.689200 -26.087700
C -4.114300 -16.002000 -25.806000
O -4.051600 -12.003100 -26.494800
H -3.999400 -14.070600 -25.375700
C -3.917400 -16.543100 -24.424700
H -3.752500 -12.505500 -28.415100
H -3.740700 -15.804000 -23.806700
H -3.157000 -17.160300 -24.422000
