3
Fragment
H -37.234100 -15.281400 -10.548500
O -36.628500 -14.827800 -10.301200
H -36.022900 -15.281400 -10.054000
23
Fragment
H -46.916200 -11.796900 -12.835400
N -46.285500 -11.007500 -11.112200
C -46.192700 -11.690400 -12.261800
C -45.070400 -11.101800 -10.628400
N -45.011800 -12.197700 -12.525500
H -44.789300 -10.724400 -9.826600
N -44.297300 -11.808500 -11.436900
C -42.884400 -12.089100 -11.360200
H -42.723500 -13.000300 -11.649500
O -42.637000 -10.187600 -12.739800
H -42.591600 -12.011000 -10.438900
C -42.077600 -11.139400 -12.223100
C -40.637900 -11.388000 -12.395300
H -40.447600 -13.019600 -11.235000
H -40.342600 -9.812100 -13.618300
C -39.973400 -12.429100 -11.774700
C -39.912400 -10.522400 -13.199600
C -38.617900 -12.603600 -11.946200
C -38.564700 -10.707100 -13.383400
H -38.166900 -13.295600 -11.517600
H -38.076500 -10.132800 -13.928100
C -37.961500 -11.743100 -12.752900
F -36.625300 -11.903400 -12.911200
26
Fragment
H -37.234100 -15.281400 -10.548500
O -36.628500 -14.827800 -10.301200
H -36.022900 -15.281400 -10.054000
H -46.916200 -11.796900 -12.835400
N -46.285500 -11.007500 -11.112200
C -46.192700 -11.690400 -12.261800
C -45.070400 -11.101800 -10.628400
N -45.011800 -12.197700 -12.525500
H -44.789300 -10.724400 -9.826600
N -44.297300 -11.808500 -11.436900
C -42.884400 -12.089100 -11.360200
H -42.723500 -13.000300 -11.649500
O -42.637000 -10.187600 -12.739800
H -42.591600 -12.011000 -10.438900
C -42.077600 -11.139400 -12.223100
C -40.637900 -11.388000 -12.395300
H -40.447600 -13.019600 -11.235000
H -40.342600 -9.812100 -13.618300
C -39.973400 -12.429100 -11.774700
C -39.912400 -10.522400 -13.199600
C -38.617900 -12.603600 -11.946200
C -38.564700 -10.707100 -13.383400
H -38.166900 -13.295600 -11.517600
H -38.076500 -10.132800 -13.928100
C -37.961500 -11.743100 -12.752900
F -36.625300 -11.903400 -12.911200
