3
Fragment
H -37.234100 -15.281400 -10.548500
O -36.628500 -14.827800 -10.301200
H -36.022900 -15.281400 -10.054000
23
Fragment
H -34.706700 -13.570600 -11.887600
N -34.076000 -14.360000 -13.610800
C -33.983200 -13.677100 -12.461200
C -32.860900 -14.265700 -14.094600
N -32.802300 -13.169800 -12.197500
H -32.579800 -14.643100 -14.896400
N -32.087800 -13.559000 -13.286100
C -30.674900 -13.278400 -13.362800
H -30.514000 -12.367200 -13.073500
O -30.427500 -15.179900 -11.983200
H -30.382100 -13.356500 -14.284100
C -29.868100 -14.228100 -12.499900
C -28.428400 -13.979500 -12.327700
H -28.238100 -12.347900 -13.488000
H -28.133100 -15.555400 -11.104700
C -27.763900 -12.938400 -12.948300
C -27.702900 -14.845100 -11.523400
C -26.408400 -12.763900 -12.776800
C -26.355200 -14.660400 -11.339600
H -25.957400 -12.071900 -13.205400
H -25.867000 -15.234700 -10.794900
C -25.752000 -13.624400 -11.970100
F -24.415800 -13.464100 -11.811800
26
Fragment
H -37.234100 -15.281400 -10.548500
O -36.628500 -14.827800 -10.301200
H -36.022900 -15.281400 -10.054000
H -34.706700 -13.570600 -11.887600
N -34.076000 -14.360000 -13.610800
C -33.983200 -13.677100 -12.461200
C -32.860900 -14.265700 -14.094600
N -32.802300 -13.169800 -12.197500
H -32.579800 -14.643100 -14.896400
N -32.087800 -13.559000 -13.286100
C -30.674900 -13.278400 -13.362800
H -30.514000 -12.367200 -13.073500
O -30.427500 -15.179900 -11.983200
H -30.382100 -13.356500 -14.284100
C -29.868100 -14.228100 -12.499900
C -28.428400 -13.979500 -12.327700
H -28.238100 -12.347900 -13.488000
H -28.133100 -15.555400 -11.104700
C -27.763900 -12.938400 -12.948300
C -27.702900 -14.845100 -11.523400
C -26.408400 -12.763900 -12.776800
C -26.355200 -14.660400 -11.339600
H -25.957400 -12.071900 -13.205400
H -25.867000 -15.234700 -10.794900
C -25.752000 -13.624400 -11.970100
F -24.415800 -13.464100 -11.811800
