35
Fragment
H -14.561700 -11.840000 -25.744900
O -14.234300 -11.716200 -26.508900
C -12.937900 -12.234500 -26.549600
H -12.892000 -12.911700 -28.630500
H -12.870300 -13.105300 -26.062300
H -12.572800 -10.369800 -24.409000
C -12.385700 -12.336900 -27.987000
N -12.334500 -10.159800 -29.407100
N -12.292500 -10.903500 -28.298100
N -12.074500 -8.919600 -29.008600
C -11.975300 -10.189800 -27.200800
C -11.836800 -8.912500 -27.659100
C -11.823600 -11.242600 -26.117700
C -11.725200 -10.797200 -24.690600
H -11.645000 -11.769200 -23.082800
H -11.615500 -8.151900 -27.134300
O -11.463800 -11.942900 -23.884700
H -11.292400 -17.018600 -24.141800
O -11.064000 -14.618300 -29.599600
O -10.995500 -18.161900 -26.764100
H -10.994300 -10.137000 -24.590400
H -10.980600 -16.932600 -28.834500
C -10.954900 -15.037300 -28.453700
N -10.946000 -16.374600 -28.155400
C -10.932000 -12.750500 -27.663600
C -10.888000 -16.935000 -26.891400
N -10.846000 -14.200300 -27.367900
C -10.681800 -14.689200 -26.087700
C -10.680500 -16.002000 -25.806000
O -10.617700 -12.003100 -26.494800
H -10.565600 -14.070600 -25.375700
C -10.483500 -16.543100 -24.424700
H -10.318700 -12.505500 -28.415100
H -10.306900 -15.804000 -23.806700
H -9.723100 -17.160300 -24.422000
35
Fragment
H -13.258300 -8.144300 -16.325600
H -12.674600 -9.500600 -15.710300
H -12.662800 -12.799100 -20.318700
C -12.498000 -8.761500 -16.328300
H -12.415900 -11.234000 -17.279300
O -12.363800 -13.301500 -18.398400
C -12.301000 -9.302600 -17.709600
C -12.299700 -10.615400 -17.991300
N -12.135500 -11.104300 -19.271500
C -12.093500 -8.369600 -18.795000
C -12.049500 -12.554100 -19.567200
N -12.035500 -8.930000 -20.059000
C -12.026500 -10.267300 -20.357300
H -12.000900 -8.372000 -20.738100
H -11.987100 -15.167600 -16.494000
O -11.986000 -7.142700 -18.667700
O -11.917500 -10.686300 -21.503200
H -11.689000 -8.286000 -16.045400
O -11.517700 -13.361700 -15.788300
H -11.366000 -17.152700 -19.037900
H -11.336400 -13.535400 -14.986400
C -11.256300 -14.507400 -16.594200
C -11.157800 -14.062000 -18.021300
C -11.144700 -16.392100 -19.562700
C -11.006200 -15.114800 -19.104400
N -10.907000 -16.385000 -20.912200
N -10.689000 -14.401100 -20.201700
N -10.647000 -15.144800 -21.310700
C -10.595800 -12.967700 -19.890600
H -10.408600 -14.934800 -16.312600
H -10.111200 -12.199300 -17.965900
H -10.089500 -12.392900 -20.534100
C -10.043600 -13.070100 -18.453200
O -8.747100 -13.588400 -18.412500
H -8.419800 -13.464600 -17.648500
70
Fragment
H -14.561700 -11.840000 -25.744900
O -14.234300 -11.716200 -26.508900
C -12.937900 -12.234500 -26.549600
H -12.892000 -12.911700 -28.630500
H -12.870300 -13.105300 -26.062300
H -12.572800 -10.369800 -24.409000
C -12.385700 -12.336900 -27.987000
N -12.334500 -10.159800 -29.407100
N -12.292500 -10.903500 -28.298100
N -12.074500 -8.919600 -29.008600
C -11.975300 -10.189800 -27.200800
C -11.836800 -8.912500 -27.659100
C -11.823600 -11.242600 -26.117700
C -11.725200 -10.797200 -24.690600
H -11.645000 -11.769200 -23.082800
H -11.615500 -8.151900 -27.134300
O -11.463800 -11.942900 -23.884700
H -11.292400 -17.018600 -24.141800
O -11.064000 -14.618300 -29.599600
O -10.995500 -18.161900 -26.764100
H -10.994300 -10.137000 -24.590400
H -10.980600 -16.932600 -28.834500
C -10.954900 -15.037300 -28.453700
N -10.946000 -16.374600 -28.155400
C -10.932000 -12.750500 -27.663600
C -10.888000 -16.935000 -26.891400
N -10.846000 -14.200300 -27.367900
C -10.681800 -14.689200 -26.087700
C -10.680500 -16.002000 -25.806000
O -10.617700 -12.003100 -26.494800
H -10.565600 -14.070600 -25.375700
C -10.483500 -16.543100 -24.424700
H -10.318700 -12.505500 -28.415100
H -10.306900 -15.804000 -23.806700
H -9.723100 -17.160300 -24.422000
H -13.258300 -8.144300 -16.325600
H -12.674600 -9.500600 -15.710300
H -12.662800 -12.799100 -20.318700
C -12.498000 -8.761500 -16.328300
H -12.415900 -11.234000 -17.279300
O -12.363800 -13.301500 -18.398400
C -12.301000 -9.302600 -17.709600
C -12.299700 -10.615400 -17.991300
N -12.135500 -11.104300 -19.271500
C -12.093500 -8.369600 -18.795000
C -12.049500 -12.554100 -19.567200
N -12.035500 -8.930000 -20.059000
C -12.026500 -10.267300 -20.357300
H -12.000900 -8.372000 -20.738100
H -11.987100 -15.167600 -16.494000
O -11.986000 -7.142700 -18.667700
O -11.917500 -10.686300 -21.503200
H -11.689000 -8.286000 -16.045400
O -11.517700 -13.361700 -15.788300
H -11.366000 -17.152700 -19.037900
H -11.336400 -13.535400 -14.986400
C -11.256300 -14.507400 -16.594200
C -11.157800 -14.062000 -18.021300
C -11.144700 -16.392100 -19.562700
C -11.006200 -15.114800 -19.104400
N -10.907000 -16.385000 -20.912200
N -10.689000 -14.401100 -20.201700
N -10.647000 -15.144800 -21.310700
C -10.595800 -12.967700 -19.890600
H -10.408600 -14.934800 -16.312600
H -10.111200 -12.199300 -17.965900
H -10.089500 -12.392900 -20.534100
C -10.043600 -13.070100 -18.453200
O -8.747100 -13.588400 -18.412500
H -8.419800 -13.464600 -17.648500
