35
Fragment
H -14.561700 -11.840000 -25.744900
O -14.234300 -11.716200 -26.508900
C -12.937900 -12.234500 -26.549600
H -12.892000 -12.911700 -28.630500
H -12.870300 -13.105300 -26.062300
H -12.572800 -10.369800 -24.409000
C -12.385700 -12.336900 -27.987000
N -12.334500 -10.159800 -29.407100
N -12.292500 -10.903500 -28.298100
N -12.074500 -8.919600 -29.008600
C -11.975300 -10.189800 -27.200800
C -11.836800 -8.912500 -27.659100
C -11.823600 -11.242600 -26.117700
C -11.725200 -10.797200 -24.690600
H -11.645000 -11.769200 -23.082800
H -11.615500 -8.151900 -27.134300
O -11.463800 -11.942900 -23.884700
H -11.292400 -17.018600 -24.141800
O -11.064000 -14.618300 -29.599600
O -10.995500 -18.161900 -26.764100
H -10.994300 -10.137000 -24.590400
H -10.980600 -16.932600 -28.834500
C -10.954900 -15.037300 -28.453700
N -10.946000 -16.374600 -28.155400
C -10.932000 -12.750500 -27.663600
C -10.888000 -16.935000 -26.891400
N -10.846000 -14.200300 -27.367900
C -10.681800 -14.689200 -26.087700
C -10.680500 -16.002000 -25.806000
O -10.617700 -12.003100 -26.494800
H -10.565600 -14.070600 -25.375700
C -10.483500 -16.543100 -24.424700
H -10.318700 -12.505500 -28.415100
H -10.306900 -15.804000 -23.806700
H -9.723100 -17.160300 -24.422000
35
Fragment
H -9.975300 -23.486500 -32.252800
H -9.391600 -22.130100 -32.868100
H -9.379700 -18.831700 -28.259700
C -9.214900 -22.869300 -32.250100
H -9.132800 -20.396800 -31.299100
O -9.080700 -18.329300 -30.180000
C -9.017900 -22.328100 -30.868800
C -9.016600 -21.015300 -30.587100
N -8.852500 -20.526500 -29.306900
C -8.810400 -23.261100 -29.783400
C -8.766500 -19.076600 -29.011200
N -8.752400 -22.700800 -28.519400
C -8.743500 -21.363400 -28.221100
H -8.717900 -23.258700 -27.840300
H -8.704100 -16.463200 -32.084400
O -8.702900 -24.488000 -29.910700
O -8.634400 -20.944500 -27.075200
H -8.406000 -23.344800 -32.533000
O -8.234700 -18.269000 -32.790100
H -8.082900 -14.478000 -29.540500
H -8.053400 -18.095300 -33.592000
C -7.973300 -17.123400 -31.984200
C -7.874800 -17.568700 -30.557100
C -7.861600 -15.238700 -29.015700
C -7.723100 -16.515900 -29.474000
N -7.623900 -15.245800 -27.666200
N -7.405900 -17.229600 -28.376700
N -7.363900 -16.485900 -27.267700
C -7.312700 -18.663000 -28.687800
H -7.125600 -16.696000 -32.265800
H -6.828100 -19.431400 -30.612500
H -6.806500 -19.237800 -28.044300
C -6.760500 -18.560700 -30.125200
O -5.464100 -18.042300 -30.165900
H -5.136700 -18.166200 -30.929900
70
Fragment
H -14.561700 -11.840000 -25.744900
O -14.234300 -11.716200 -26.508900
C -12.937900 -12.234500 -26.549600
H -12.892000 -12.911700 -28.630500
H -12.870300 -13.105300 -26.062300
H -12.572800 -10.369800 -24.409000
C -12.385700 -12.336900 -27.987000
N -12.334500 -10.159800 -29.407100
N -12.292500 -10.903500 -28.298100
N -12.074500 -8.919600 -29.008600
C -11.975300 -10.189800 -27.200800
C -11.836800 -8.912500 -27.659100
C -11.823600 -11.242600 -26.117700
C -11.725200 -10.797200 -24.690600
H -11.645000 -11.769200 -23.082800
H -11.615500 -8.151900 -27.134300
O -11.463800 -11.942900 -23.884700
H -11.292400 -17.018600 -24.141800
O -11.064000 -14.618300 -29.599600
O -10.995500 -18.161900 -26.764100
H -10.994300 -10.137000 -24.590400
H -10.980600 -16.932600 -28.834500
C -10.954900 -15.037300 -28.453700
N -10.946000 -16.374600 -28.155400
C -10.932000 -12.750500 -27.663600
C -10.888000 -16.935000 -26.891400
N -10.846000 -14.200300 -27.367900
C -10.681800 -14.689200 -26.087700
C -10.680500 -16.002000 -25.806000
O -10.617700 -12.003100 -26.494800
H -10.565600 -14.070600 -25.375700
C -10.483500 -16.543100 -24.424700
H -10.318700 -12.505500 -28.415100
H -10.306900 -15.804000 -23.806700
H -9.723100 -17.160300 -24.422000
H -9.975300 -23.486500 -32.252800
H -9.391600 -22.130100 -32.868100
H -9.379700 -18.831700 -28.259700
C -9.214900 -22.869300 -32.250100
H -9.132800 -20.396800 -31.299100
O -9.080700 -18.329300 -30.180000
C -9.017900 -22.328100 -30.868800
C -9.016600 -21.015300 -30.587100
N -8.852500 -20.526500 -29.306900
C -8.810400 -23.261100 -29.783400
C -8.766500 -19.076600 -29.011200
N -8.752400 -22.700800 -28.519400
C -8.743500 -21.363400 -28.221100
H -8.717900 -23.258700 -27.840300
H -8.704100 -16.463200 -32.084400
O -8.702900 -24.488000 -29.910700
O -8.634400 -20.944500 -27.075200
H -8.406000 -23.344800 -32.533000
O -8.234700 -18.269000 -32.790100
H -8.082900 -14.478000 -29.540500
H -8.053400 -18.095300 -33.592000
C -7.973300 -17.123400 -31.984200
C -7.874800 -17.568700 -30.557100
C -7.861600 -15.238700 -29.015700
C -7.723100 -16.515900 -29.474000
N -7.623900 -15.245800 -27.666200
N -7.405900 -17.229600 -28.376700
N -7.363900 -16.485900 -27.267700
C -7.312700 -18.663000 -28.687800
H -7.125600 -16.696000 -32.265800
H -6.828100 -19.431400 -30.612500
H -6.806500 -19.237800 -28.044300
C -6.760500 -18.560700 -30.125200
O -5.464100 -18.042300 -30.165900
H -5.136700 -18.166200 -30.929900
