3
Fragment
H -37.234100 -15.281400 -10.548500
O -36.628500 -14.827800 -10.301200
H -36.022900 -15.281400 -10.054000
23
Fragment
F -36.631700 -11.903400 -7.691300
C -35.295500 -11.743100 -7.849600
H -35.180500 -10.132800 -6.674400
H -35.090100 -13.295600 -9.084900
C -34.692300 -10.707100 -7.219100
C -34.639100 -12.603600 -8.656300
C -33.344600 -10.522400 -7.402900
C -33.283600 -12.429100 -8.827800
H -32.914400 -9.812100 -6.984200
H -32.809400 -13.019600 -9.367500
C -32.619100 -11.388000 -8.207200
C -31.179400 -11.139400 -8.379400
H -30.665400 -12.011000 -10.163600
O -30.620000 -10.187600 -7.862700
H -30.533500 -13.000300 -8.953000
C -30.372600 -12.089100 -9.242300
N -28.959700 -11.808500 -9.165600
H -28.467700 -10.724400 -10.775900
N -28.245200 -12.197700 -8.077000
C -28.186600 -11.101800 -9.974100
C -27.064300 -11.690400 -8.340700
N -26.971500 -11.007500 -9.490300
H -26.340800 -11.796900 -7.767100
26
Fragment
H -37.234100 -15.281400 -10.548500
O -36.628500 -14.827800 -10.301200
H -36.022900 -15.281400 -10.054000
F -36.631700 -11.903400 -7.691300
C -35.295500 -11.743100 -7.849600
H -35.180500 -10.132800 -6.674400
H -35.090100 -13.295600 -9.084900
C -34.692300 -10.707100 -7.219100
C -34.639100 -12.603600 -8.656300
C -33.344600 -10.522400 -7.402900
C -33.283600 -12.429100 -8.827800
H -32.914400 -9.812100 -6.984200
H -32.809400 -13.019600 -9.367500
C -32.619100 -11.388000 -8.207200
C -31.179400 -11.139400 -8.379400
H -30.665400 -12.011000 -10.163600
O -30.620000 -10.187600 -7.862700
H -30.533500 -13.000300 -8.953000
C -30.372600 -12.089100 -9.242300
N -28.959700 -11.808500 -9.165600
H -28.467700 -10.724400 -10.775900
N -28.245200 -12.197700 -8.077000
C -28.186600 -11.101800 -9.974100
C -27.064300 -11.690400 -8.340700
N -26.971500 -11.007500 -9.490300
H -26.340800 -11.796900 -7.767100
