34
Fragment
H -11.233000 -19.806500 -22.769400
O -10.960500 -19.839600 -21.975300
H -9.654200 -18.561400 -19.870900
C -9.650900 -19.375400 -21.915800
H -9.535900 -18.538500 -22.450900
H -9.279700 -21.435800 -23.894500
N -9.180400 -21.354400 -18.954300
C -9.149000 -19.190900 -20.462500
N -9.113700 -20.607800 -20.082600
N -8.926200 -22.580400 -19.355200
C -8.782400 -21.386200 -21.117300
N -8.664800 -22.636400 -20.716300
C -8.562200 -20.432300 -22.269900
C -8.438700 -20.981700 -23.637500
H -8.398200 -20.144800 -25.320300
O -8.165500 -19.918400 -24.546000
H -7.733500 -14.665700 -24.377900
O -7.723100 -16.966500 -18.868300
H -7.705400 -21.646900 -23.668200
C -7.666900 -18.873000 -20.750300
C -7.577400 -16.578600 -20.029300
H -7.529700 -14.682200 -19.693100
O -7.524400 -13.512100 -21.810600
N -7.517200 -15.259700 -20.357500
N -7.472800 -17.446000 -21.086500
C -7.437500 -14.742000 -21.632900
O -7.345400 -19.692100 -21.884600
C -7.265000 -17.003400 -22.373300
C -7.218600 -15.701000 -22.680500
H -7.151300 -17.643100 -23.065200
H -7.099000 -19.126100 -19.966300
C -6.961100 -15.187200 -24.074000
H -6.818600 -15.943900 -24.680200
H -6.163800 -14.617400 -24.069100
34
Fragment
H -10.173700 -23.538100 -15.986300
H -9.518900 -22.211600 -16.597300
C -9.376400 -22.968300 -15.991100
H -9.238600 -19.029400 -11.883400
H -9.186300 -20.512400 -14.982400
C -9.119000 -22.454500 -14.597600
C -9.072600 -21.152100 -14.290500
O -8.992200 -18.463400 -13.801800
C -8.900000 -23.413500 -13.550100
N -8.864800 -20.709500 -13.003700
N -8.820300 -22.895800 -12.274600
O -8.813100 -24.643400 -13.727800
H -8.807900 -23.473300 -11.610200
C -8.760200 -21.576900 -11.946500
C -8.670700 -19.282500 -12.667400
H -8.632100 -16.508600 -15.585400
O -8.614500 -21.189000 -10.785400
H -8.604000 -23.489800 -16.295000
O -8.172000 -18.237100 -16.463100
H -7.939400 -18.010700 -17.237500
C -7.898900 -17.173800 -15.554600
C -7.775400 -17.723200 -14.187000
N -7.672800 -15.519100 -12.633500
C -7.555100 -16.769300 -13.034400
N -7.411400 -15.575100 -11.272300
N -7.223800 -17.547700 -11.999800
C -7.188500 -18.964600 -12.379700
N -7.157200 -16.801100 -10.871400
H -7.057800 -16.719700 -15.811700
H -6.801600 -19.617000 -14.368100
C -6.686600 -18.780100 -13.833000
H -6.683400 -19.594100 -11.788000
O -5.377000 -18.315900 -13.892500
H -5.104500 -18.349000 -14.686500
68
Fragment
H -11.233000 -19.806500 -22.769400
O -10.960500 -19.839600 -21.975300
H -9.654200 -18.561400 -19.870900
C -9.650900 -19.375400 -21.915800
H -9.535900 -18.538500 -22.450900
H -9.279700 -21.435800 -23.894500
N -9.180400 -21.354400 -18.954300
C -9.149000 -19.190900 -20.462500
N -9.113700 -20.607800 -20.082600
N -8.926200 -22.580400 -19.355200
C -8.782400 -21.386200 -21.117300
N -8.664800 -22.636400 -20.716300
C -8.562200 -20.432300 -22.269900
C -8.438700 -20.981700 -23.637500
H -8.398200 -20.144800 -25.320300
O -8.165500 -19.918400 -24.546000
H -7.733500 -14.665700 -24.377900
O -7.723100 -16.966500 -18.868300
H -7.705400 -21.646900 -23.668200
C -7.666900 -18.873000 -20.750300
C -7.577400 -16.578600 -20.029300
H -7.529700 -14.682200 -19.693100
O -7.524400 -13.512100 -21.810600
N -7.517200 -15.259700 -20.357500
N -7.472800 -17.446000 -21.086500
C -7.437500 -14.742000 -21.632900
O -7.345400 -19.692100 -21.884600
C -7.265000 -17.003400 -22.373300
C -7.218600 -15.701000 -22.680500
H -7.151300 -17.643100 -23.065200
H -7.099000 -19.126100 -19.966300
C -6.961100 -15.187200 -24.074000
H -6.818600 -15.943900 -24.680200
H -6.163800 -14.617400 -24.069100
H -10.173700 -23.538100 -15.986300
H -9.518900 -22.211600 -16.597300
C -9.376400 -22.968300 -15.991100
H -9.238600 -19.029400 -11.883400
H -9.186300 -20.512400 -14.982400
C -9.119000 -22.454500 -14.597600
C -9.072600 -21.152100 -14.290500
O -8.992200 -18.463400 -13.801800
C -8.900000 -23.413500 -13.550100
N -8.864800 -20.709500 -13.003700
N -8.820300 -22.895800 -12.274600
O -8.813100 -24.643400 -13.727800
H -8.807900 -23.473300 -11.610200
C -8.760200 -21.576900 -11.946500
C -8.670700 -19.282500 -12.667400
H -8.632100 -16.508600 -15.585400
O -8.614500 -21.189000 -10.785400
H -8.604000 -23.489800 -16.295000
O -8.172000 -18.237100 -16.463100
H -7.939400 -18.010700 -17.237500
C -7.898900 -17.173800 -15.554600
C -7.775400 -17.723200 -14.187000
N -7.672800 -15.519100 -12.633500
C -7.555100 -16.769300 -13.034400
N -7.411400 -15.575100 -11.272300
N -7.223800 -17.547700 -11.999800
C -7.188500 -18.964600 -12.379700
N -7.157200 -16.801100 -10.871400
H -7.057800 -16.719700 -15.811700
H -6.801600 -19.617000 -14.368100
C -6.686600 -18.780100 -13.833000
H -6.683400 -19.594100 -11.788000
O -5.377000 -18.315900 -13.892500
H -5.104500 -18.349000 -14.686500
