25
Fragment
H -22.069600 -14.087700 -23.514600
H -21.902800 -14.394800 -25.948300
H -21.440700 -12.082200 -24.919100
C -21.133500 -14.331000 -23.446000
H -21.080800 -15.299400 -23.419300
C -20.958600 -14.557400 -25.886200
H -20.947000 -13.065300 -21.904600
H -20.802300 -15.500100 -25.790500
N -20.594600 -13.793600 -22.196000
H -20.526300 -14.240500 -26.682200
C -20.515400 -12.326700 -24.844300
C -20.400000 -13.830100 -24.685200
H -20.131500 -11.893500 -24.077700
H -20.046700 -12.050900 -25.635100
C -19.627100 -14.311000 -21.476400
H -19.451600 -14.060500 -24.598000
N -19.264900 -13.699900 -20.354200
H -19.208000 -15.833900 -22.579500
N -19.032300 -15.470400 -21.876300
C -18.308200 -14.233500 -19.576200
C -18.102600 -16.094800 -21.106400
O -17.927200 -13.716200 -18.526100
N -17.745400 -15.442200 -19.976100
O -17.632400 -17.176800 -21.435600
H -17.165300 -15.856900 -19.478300
12
Fragment
H -18.299100 -16.233700 -16.957000
H -18.127700 -15.915400 -15.431500
H -18.043700 -18.373800 -17.604700
C -17.690900 -16.257200 -16.215100
C -17.525000 -18.588300 -16.863900
N -17.272400 -17.623000 -15.977100
O -17.116000 -19.740200 -16.763300
H -16.922000 -15.717700 -16.413700
H -16.762500 -17.444300 -14.077000
C -16.404200 -17.867800 -14.860300
H -16.335600 -18.813500 -14.709600
H -15.533500 -17.509800 -15.047800
37
Fragment
H -22.069600 -14.087700 -23.514600
H -21.902800 -14.394800 -25.948300
H -21.440700 -12.082200 -24.919100
C -21.133500 -14.331000 -23.446000
H -21.080800 -15.299400 -23.419300
C -20.958600 -14.557400 -25.886200
H -20.947000 -13.065300 -21.904600
H -20.802300 -15.500100 -25.790500
N -20.594600 -13.793600 -22.196000
H -20.526300 -14.240500 -26.682200
C -20.515400 -12.326700 -24.844300
C -20.400000 -13.830100 -24.685200
H -20.131500 -11.893500 -24.077700
H -20.046700 -12.050900 -25.635100
C -19.627100 -14.311000 -21.476400
H -19.451600 -14.060500 -24.598000
N -19.264900 -13.699900 -20.354200
H -19.208000 -15.833900 -22.579500
N -19.032300 -15.470400 -21.876300
C -18.308200 -14.233500 -19.576200
C -18.102600 -16.094800 -21.106400
O -17.927200 -13.716200 -18.526100
N -17.745400 -15.442200 -19.976100
O -17.632400 -17.176800 -21.435600
H -17.165300 -15.856900 -19.478300
H -18.299100 -16.233700 -16.957000
H -18.127700 -15.915400 -15.431500
H -18.043700 -18.373800 -17.604700
C -17.690900 -16.257200 -16.215100
C -17.525000 -18.588300 -16.863900
N -17.272400 -17.623000 -15.977100
O -17.116000 -19.740200 -16.763300
H -16.922000 -15.717700 -16.413700
H -16.762500 -17.444300 -14.077000
C -16.404200 -17.867800 -14.860300
H -16.335600 -18.813500 -14.709600
H -15.533500 -17.509800 -15.047800
