25
Fragment
H -22.069600 -14.087700 -23.514600
H -21.902800 -14.394800 -25.948300
H -21.440700 -12.082200 -24.919100
C -21.133500 -14.331000 -23.446000
H -21.080800 -15.299400 -23.419300
C -20.958600 -14.557400 -25.886200
H -20.947000 -13.065300 -21.904600
H -20.802300 -15.500100 -25.790500
N -20.594600 -13.793600 -22.196000
H -20.526300 -14.240500 -26.682200
C -20.515400 -12.326700 -24.844300
C -20.400000 -13.830100 -24.685200
H -20.131500 -11.893500 -24.077700
H -20.046700 -12.050900 -25.635100
C -19.627100 -14.311000 -21.476400
H -19.451600 -14.060500 -24.598000
N -19.264900 -13.699900 -20.354200
H -19.208000 -15.833900 -22.579500
N -19.032300 -15.470400 -21.876300
C -18.308200 -14.233500 -19.576200
C -18.102600 -16.094800 -21.106400
O -17.927200 -13.716200 -18.526100
N -17.745400 -15.442200 -19.976100
O -17.632400 -17.176800 -21.435600
H -17.165300 -15.856900 -19.478300
25
Fragment
H -22.682200 -12.464400 -34.046200
O -21.986200 -14.749700 -34.837800
N -21.952600 -12.893400 -33.522500
O -21.897500 -11.044700 -32.212600
C -21.499100 -14.122900 -33.897900
C -21.412900 -12.150800 -32.464200
N -20.488100 -14.592300 -33.143000
N -20.399200 -12.678900 -31.751500
H -20.174700 -15.375900 -33.308600
C -19.937300 -13.861200 -32.113300
H -19.489300 -14.128500 -28.911300
N -18.920700 -14.422500 -31.478100
H -18.692400 -15.222600 -31.695300
H -18.540700 -16.214400 -29.496500
C -18.522000 -14.215300 -29.039200
H -18.428000 -15.953400 -27.954800
H -18.338700 -12.797200 -30.498900
C -18.173400 -13.751200 -30.436100
C -18.130900 -15.667700 -28.821600
H -18.124500 -12.424500 -28.109000
H -17.997100 -13.645300 -27.133500
C -17.811000 -13.327200 -28.020400
H -17.226700 -13.896600 -30.587300
H -17.176100 -15.754300 -28.876900
H -16.864200 -13.354300 -28.177400
50
Fragment
H -22.069600 -14.087700 -23.514600
H -21.902800 -14.394800 -25.948300
H -21.440700 -12.082200 -24.919100
C -21.133500 -14.331000 -23.446000
H -21.080800 -15.299400 -23.419300
C -20.958600 -14.557400 -25.886200
H -20.947000 -13.065300 -21.904600
H -20.802300 -15.500100 -25.790500
N -20.594600 -13.793600 -22.196000
H -20.526300 -14.240500 -26.682200
C -20.515400 -12.326700 -24.844300
C -20.400000 -13.830100 -24.685200
H -20.131500 -11.893500 -24.077700
H -20.046700 -12.050900 -25.635100
C -19.627100 -14.311000 -21.476400
H -19.451600 -14.060500 -24.598000
N -19.264900 -13.699900 -20.354200
H -19.208000 -15.833900 -22.579500
N -19.032300 -15.470400 -21.876300
C -18.308200 -14.233500 -19.576200
C -18.102600 -16.094800 -21.106400
O -17.927200 -13.716200 -18.526100
N -17.745400 -15.442200 -19.976100
O -17.632400 -17.176800 -21.435600
H -17.165300 -15.856900 -19.478300
H -22.682200 -12.464400 -34.046200
O -21.986200 -14.749700 -34.837800
N -21.952600 -12.893400 -33.522500
O -21.897500 -11.044700 -32.212600
C -21.499100 -14.122900 -33.897900
C -21.412900 -12.150800 -32.464200
N -20.488100 -14.592300 -33.143000
N -20.399200 -12.678900 -31.751500
H -20.174700 -15.375900 -33.308600
C -19.937300 -13.861200 -32.113300
H -19.489300 -14.128500 -28.911300
N -18.920700 -14.422500 -31.478100
H -18.692400 -15.222600 -31.695300
H -18.540700 -16.214400 -29.496500
C -18.522000 -14.215300 -29.039200
H -18.428000 -15.953400 -27.954800
H -18.338700 -12.797200 -30.498900
C -18.173400 -13.751200 -30.436100
C -18.130900 -15.667700 -28.821600
H -18.124500 -12.424500 -28.109000
H -17.997100 -13.645300 -27.133500
C -17.811000 -13.327200 -28.020400
H -17.226700 -13.896600 -30.587300
H -17.176100 -15.754300 -28.876900
H -16.864200 -13.354300 -28.177400
