15
Fragment
O -5.649700 -15.633700 -16.582400
O -5.405700 -13.271400 -17.826000
H -5.357000 -16.060200 -17.244700
C -4.711300 -13.502600 -16.866400
N -4.708200 -14.699100 -16.181700
H -4.277800 -10.940100 -17.043000
O -4.022000 -16.097100 -14.507800
C -3.964200 -15.028900 -15.059300
N -3.824400 -12.579700 -16.334400
O -3.600600 -11.435200 -17.080700
N -3.150500 -13.987300 -14.644400
C -3.015100 -12.738900 -15.221700
H -2.620700 -13.998200 -12.877500
O -2.291400 -11.879600 -14.791300
O -2.284400 -14.266400 -13.598800
12
Fragment
H -1.011100 -10.122800 -16.919300
H -0.655900 -9.608100 -15.446400
C -0.342900 -10.147300 -16.202500
H -0.209900 -11.073100 -15.910700
H 0.071800 -7.916700 -17.374500
N 0.921300 -9.606300 -16.696200
C 0.965800 -8.205900 -17.097100
H 1.265600 -7.658800 -16.341500
H 1.590500 -8.099800 -17.844900
H 1.959000 -11.233600 -16.388100
C 2.024700 -10.325800 -16.660800
O 3.154000 -9.881400 -16.966000
27
Fragment
O -5.649700 -15.633700 -16.582400
O -5.405700 -13.271400 -17.826000
H -5.357000 -16.060200 -17.244700
C -4.711300 -13.502600 -16.866400
N -4.708200 -14.699100 -16.181700
H -4.277800 -10.940100 -17.043000
O -4.022000 -16.097100 -14.507800
C -3.964200 -15.028900 -15.059300
N -3.824400 -12.579700 -16.334400
O -3.600600 -11.435200 -17.080700
N -3.150500 -13.987300 -14.644400
C -3.015100 -12.738900 -15.221700
H -2.620700 -13.998200 -12.877500
O -2.291400 -11.879600 -14.791300
O -2.284400 -14.266400 -13.598800
H -1.011100 -10.122800 -16.919300
H -0.655900 -9.608100 -15.446400
C -0.342900 -10.147300 -16.202500
H -0.209900 -11.073100 -15.910700
H 0.071800 -7.916700 -17.374500
N 0.921300 -9.606300 -16.696200
C 0.965800 -8.205900 -17.097100
H 1.265600 -7.658800 -16.341500
H 1.590500 -8.099800 -17.844900
H 1.959000 -11.233600 -16.388100
C 2.024700 -10.325800 -16.660800
O 3.154000 -9.881400 -16.966000
