15
Fragment
O -5.649700 -15.633700 -16.582400
O -5.405700 -13.271400 -17.826000
H -5.357000 -16.060200 -17.244700
C -4.711300 -13.502600 -16.866400
N -4.708200 -14.699100 -16.181700
H -4.277800 -10.940100 -17.043000
O -4.022000 -16.097100 -14.507800
C -3.964200 -15.028900 -15.059300
N -3.824400 -12.579700 -16.334400
O -3.600600 -11.435200 -17.080700
N -3.150500 -13.987300 -14.644400
C -3.015100 -12.738900 -15.221700
H -2.620700 -13.998200 -12.877500
O -2.291400 -11.879600 -14.791300
O -2.284400 -14.266400 -13.598800
12
Fragment
H -2.573800 -10.780600 -11.468400
H -1.739000 -10.467800 -12.797500
C -1.713800 -10.465600 -11.817900
H -1.544700 -9.555000 -11.497800
H -1.296400 -12.007400 -9.579800
N -0.650800 -11.346900 -11.357600
C -0.514000 -11.529000 -9.924100
H -0.448100 -10.653400 -9.488600
H -0.033300 -11.848500 -13.141100
C 0.123300 -11.983200 -12.214100
H 0.296000 -12.048100 -9.737000
O 1.048000 -12.751100 -11.882400
27
Fragment
O -5.649700 -15.633700 -16.582400
O -5.405700 -13.271400 -17.826000
H -5.357000 -16.060200 -17.244700
C -4.711300 -13.502600 -16.866400
N -4.708200 -14.699100 -16.181700
H -4.277800 -10.940100 -17.043000
O -4.022000 -16.097100 -14.507800
C -3.964200 -15.028900 -15.059300
N -3.824400 -12.579700 -16.334400
O -3.600600 -11.435200 -17.080700
N -3.150500 -13.987300 -14.644400
C -3.015100 -12.738900 -15.221700
H -2.620700 -13.998200 -12.877500
O -2.291400 -11.879600 -14.791300
O -2.284400 -14.266400 -13.598800
H -2.573800 -10.780600 -11.468400
H -1.739000 -10.467800 -12.797500
C -1.713800 -10.465600 -11.817900
H -1.544700 -9.555000 -11.497800
H -1.296400 -12.007400 -9.579800
N -0.650800 -11.346900 -11.357600
C -0.514000 -11.529000 -9.924100
H -0.448100 -10.653400 -9.488600
H -0.033300 -11.848500 -13.141100
C 0.123300 -11.983200 -12.214100
H 0.296000 -12.048100 -9.737000
O 1.048000 -12.751100 -11.882400
