15
Fragment
O -5.649700 -15.633700 -16.582400
O -5.405700 -13.271400 -17.826000
H -5.357000 -16.060200 -17.244700
C -4.711300 -13.502600 -16.866400
N -4.708200 -14.699100 -16.181700
H -4.277800 -10.940100 -17.043000
O -4.022000 -16.097100 -14.507800
C -3.964200 -15.028900 -15.059300
N -3.824400 -12.579700 -16.334400
O -3.600600 -11.435200 -17.080700
N -3.150500 -13.987300 -14.644400
C -3.015100 -12.738900 -15.221700
H -2.620700 -13.998200 -12.877500
O -2.291400 -11.879600 -14.791300
O -2.284400 -14.266400 -13.598800
12
Fragment
O -7.568500 -9.056700 -13.446300
C -6.439200 -8.612300 -13.751400
H -6.373500 -7.704400 -14.024100
H -6.005000 -10.838200 -12.567300
H -5.680100 -11.279200 -14.070700
C -5.380300 -10.732100 -13.315100
N -5.335800 -9.331800 -13.716000
H -4.486300 -11.021400 -13.037700
H -4.204600 -7.865000 -14.501600
C -4.071600 -8.790800 -14.209700
H -3.758600 -9.329900 -14.965900
H -3.403500 -8.815300 -13.492900
27
Fragment
O -5.649700 -15.633700 -16.582400
O -5.405700 -13.271400 -17.826000
H -5.357000 -16.060200 -17.244700
C -4.711300 -13.502600 -16.866400
N -4.708200 -14.699100 -16.181700
H -4.277800 -10.940100 -17.043000
O -4.022000 -16.097100 -14.507800
C -3.964200 -15.028900 -15.059300
N -3.824400 -12.579700 -16.334400
O -3.600600 -11.435200 -17.080700
N -3.150500 -13.987300 -14.644400
C -3.015100 -12.738900 -15.221700
H -2.620700 -13.998200 -12.877500
O -2.291400 -11.879600 -14.791300
O -2.284400 -14.266400 -13.598800
O -7.568500 -9.056700 -13.446300
C -6.439200 -8.612300 -13.751400
H -6.373500 -7.704400 -14.024100
H -6.005000 -10.838200 -12.567300
H -5.680100 -11.279200 -14.070700
C -5.380300 -10.732100 -13.315100
N -5.335800 -9.331800 -13.716000
H -4.486300 -11.021400 -13.037700
H -4.204600 -7.865000 -14.501600
C -4.071600 -8.790800 -14.209700
H -3.758600 -9.329900 -14.965900
H -3.403500 -8.815300 -13.492900
