15
Fragment
O -5.649700 -15.633700 -16.582400
O -5.405700 -13.271400 -17.826000
H -5.357000 -16.060200 -17.244700
C -4.711300 -13.502600 -16.866400
N -4.708200 -14.699100 -16.181700
H -4.277800 -10.940100 -17.043000
O -4.022000 -16.097100 -14.507800
C -3.964200 -15.028900 -15.059300
N -3.824400 -12.579700 -16.334400
O -3.600600 -11.435200 -17.080700
N -3.150500 -13.987300 -14.644400
C -3.015100 -12.738900 -15.221700
H -2.620700 -13.998200 -12.877500
O -2.291400 -11.879600 -14.791300
O -2.284400 -14.266400 -13.598800
12
Fragment
O -4.396600 -16.707500 -18.529900
H -3.644600 -17.410500 -20.675200
C -3.472000 -17.475400 -18.198200
H -3.315300 -17.610100 -17.271100
H -2.900500 -18.805200 -20.923600
C -2.834700 -17.929600 -20.488100
N -2.697800 -18.111700 -19.054600
H -2.052200 -17.451200 -20.832400
H -1.803900 -19.903600 -18.914400
C -1.634900 -18.993000 -18.594300
H -1.609600 -18.990800 -17.614800
H -0.774900 -18.678000 -18.943800
27
Fragment
O -5.649700 -15.633700 -16.582400
O -5.405700 -13.271400 -17.826000
H -5.357000 -16.060200 -17.244700
C -4.711300 -13.502600 -16.866400
N -4.708200 -14.699100 -16.181700
H -4.277800 -10.940100 -17.043000
O -4.022000 -16.097100 -14.507800
C -3.964200 -15.028900 -15.059300
N -3.824400 -12.579700 -16.334400
O -3.600600 -11.435200 -17.080700
N -3.150500 -13.987300 -14.644400
C -3.015100 -12.738900 -15.221700
H -2.620700 -13.998200 -12.877500
O -2.291400 -11.879600 -14.791300
O -2.284400 -14.266400 -13.598800
O -4.396600 -16.707500 -18.529900
H -3.644600 -17.410500 -20.675200
C -3.472000 -17.475400 -18.198200
H -3.315300 -17.610100 -17.271100
H -2.900500 -18.805200 -20.923600
C -2.834700 -17.929600 -20.488100
N -2.697800 -18.111700 -19.054600
H -2.052200 -17.451200 -20.832400
H -1.803900 -19.903600 -18.914400
C -1.634900 -18.993000 -18.594300
H -1.609600 -18.990800 -17.614800
H -0.774900 -18.678000 -18.943800
