15
Fragment
O -5.649700 -15.633700 -16.582400
O -5.405700 -13.271400 -17.826000
H -5.357000 -16.060200 -17.244700
C -4.711300 -13.502600 -16.866400
N -4.708200 -14.699100 -16.181700
H -4.277800 -10.940100 -17.043000
O -4.022000 -16.097100 -14.507800
C -3.964200 -15.028900 -15.059300
N -3.824400 -12.579700 -16.334400
O -3.600600 -11.435200 -17.080700
N -3.150500 -13.987300 -14.644400
C -3.015100 -12.738900 -15.221700
H -2.620700 -13.998200 -12.877500
O -2.291400 -11.879600 -14.791300
O -2.284400 -14.266400 -13.598800
12
Fragment
H -3.272800 -13.344100 -19.552000
H -2.758600 -14.563200 -20.453200
C -2.527100 -13.958400 -19.717100
H -2.349700 -14.481800 -18.907300
H -1.545000 -11.636300 -18.826200
N -1.334300 -13.192800 -20.073100
H -1.134600 -13.952500 -21.860300
C -0.831600 -12.258700 -19.079300
C -0.761700 -13.325000 -21.252500
H -0.533600 -12.753000 -18.287900
H -0.078200 -11.757000 -19.453700
O 0.240200 -12.677800 -21.623400
27
Fragment
O -5.649700 -15.633700 -16.582400
O -5.405700 -13.271400 -17.826000
H -5.357000 -16.060200 -17.244700
C -4.711300 -13.502600 -16.866400
N -4.708200 -14.699100 -16.181700
H -4.277800 -10.940100 -17.043000
O -4.022000 -16.097100 -14.507800
C -3.964200 -15.028900 -15.059300
N -3.824400 -12.579700 -16.334400
O -3.600600 -11.435200 -17.080700
N -3.150500 -13.987300 -14.644400
C -3.015100 -12.738900 -15.221700
H -2.620700 -13.998200 -12.877500
O -2.291400 -11.879600 -14.791300
O -2.284400 -14.266400 -13.598800
H -3.272800 -13.344100 -19.552000
H -2.758600 -14.563200 -20.453200
C -2.527100 -13.958400 -19.717100
H -2.349700 -14.481800 -18.907300
H -1.545000 -11.636300 -18.826200
N -1.334300 -13.192800 -20.073100
H -1.134600 -13.952500 -21.860300
C -0.831600 -12.258700 -19.079300
C -0.761700 -13.325000 -21.252500
H -0.533600 -12.753000 -18.287900
H -0.078200 -11.757000 -19.453700
O 0.240200 -12.677800 -21.623400
