15
Fragment
O -5.649700 -15.633700 -16.582400
O -5.405700 -13.271400 -17.826000
H -5.357000 -16.060200 -17.244700
C -4.711300 -13.502600 -16.866400
N -4.708200 -14.699100 -16.181700
H -4.277800 -10.940100 -17.043000
O -4.022000 -16.097100 -14.507800
C -3.964200 -15.028900 -15.059300
N -3.824400 -12.579700 -16.334400
O -3.600600 -11.435200 -17.080700
N -3.150500 -13.987300 -14.644400
C -3.015100 -12.738900 -15.221700
H -2.620700 -13.998200 -12.877500
O -2.291400 -11.879600 -14.791300
O -2.284400 -14.266400 -13.598800
12
Fragment
H -6.953300 -14.045100 -9.414600
H -6.439100 -15.264200 -10.315800
C -6.207500 -14.659400 -9.579600
H -6.030100 -15.182800 -8.769900
H -5.225500 -12.337300 -8.688800
N -5.014800 -13.893800 -9.935700
H -4.815100 -14.653500 -11.722900
C -4.512100 -12.959700 -8.941900
C -4.442200 -14.026000 -11.115100
H -4.214100 -13.454000 -8.150500
H -3.758700 -12.458100 -9.316300
O -3.440200 -13.378800 -11.486000
27
Fragment
O -5.649700 -15.633700 -16.582400
O -5.405700 -13.271400 -17.826000
H -5.357000 -16.060200 -17.244700
C -4.711300 -13.502600 -16.866400
N -4.708200 -14.699100 -16.181700
H -4.277800 -10.940100 -17.043000
O -4.022000 -16.097100 -14.507800
C -3.964200 -15.028900 -15.059300
N -3.824400 -12.579700 -16.334400
O -3.600600 -11.435200 -17.080700
N -3.150500 -13.987300 -14.644400
C -3.015100 -12.738900 -15.221700
H -2.620700 -13.998200 -12.877500
O -2.291400 -11.879600 -14.791300
O -2.284400 -14.266400 -13.598800
H -6.953300 -14.045100 -9.414600
H -6.439100 -15.264200 -10.315800
C -6.207500 -14.659400 -9.579600
H -6.030100 -15.182800 -8.769900
H -5.225500 -12.337300 -8.688800
N -5.014800 -13.893800 -9.935700
H -4.815100 -14.653500 -11.722900
C -4.512100 -12.959700 -8.941900
C -4.442200 -14.026000 -11.115100
H -4.214100 -13.454000 -8.150500
H -3.758700 -12.458100 -9.316300
O -3.440200 -13.378800 -11.486000
