15
Fragment
O -5.649700 -15.633700 -16.582400
O -5.405700 -13.271400 -17.826000
H -5.357000 -16.060200 -17.244700
C -4.711300 -13.502600 -16.866400
N -4.708200 -14.699100 -16.181700
H -4.277800 -10.940100 -17.043000
O -4.022000 -16.097100 -14.507800
C -3.964200 -15.028900 -15.059300
N -3.824400 -12.579700 -16.334400
O -3.600600 -11.435200 -17.080700
N -3.150500 -13.987300 -14.644400
C -3.015100 -12.738900 -15.221700
H -2.620700 -13.998200 -12.877500
O -2.291400 -11.879600 -14.791300
O -2.284400 -14.266400 -13.598800
15
Fragment
O -1.064300 -15.192200 -16.813400
O -1.057300 -17.579000 -15.620900
H -0.728000 -15.460400 -17.534700
C -0.333600 -16.719700 -15.190500
N -0.198100 -15.471300 -15.767800
O 0.252000 -18.023400 -13.331500
N 0.475700 -16.878900 -14.077800
C 0.615500 -14.429700 -15.352900
O 0.673300 -13.361500 -15.904400
H 0.929100 -18.518500 -13.369200
N 1.359500 -14.759500 -14.230500
C 1.362600 -15.956000 -13.545800
H 2.008300 -13.398500 -13.167500
O 2.057000 -16.187200 -12.586200
O 2.301000 -13.824900 -13.829900
30
Fragment
O -5.649700 -15.633700 -16.582400
O -5.405700 -13.271400 -17.826000
H -5.357000 -16.060200 -17.244700
C -4.711300 -13.502600 -16.866400
N -4.708200 -14.699100 -16.181700
H -4.277800 -10.940100 -17.043000
O -4.022000 -16.097100 -14.507800
C -3.964200 -15.028900 -15.059300
N -3.824400 -12.579700 -16.334400
O -3.600600 -11.435200 -17.080700
N -3.150500 -13.987300 -14.644400
C -3.015100 -12.738900 -15.221700
H -2.620700 -13.998200 -12.877500
O -2.291400 -11.879600 -14.791300
O -2.284400 -14.266400 -13.598800
O -1.064300 -15.192200 -16.813400
O -1.057300 -17.579000 -15.620900
H -0.728000 -15.460400 -17.534700
C -0.333600 -16.719700 -15.190500
N -0.198100 -15.471300 -15.767800
O 0.252000 -18.023400 -13.331500
N 0.475700 -16.878900 -14.077800
C 0.615500 -14.429700 -15.352900
O 0.673300 -13.361500 -15.904400
H 0.929100 -18.518500 -13.369200
N 1.359500 -14.759500 -14.230500
C 1.362600 -15.956000 -13.545800
H 2.008300 -13.398500 -13.167500
O 2.057000 -16.187200 -12.586200
O 2.301000 -13.824900 -13.829900
