8
Fragment
O -9.214300 -73.391000 -9.562300
H -9.093900 -71.312700 -8.473400
C -8.548500 -73.049300 -8.609300
O -8.524500 -71.862300 -8.066300
O -7.617600 -75.224700 -8.440400
C -7.593600 -74.037700 -7.897300
H -7.048200 -75.774300 -8.033200
O -6.927800 -73.696000 -6.944300
26
Fragment
H -10.273400 -65.193900 -5.536900
H -10.117500 -65.576300 -7.081400
C -9.615400 -65.399300 -6.247200
H -9.186000 -67.669800 -7.571100
C -8.845100 -66.644100 -5.858800
C -8.760800 -67.719300 -6.723200
N -8.758800 -64.239800 -6.449700
H -8.689100 -63.267000 -4.632900
C -8.397000 -63.313100 -5.535800
H -8.266600 -65.997900 -4.007300
C -8.216500 -66.728000 -4.612500
N -8.169200 -64.029900 -7.645300
C -8.063300 -68.871000 -6.371600
H -8.014300 -69.596700 -6.979600
C -7.532600 -62.454100 -6.152600
C -7.519600 -67.873300 -4.257100
C -7.436100 -68.960300 -5.129200
C -7.424400 -62.937100 -7.455500
H -7.166800 -71.317600 -6.113000
H -7.100900 -61.698100 -5.777300
H -7.093500 -67.919900 -3.409200
H -6.886000 -62.536500 -8.127900
N -6.720700 -71.255800 -5.424600
C -6.683000 -70.169300 -4.674700
H -6.272700 -71.994200 -5.161100
O -6.044700 -70.120800 -3.601200
34
Fragment
O -9.214300 -73.391000 -9.562300
H -9.093900 -71.312700 -8.473400
C -8.548500 -73.049300 -8.609300
O -8.524500 -71.862300 -8.066300
O -7.617600 -75.224700 -8.440400
C -7.593600 -74.037700 -7.897300
H -7.048200 -75.774300 -8.033200
O -6.927800 -73.696000 -6.944300
H -10.273400 -65.193900 -5.536900
H -10.117500 -65.576300 -7.081400
C -9.615400 -65.399300 -6.247200
H -9.186000 -67.669800 -7.571100
C -8.845100 -66.644100 -5.858800
C -8.760800 -67.719300 -6.723200
N -8.758800 -64.239800 -6.449700
H -8.689100 -63.267000 -4.632900
C -8.397000 -63.313100 -5.535800
H -8.266600 -65.997900 -4.007300
C -8.216500 -66.728000 -4.612500
N -8.169200 -64.029900 -7.645300
C -8.063300 -68.871000 -6.371600
H -8.014300 -69.596700 -6.979600
C -7.532600 -62.454100 -6.152600
C -7.519600 -67.873300 -4.257100
C -7.436100 -68.960300 -5.129200
C -7.424400 -62.937100 -7.455500
H -7.166800 -71.317600 -6.113000
H -7.100900 -61.698100 -5.777300
H -7.093500 -67.919900 -3.409200
H -6.886000 -62.536500 -8.127900
N -6.720700 -71.255800 -5.424600
C -6.683000 -70.169300 -4.674700
H -6.272700 -71.994200 -5.161100
O -6.044700 -70.120800 -3.601200
