8
Fragment
O -9.214300 -73.391000 -9.562300
H -9.093900 -71.312700 -8.473400
C -8.548500 -73.049300 -8.609300
O -8.524500 -71.862300 -8.066300
O -7.617600 -75.224700 -8.440400
C -7.593600 -74.037700 -7.897300
H -7.048200 -75.774300 -8.033200
O -6.927800 -73.696000 -6.944300
26
Fragment
H -14.242200 -65.193900 -11.039100
H -14.086300 -65.576300 -12.583600
C -13.584200 -65.399300 -11.749400
H -13.154700 -67.669800 -13.073300
C -12.813900 -66.644100 -11.361000
C -12.729500 -67.719300 -12.225400
N -12.727600 -64.239800 -11.951900
H -12.657800 -63.267000 -10.135100
C -12.365700 -63.313100 -11.038000
H -12.235300 -65.997900 -9.509500
C -12.185200 -66.728000 -10.114700
N -12.137900 -64.029900 -13.147500
C -12.032000 -68.871000 -11.873800
H -11.983000 -69.596700 -12.481800
C -11.501300 -62.454100 -11.654800
C -11.488300 -67.873300 -9.759300
C -11.404900 -68.960300 -10.631400
C -11.393100 -62.937100 -12.957700
H -11.135500 -71.317600 -11.615200
H -11.069700 -61.698100 -11.279500
H -11.062200 -67.919900 -8.911400
H -10.854700 -62.536500 -13.630100
N -10.689500 -71.255800 -10.926900
C -10.651800 -70.169300 -10.176900
H -10.241400 -71.994200 -10.663300
O -10.013400 -70.120800 -9.103400
34
Fragment
O -9.214300 -73.391000 -9.562300
H -9.093900 -71.312700 -8.473400
C -8.548500 -73.049300 -8.609300
O -8.524500 -71.862300 -8.066300
O -7.617600 -75.224700 -8.440400
C -7.593600 -74.037700 -7.897300
H -7.048200 -75.774300 -8.033200
O -6.927800 -73.696000 -6.944300
H -14.242200 -65.193900 -11.039100
H -14.086300 -65.576300 -12.583600
C -13.584200 -65.399300 -11.749400
H -13.154700 -67.669800 -13.073300
C -12.813900 -66.644100 -11.361000
C -12.729500 -67.719300 -12.225400
N -12.727600 -64.239800 -11.951900
H -12.657800 -63.267000 -10.135100
C -12.365700 -63.313100 -11.038000
H -12.235300 -65.997900 -9.509500
C -12.185200 -66.728000 -10.114700
N -12.137900 -64.029900 -13.147500
C -12.032000 -68.871000 -11.873800
H -11.983000 -69.596700 -12.481800
C -11.501300 -62.454100 -11.654800
C -11.488300 -67.873300 -9.759300
C -11.404900 -68.960300 -10.631400
C -11.393100 -62.937100 -12.957700
H -11.135500 -71.317600 -11.615200
H -11.069700 -61.698100 -11.279500
H -11.062200 -67.919900 -8.911400
H -10.854700 -62.536500 -13.630100
N -10.689500 -71.255800 -10.926900
C -10.651800 -70.169300 -10.176900
H -10.241400 -71.994200 -10.663300
O -10.013400 -70.120800 -9.103400
