8
Fragment
O -9.214300 -73.391000 -9.562300
H -9.093900 -71.312700 -8.473400
C -8.548500 -73.049300 -8.609300
O -8.524500 -71.862300 -8.066300
O -7.617600 -75.224700 -8.440400
C -7.593600 -74.037700 -7.897300
H -7.048200 -75.774300 -8.033200
O -6.927800 -73.696000 -6.944300
26
Fragment
H -10.006300 -65.193900 -11.039100
H -9.850400 -65.576300 -12.583600
C -9.348300 -65.399300 -11.749400
H -8.918800 -67.669800 -13.073300
C -8.578000 -66.644100 -11.361000
C -8.493600 -67.719300 -12.225400
N -8.491700 -64.239800 -11.951900
H -8.421900 -63.267000 -10.135100
C -8.129800 -63.313100 -11.038000
H -7.999400 -65.997900 -9.509500
C -7.949300 -66.728000 -10.114700
N -7.902000 -64.029900 -13.147500
C -7.796100 -68.871000 -11.873800
H -7.747100 -69.596700 -12.481800
C -7.265400 -62.454100 -11.654800
C -7.252400 -67.873300 -9.759300
C -7.169000 -68.960300 -10.631400
C -7.157200 -62.937100 -12.957700
H -6.899600 -71.317600 -11.615200
H -6.833800 -61.698100 -11.279500
H -6.826300 -67.919900 -8.911400
H -6.618800 -62.536500 -13.630100
N -6.453600 -71.255800 -10.926900
C -6.415900 -70.169300 -10.176900
H -6.005500 -71.994200 -10.663300
O -5.777500 -70.120800 -9.103400
34
Fragment
O -9.214300 -73.391000 -9.562300
H -9.093900 -71.312700 -8.473400
C -8.548500 -73.049300 -8.609300
O -8.524500 -71.862300 -8.066300
O -7.617600 -75.224700 -8.440400
C -7.593600 -74.037700 -7.897300
H -7.048200 -75.774300 -8.033200
O -6.927800 -73.696000 -6.944300
H -10.006300 -65.193900 -11.039100
H -9.850400 -65.576300 -12.583600
C -9.348300 -65.399300 -11.749400
H -8.918800 -67.669800 -13.073300
C -8.578000 -66.644100 -11.361000
C -8.493600 -67.719300 -12.225400
N -8.491700 -64.239800 -11.951900
H -8.421900 -63.267000 -10.135100
C -8.129800 -63.313100 -11.038000
H -7.999400 -65.997900 -9.509500
C -7.949300 -66.728000 -10.114700
N -7.902000 -64.029900 -13.147500
C -7.796100 -68.871000 -11.873800
H -7.747100 -69.596700 -12.481800
C -7.265400 -62.454100 -11.654800
C -7.252400 -67.873300 -9.759300
C -7.169000 -68.960300 -10.631400
C -7.157200 -62.937100 -12.957700
H -6.899600 -71.317600 -11.615200
H -6.833800 -61.698100 -11.279500
H -6.826300 -67.919900 -8.911400
H -6.618800 -62.536500 -13.630100
N -6.453600 -71.255800 -10.926900
C -6.415900 -70.169300 -10.176900
H -6.005500 -71.994200 -10.663300
O -5.777500 -70.120800 -9.103400
