8
Fragment
O -9.214300 -73.391000 -9.562300
H -9.093900 -71.312700 -8.473400
C -8.548500 -73.049300 -8.609300
O -8.524500 -71.862300 -8.066300
O -7.617600 -75.224700 -8.440400
C -7.593600 -74.037700 -7.897300
H -7.048200 -75.774300 -8.033200
O -6.927800 -73.696000 -6.944300
8
Fragment
O -13.183000 -73.391000 -15.064500
H -13.062600 -71.312700 -13.975600
C -12.517200 -73.049300 -14.111500
O -12.493200 -71.862300 -13.568500
O -11.586300 -75.224700 -13.942600
C -11.562300 -74.037700 -13.399500
H -11.016900 -75.774300 -13.535500
O -10.896500 -73.696000 -12.446600
16
Fragment
O -9.214300 -73.391000 -9.562300
H -9.093900 -71.312700 -8.473400
C -8.548500 -73.049300 -8.609300
O -8.524500 -71.862300 -8.066300
O -7.617600 -75.224700 -8.440400
C -7.593600 -74.037700 -7.897300
H -7.048200 -75.774300 -8.033200
O -6.927800 -73.696000 -6.944300
O -13.183000 -73.391000 -15.064500
H -13.062600 -71.312700 -13.975600
C -12.517200 -73.049300 -14.111500
O -12.493200 -71.862300 -13.568500
O -11.586300 -75.224700 -13.942600
C -11.562300 -74.037700 -13.399500
H -11.016900 -75.774300 -13.535500
O -10.896500 -73.696000 -12.446600
