8
Fragment
O -9.214300 -73.391000 -9.562300
H -9.093900 -71.312700 -8.473400
C -8.548500 -73.049300 -8.609300
O -8.524500 -71.862300 -8.066300
O -7.617600 -75.224700 -8.440400
C -7.593600 -74.037700 -7.897300
H -7.048200 -75.774300 -8.033200
O -6.927800 -73.696000 -6.944300
8
Fragment
O -13.450200 -73.391000 -9.562300
H -13.329800 -71.312700 -8.473400
C -12.784400 -73.049300 -8.609300
O -12.760400 -71.862300 -8.066300
O -11.853500 -75.224700 -8.440400
C -11.829500 -74.037700 -7.897300
H -11.284100 -75.774300 -8.033200
O -11.163700 -73.696000 -6.944300
16
Fragment
O -9.214300 -73.391000 -9.562300
H -9.093900 -71.312700 -8.473400
C -8.548500 -73.049300 -8.609300
O -8.524500 -71.862300 -8.066300
O -7.617600 -75.224700 -8.440400
C -7.593600 -74.037700 -7.897300
H -7.048200 -75.774300 -8.033200
O -6.927800 -73.696000 -6.944300
O -13.450200 -73.391000 -9.562300
H -13.329800 -71.312700 -8.473400
C -12.784400 -73.049300 -8.609300
O -12.760400 -71.862300 -8.066300
O -11.853500 -75.224700 -8.440400
C -11.829500 -74.037700 -7.897300
H -11.284100 -75.774300 -8.033200
O -11.163700 -73.696000 -6.944300
