8
Fragment
O -9.214300 -73.391000 -9.562300
H -9.093900 -71.312700 -8.473400
C -8.548500 -73.049300 -8.609300
O -8.524500 -71.862300 -8.066300
O -7.617600 -75.224700 -8.440400
C -7.593600 -74.037700 -7.897300
H -7.048200 -75.774300 -8.033200
O -6.927800 -73.696000 -6.944300
26
Fragment
O -10.364500 -76.966200 -7.403200
H -10.136600 -75.092800 -5.843400
C -9.726200 -76.917700 -6.329800
N -9.688500 -75.831200 -5.579800
H -9.523300 -84.550500 -2.876600
H -9.315700 -79.167100 -7.595300
H -9.308300 -85.388900 -5.227100
H -9.242400 -75.769400 -4.891500
C -8.984800 -84.149900 -3.548900
C -8.973100 -78.126700 -5.875300
C -8.889700 -79.213700 -6.747400
C -8.876700 -84.632900 -4.851900
H -8.395000 -77.490300 -4.024900
C -8.346000 -78.216000 -4.632900
N -8.240100 -83.057100 -3.359100
C -8.192800 -80.359000 -6.391900
H -8.142600 -81.089100 -6.997200
C -8.012200 -83.773900 -5.468700
H -7.720200 -83.820000 -6.371600
N -7.650400 -82.847200 -4.554700
C -7.648400 -79.367700 -4.281300
C -7.564100 -80.442900 -5.145700
H -7.223200 -79.417200 -3.433400
C -6.793800 -81.687700 -4.757200
H -6.291700 -81.510700 -3.923100
H -6.135800 -81.893100 -5.467600
34
Fragment
O -9.214300 -73.391000 -9.562300
H -9.093900 -71.312700 -8.473400
C -8.548500 -73.049300 -8.609300
O -8.524500 -71.862300 -8.066300
O -7.617600 -75.224700 -8.440400
C -7.593600 -74.037700 -7.897300
H -7.048200 -75.774300 -8.033200
O -6.927800 -73.696000 -6.944300
O -10.364500 -76.966200 -7.403200
H -10.136600 -75.092800 -5.843400
C -9.726200 -76.917700 -6.329800
N -9.688500 -75.831200 -5.579800
H -9.523300 -84.550500 -2.876600
H -9.315700 -79.167100 -7.595300
H -9.308300 -85.388900 -5.227100
H -9.242400 -75.769400 -4.891500
C -8.984800 -84.149900 -3.548900
C -8.973100 -78.126700 -5.875300
C -8.889700 -79.213700 -6.747400
C -8.876700 -84.632900 -4.851900
H -8.395000 -77.490300 -4.024900
C -8.346000 -78.216000 -4.632900
N -8.240100 -83.057100 -3.359100
C -8.192800 -80.359000 -6.391900
H -8.142600 -81.089100 -6.997200
C -8.012200 -83.773900 -5.468700
H -7.720200 -83.820000 -6.371600
N -7.650400 -82.847200 -4.554700
C -7.648400 -79.367700 -4.281300
C -7.564100 -80.442900 -5.145700
H -7.223200 -79.417200 -3.433400
C -6.793800 -81.687700 -4.757200
H -6.291700 -81.510700 -3.923100
H -6.135800 -81.893100 -5.467600
