26
Fragment
H -10.618200 -12.500100 -29.172800
H -10.563500 -11.205500 -28.261600
N -10.179700 -11.970600 -28.523000
H -9.930300 -14.460400 -29.344800
C -9.046100 -12.318700 -27.929400
C -9.042500 -14.597100 -29.036900
H -8.863300 -16.482800 -29.760900
O -8.530500 -11.626600 -27.035000
C -8.405800 -15.797400 -29.287400
C -8.390000 -13.588500 -28.336000
C -7.107500 -16.011700 -28.855500
C -7.074800 -13.794000 -27.926600
H -7.031700 -17.946400 -29.562500
H -6.608800 -13.108000 -27.462700
C -6.448900 -14.991400 -28.193400
C -6.429500 -17.348800 -29.052000
H -6.266900 -17.763500 -28.168500
H -5.549100 -15.119400 -27.917400
N -5.174200 -17.224400 -29.757100
N -5.169500 -17.005700 -31.086000
C -3.934700 -17.172500 -29.240200
C -3.886800 -16.846300 -31.391600
H -3.701100 -17.277800 -28.324800
H -3.561600 -16.686800 -32.269800
C -3.080400 -16.942800 -30.265000
H -2.134500 -16.864600 -30.222700
26
Fragment
H -1.081900 -12.500100 -29.172800
H -1.027200 -11.205500 -28.261600
N -0.643400 -11.970600 -28.523000
H -0.394000 -14.460400 -29.344800
C 0.490200 -12.318700 -27.929400
C 0.493800 -14.597100 -29.036900
H 0.673000 -16.482800 -29.760900
O 1.005800 -11.626600 -27.035000
C 1.130500 -15.797400 -29.287400
C 1.146300 -13.588500 -28.336000
C 2.428800 -16.011700 -28.855500
C 2.461500 -13.794000 -27.926600
H 2.504600 -17.946400 -29.562500
H 2.927500 -13.108000 -27.462700
C 3.087400 -14.991400 -28.193400
C 3.106800 -17.348800 -29.052000
H 3.269400 -17.763500 -28.168500
H 3.987200 -15.119400 -27.917400
N 4.362100 -17.224400 -29.757100
N 4.366800 -17.005700 -31.086000
C 5.601600 -17.172500 -29.240200
C 5.649500 -16.846300 -31.391600
H 5.835200 -17.277800 -28.324800
H 5.974700 -16.686800 -32.269800
C 6.455900 -16.942800 -30.265000
H 7.401800 -16.864600 -30.222700
52
Fragment
H -10.618200 -12.500100 -29.172800
H -10.563500 -11.205500 -28.261600
N -10.179700 -11.970600 -28.523000
H -9.930300 -14.460400 -29.344800
C -9.046100 -12.318700 -27.929400
C -9.042500 -14.597100 -29.036900
H -8.863300 -16.482800 -29.760900
O -8.530500 -11.626600 -27.035000
C -8.405800 -15.797400 -29.287400
C -8.390000 -13.588500 -28.336000
C -7.107500 -16.011700 -28.855500
C -7.074800 -13.794000 -27.926600
H -7.031700 -17.946400 -29.562500
H -6.608800 -13.108000 -27.462700
C -6.448900 -14.991400 -28.193400
C -6.429500 -17.348800 -29.052000
H -6.266900 -17.763500 -28.168500
H -5.549100 -15.119400 -27.917400
N -5.174200 -17.224400 -29.757100
N -5.169500 -17.005700 -31.086000
C -3.934700 -17.172500 -29.240200
C -3.886800 -16.846300 -31.391600
H -3.701100 -17.277800 -28.324800
H -3.561600 -16.686800 -32.269800
C -3.080400 -16.942800 -30.265000
H -2.134500 -16.864600 -30.222700
H -1.081900 -12.500100 -29.172800
H -1.027200 -11.205500 -28.261600
N -0.643400 -11.970600 -28.523000
H -0.394000 -14.460400 -29.344800
C 0.490200 -12.318700 -27.929400
C 0.493800 -14.597100 -29.036900
H 0.673000 -16.482800 -29.760900
O 1.005800 -11.626600 -27.035000
C 1.130500 -15.797400 -29.287400
C 1.146300 -13.588500 -28.336000
C 2.428800 -16.011700 -28.855500
C 2.461500 -13.794000 -27.926600
H 2.504600 -17.946400 -29.562500
H 2.927500 -13.108000 -27.462700
C 3.087400 -14.991400 -28.193400
C 3.106800 -17.348800 -29.052000
H 3.269400 -17.763500 -28.168500
H 3.987200 -15.119400 -27.917400
N 4.362100 -17.224400 -29.757100
N 4.366800 -17.005700 -31.086000
C 5.601600 -17.172500 -29.240200
C 5.649500 -16.846300 -31.391600
H 5.835200 -17.277800 -28.324800
H 5.974700 -16.686800 -32.269800
C 6.455900 -16.942800 -30.265000
H 7.401800 -16.864600 -30.222700
