26
Fragment
H -7.005900 -6.623200 -30.584300
H -6.895800 -6.948100 -21.118300
O -6.872900 -8.901300 -22.511700
N -6.364900 -6.806800 -21.852100
C -6.295200 -7.812300 -22.714700
C -6.249300 -6.445800 -30.037600
H -6.059900 -4.374600 -30.011600
H -6.038300 -6.050300 -22.006500
H -5.859900 -9.508600 -24.647700
C -5.710000 -5.204200 -29.708300
H -5.544000 -8.300600 -29.407300
C -5.516200 -7.614100 -23.977000
C -5.449700 -8.680400 -24.870300
C -5.445200 -7.356200 -29.398000
H -4.910700 -5.682200 -23.694800
C -4.888100 -6.409800 -24.305400
C -4.789600 -8.542000 -26.080900
H -4.747800 -9.275600 -26.683000
N -4.643600 -5.320100 -28.918400
N -4.487700 -6.655600 -28.751900
C -4.233100 -6.275600 -25.518500
C -4.187200 -7.333200 -26.421400
H -3.811300 -5.453000 -25.736800
C -3.532000 -7.161100 -27.767400
H -3.173200 -8.031900 -28.072500
H -2.775000 -6.528000 -27.687400
26
Fragment
O -2.998900 -8.744100 -21.971500
H -2.884900 -6.898000 -20.482500
H -2.384800 -9.046000 -24.324000
N -2.326900 -6.744500 -21.186200
C -2.313100 -7.707900 -22.097600
H -1.881600 -6.005300 -21.244500
C -1.698600 -8.392000 -24.389600
C -1.460200 -7.539800 -23.318500
H -1.356800 -6.856600 -30.811700
H -1.128900 -8.894100 -26.273000
H -1.048300 -4.587600 -29.805700
C -0.952100 -8.302900 -25.550500
C -0.925500 -6.651900 -29.990100
C -0.747000 -5.400100 -29.416200
C -0.453600 -6.583800 -23.426400
C -0.339500 -7.530800 -29.108000
H -0.285400 -8.474400 -29.203100
H -0.278100 -5.993900 -22.702100
N -0.100400 -5.476000 -28.248300
C 0.059400 -7.348800 -25.664000
N 0.142000 -6.798400 -28.085800
C 0.295400 -6.492700 -24.596300
C 0.895300 -7.270300 -26.926100
H 0.978200 -5.835500 -24.666000
H 1.262300 -8.167900 -27.124600
H 1.658900 -6.660600 -26.767700
52
Fragment
H -7.005900 -6.623200 -30.584300
H -6.895800 -6.948100 -21.118300
O -6.872900 -8.901300 -22.511700
N -6.364900 -6.806800 -21.852100
C -6.295200 -7.812300 -22.714700
C -6.249300 -6.445800 -30.037600
H -6.059900 -4.374600 -30.011600
H -6.038300 -6.050300 -22.006500
H -5.859900 -9.508600 -24.647700
C -5.710000 -5.204200 -29.708300
H -5.544000 -8.300600 -29.407300
C -5.516200 -7.614100 -23.977000
C -5.449700 -8.680400 -24.870300
C -5.445200 -7.356200 -29.398000
H -4.910700 -5.682200 -23.694800
C -4.888100 -6.409800 -24.305400
C -4.789600 -8.542000 -26.080900
H -4.747800 -9.275600 -26.683000
N -4.643600 -5.320100 -28.918400
N -4.487700 -6.655600 -28.751900
C -4.233100 -6.275600 -25.518500
C -4.187200 -7.333200 -26.421400
H -3.811300 -5.453000 -25.736800
C -3.532000 -7.161100 -27.767400
H -3.173200 -8.031900 -28.072500
H -2.775000 -6.528000 -27.687400
O -2.998900 -8.744100 -21.971500
H -2.884900 -6.898000 -20.482500
H -2.384800 -9.046000 -24.324000
N -2.326900 -6.744500 -21.186200
C -2.313100 -7.707900 -22.097600
H -1.881600 -6.005300 -21.244500
C -1.698600 -8.392000 -24.389600
C -1.460200 -7.539800 -23.318500
H -1.356800 -6.856600 -30.811700
H -1.128900 -8.894100 -26.273000
H -1.048300 -4.587600 -29.805700
C -0.952100 -8.302900 -25.550500
C -0.925500 -6.651900 -29.990100
C -0.747000 -5.400100 -29.416200
C -0.453600 -6.583800 -23.426400
C -0.339500 -7.530800 -29.108000
H -0.285400 -8.474400 -29.203100
H -0.278100 -5.993900 -22.702100
N -0.100400 -5.476000 -28.248300
C 0.059400 -7.348800 -25.664000
N 0.142000 -6.798400 -28.085800
C 0.295400 -6.492700 -24.596300
C 0.895300 -7.270300 -26.926100
H 0.978200 -5.835500 -24.666000
H 1.262300 -8.167900 -27.124600
H 1.658900 -6.660600 -26.767700
