26
Fragment
H -7.005900 -6.623200 -30.584300
H -6.895800 -6.948100 -21.118300
O -6.872900 -8.901300 -22.511700
N -6.364900 -6.806800 -21.852100
C -6.295200 -7.812300 -22.714700
C -6.249300 -6.445800 -30.037600
H -6.059900 -4.374600 -30.011600
H -6.038300 -6.050300 -22.006500
H -5.859900 -9.508600 -24.647700
C -5.710000 -5.204200 -29.708300
H -5.544000 -8.300600 -29.407300
C -5.516200 -7.614100 -23.977000
C -5.449700 -8.680400 -24.870300
C -5.445200 -7.356200 -29.398000
H -4.910700 -5.682200 -23.694800
C -4.888100 -6.409800 -24.305400
C -4.789600 -8.542000 -26.080900
H -4.747800 -9.275600 -26.683000
N -4.643600 -5.320100 -28.918400
N -4.487700 -6.655600 -28.751900
C -4.233100 -6.275600 -25.518500
C -4.187200 -7.333200 -26.421400
H -3.811300 -5.453000 -25.736800
C -3.532000 -7.161100 -27.767400
H -3.173200 -8.031900 -28.072500
H -2.775000 -6.528000 -27.687400
26
Fragment
H -7.151500 -2.816900 -23.035800
H -6.754900 -1.309600 -22.678800
H -6.470900 -3.642100 -25.137500
C -6.387900 -2.207200 -22.877400
C -5.788100 -2.984800 -25.207200
N -5.634700 -2.679200 -21.717600
C -5.552000 -2.128800 -24.139400
N -5.392200 -4.001500 -21.555100
H -5.214600 -3.483600 -27.101400
H -5.207300 -1.003200 -20.600400
C -5.153100 -1.946700 -20.695500
C -5.039100 -2.893700 -26.377100
C -4.745600 -4.077500 -20.387200
C -4.567100 -2.825700 -19.813300
C -4.540600 -1.174700 -24.253000
H -4.444400 -4.889900 -19.997700
H -4.363800 -0.583400 -23.530500
H -4.135900 -2.620900 -18.991700
C -4.032400 -1.937800 -26.485000
C -3.794000 -1.085500 -25.413900
H -3.611000 -3.472300 -28.559000
C -3.179600 -1.769700 -27.705800
N -3.165700 -2.733100 -28.617200
H -3.107800 -0.431600 -25.479400
H -2.607800 -2.579600 -29.320900
O -2.493700 -0.733500 -27.832000
52
Fragment
H -7.005900 -6.623200 -30.584300
H -6.895800 -6.948100 -21.118300
O -6.872900 -8.901300 -22.511700
N -6.364900 -6.806800 -21.852100
C -6.295200 -7.812300 -22.714700
C -6.249300 -6.445800 -30.037600
H -6.059900 -4.374600 -30.011600
H -6.038300 -6.050300 -22.006500
H -5.859900 -9.508600 -24.647700
C -5.710000 -5.204200 -29.708300
H -5.544000 -8.300600 -29.407300
C -5.516200 -7.614100 -23.977000
C -5.449700 -8.680400 -24.870300
C -5.445200 -7.356200 -29.398000
H -4.910700 -5.682200 -23.694800
C -4.888100 -6.409800 -24.305400
C -4.789600 -8.542000 -26.080900
H -4.747800 -9.275600 -26.683000
N -4.643600 -5.320100 -28.918400
N -4.487700 -6.655600 -28.751900
C -4.233100 -6.275600 -25.518500
C -4.187200 -7.333200 -26.421400
H -3.811300 -5.453000 -25.736800
C -3.532000 -7.161100 -27.767400
H -3.173200 -8.031900 -28.072500
H -2.775000 -6.528000 -27.687400
H -7.151500 -2.816900 -23.035800
H -6.754900 -1.309600 -22.678800
H -6.470900 -3.642100 -25.137500
C -6.387900 -2.207200 -22.877400
C -5.788100 -2.984800 -25.207200
N -5.634700 -2.679200 -21.717600
C -5.552000 -2.128800 -24.139400
N -5.392200 -4.001500 -21.555100
H -5.214600 -3.483600 -27.101400
H -5.207300 -1.003200 -20.600400
C -5.153100 -1.946700 -20.695500
C -5.039100 -2.893700 -26.377100
C -4.745600 -4.077500 -20.387200
C -4.567100 -2.825700 -19.813300
C -4.540600 -1.174700 -24.253000
H -4.444400 -4.889900 -19.997700
H -4.363800 -0.583400 -23.530500
H -4.135900 -2.620900 -18.991700
C -4.032400 -1.937800 -26.485000
C -3.794000 -1.085500 -25.413900
H -3.611000 -3.472300 -28.559000
C -3.179600 -1.769700 -27.705800
N -3.165700 -2.733100 -28.617200
H -3.107800 -0.431600 -25.479400
H -2.607800 -2.579600 -29.320900
O -2.493700 -0.733500 -27.832000
