26
Fragment
H -7.005900 -6.623200 -30.584300
H -6.895800 -6.948100 -21.118300
O -6.872900 -8.901300 -22.511700
N -6.364900 -6.806800 -21.852100
C -6.295200 -7.812300 -22.714700
C -6.249300 -6.445800 -30.037600
H -6.059900 -4.374600 -30.011600
H -6.038300 -6.050300 -22.006500
H -5.859900 -9.508600 -24.647700
C -5.710000 -5.204200 -29.708300
H -5.544000 -8.300600 -29.407300
C -5.516200 -7.614100 -23.977000
C -5.449700 -8.680400 -24.870300
C -5.445200 -7.356200 -29.398000
H -4.910700 -5.682200 -23.694800
C -4.888100 -6.409800 -24.305400
C -4.789600 -8.542000 -26.080900
H -4.747800 -9.275600 -26.683000
N -4.643600 -5.320100 -28.918400
N -4.487700 -6.655600 -28.751900
C -4.233100 -6.275600 -25.518500
C -4.187200 -7.333200 -26.421400
H -3.811300 -5.453000 -25.736800
C -3.532000 -7.161100 -27.767400
H -3.173200 -8.031900 -28.072500
H -2.775000 -6.528000 -27.687400
26
Fragment
H -10.956800 -13.474100 -22.116100
H -10.558500 -11.970200 -21.730900
C -10.199800 -12.841000 -22.036000
H -9.920500 -14.549000 -24.066700
C -9.544600 -12.668900 -23.382100
C -9.498600 -13.726500 -24.285000
N -9.244100 -13.346400 -21.051600
N -9.088100 -14.681900 -20.885100
H -8.984000 -10.726400 -23.120400
C -8.942100 -11.460100 -23.722500
C -8.843700 -13.592300 -25.498000
H -8.821000 -14.319800 -26.108600
C -8.286600 -12.645900 -20.405500
C -8.282000 -11.321600 -24.933100
C -8.215500 -12.388000 -25.826400
H -8.187800 -11.701400 -20.396200
C -8.021800 -14.797900 -20.095200
H -7.871900 -10.493500 -25.155700
H -7.693500 -13.951800 -27.797000
H -7.671900 -15.627500 -19.791900
C -7.482500 -13.556200 -19.765800
C -7.436600 -12.189800 -27.088800
N -7.366900 -13.195300 -27.951400
O -6.858900 -11.100800 -27.291800
H -6.836000 -13.053900 -28.685100
H -6.725900 -13.378900 -19.219100
52
Fragment
H -7.005900 -6.623200 -30.584300
H -6.895800 -6.948100 -21.118300
O -6.872900 -8.901300 -22.511700
N -6.364900 -6.806800 -21.852100
C -6.295200 -7.812300 -22.714700
C -6.249300 -6.445800 -30.037600
H -6.059900 -4.374600 -30.011600
H -6.038300 -6.050300 -22.006500
H -5.859900 -9.508600 -24.647700
C -5.710000 -5.204200 -29.708300
H -5.544000 -8.300600 -29.407300
C -5.516200 -7.614100 -23.977000
C -5.449700 -8.680400 -24.870300
C -5.445200 -7.356200 -29.398000
H -4.910700 -5.682200 -23.694800
C -4.888100 -6.409800 -24.305400
C -4.789600 -8.542000 -26.080900
H -4.747800 -9.275600 -26.683000
N -4.643600 -5.320100 -28.918400
N -4.487700 -6.655600 -28.751900
C -4.233100 -6.275600 -25.518500
C -4.187200 -7.333200 -26.421400
H -3.811300 -5.453000 -25.736800
C -3.532000 -7.161100 -27.767400
H -3.173200 -8.031900 -28.072500
H -2.775000 -6.528000 -27.687400
H -10.956800 -13.474100 -22.116100
H -10.558500 -11.970200 -21.730900
C -10.199800 -12.841000 -22.036000
H -9.920500 -14.549000 -24.066700
C -9.544600 -12.668900 -23.382100
C -9.498600 -13.726500 -24.285000
N -9.244100 -13.346400 -21.051600
N -9.088100 -14.681900 -20.885100
H -8.984000 -10.726400 -23.120400
C -8.942100 -11.460100 -23.722500
C -8.843700 -13.592300 -25.498000
H -8.821000 -14.319800 -26.108600
C -8.286600 -12.645900 -20.405500
C -8.282000 -11.321600 -24.933100
C -8.215500 -12.388000 -25.826400
H -8.187800 -11.701400 -20.396200
C -8.021800 -14.797900 -20.095200
H -7.871900 -10.493500 -25.155700
H -7.693500 -13.951800 -27.797000
H -7.671900 -15.627500 -19.791900
C -7.482500 -13.556200 -19.765800
C -7.436600 -12.189800 -27.088800
N -7.366900 -13.195300 -27.951400
O -6.858900 -11.100800 -27.291800
H -6.836000 -13.053900 -28.685100
H -6.725900 -13.378900 -19.219100
