41
Fragment
H -6.270400 -22.234400 -27.401500
H -5.731400 -26.757400 -22.485400
N -5.414500 -27.922300 -20.935900
H -5.341700 -29.798700 -19.355200
C -5.316500 -21.973800 -27.462100
H -5.289100 -23.602600 -25.307800
C -5.280600 -26.800200 -21.649800
H -5.258400 -21.122600 -27.964400
H -5.011700 -23.209200 -28.819100
N -4.861900 -29.129800 -19.045800
C -4.842500 -22.787100 -25.111800
C -4.759200 -27.981900 -19.758900
C -4.747800 -21.789700 -26.077700
O -4.592500 -22.972800 -28.130700
C -4.533700 -25.687400 -21.268500
H -4.448300 -29.206300 -18.272400
C -4.438100 -24.553700 -22.122600
C -4.365300 -23.612000 -22.859900
C -4.276800 -22.579100 -23.855000
C -4.082000 -20.622600 -25.732100
H -4.006900 -19.914500 -26.360200
C -3.978000 -26.898900 -19.269500
C -3.869100 -25.761800 -20.025900
N -3.616900 -21.444200 -23.513900
H -3.537300 -26.962700 -18.430300
C -3.521200 -20.491200 -24.459100
H -3.350600 -25.028400 -19.715600
C -2.781400 -19.299100 -24.157300
C -2.152400 -18.285200 -24.031500
H -1.677700 -16.290200 -25.747900
C -1.426800 -17.072600 -23.855300
C -1.300200 -16.119600 -24.893700
H -0.873500 -17.420500 -21.946400
C -0.815900 -16.776400 -22.642100
C -0.631100 -14.950300 -24.657500
H -0.548400 -14.296800 -25.342900
N -0.150800 -15.640200 -22.389800
C -0.060300 -14.722600 -23.377100
N 0.581900 -13.569300 -23.106000
H 0.657900 -12.951900 -23.727500
H 0.925300 -13.433900 -22.306800
41
Fragment
H -4.557200 -16.636900 -35.374500
H -4.018200 -12.113800 -30.458300
N -3.701300 -10.948900 -28.908900
H -3.628500 -9.072500 -27.328100
C -3.603300 -16.897500 -35.435100
H -3.575900 -15.268600 -33.280800
C -3.567400 -12.071100 -29.622800
H -3.545200 -17.748600 -35.937400
H -3.298500 -15.662000 -36.792100
N -3.148700 -9.741400 -27.018800
C -3.129300 -16.084100 -33.084800
C -3.046000 -10.889400 -27.731900
C -3.034600 -17.081600 -34.050600
O -2.879300 -15.898500 -36.103700
C -2.820500 -13.183900 -29.241500
H -2.735100 -9.664900 -26.245400
C -2.724900 -14.317500 -30.095600
C -2.652100 -15.259300 -30.832900
C -2.563600 -16.292200 -31.827900
C -2.368800 -18.248700 -33.705100
H -2.293700 -18.956700 -34.333200
C -2.264800 -11.972300 -27.242500
C -2.156000 -13.109400 -27.998800
N -1.903700 -17.427100 -31.486800
H -1.824100 -11.908600 -26.403300
C -1.808000 -18.380000 -32.432100
H -1.637400 -13.842800 -27.688500
C -1.068200 -19.572100 -32.130300
C -0.439200 -20.586100 -32.004400
H 0.035400 -22.581100 -33.720900
C 0.286400 -21.798700 -31.828200
C 0.413000 -22.751700 -32.866600
H 0.839700 -21.450700 -29.919400
C 0.897300 -22.094900 -30.615100
C 1.082100 -23.920900 -32.630500
H 1.164800 -24.574400 -33.315800
N 1.562400 -23.231000 -30.362800
C 1.652900 -24.148700 -31.350000
N 2.295100 -25.301900 -31.078900
H 2.371000 -25.919300 -31.700500
H 2.638500 -25.437300 -30.279700
82
Fragment
H -6.270400 -22.234400 -27.401500
H -5.731400 -26.757400 -22.485400
N -5.414500 -27.922300 -20.935900
H -5.341700 -29.798700 -19.355200
C -5.316500 -21.973800 -27.462100
H -5.289100 -23.602600 -25.307800
C -5.280600 -26.800200 -21.649800
H -5.258400 -21.122600 -27.964400
H -5.011700 -23.209200 -28.819100
N -4.861900 -29.129800 -19.045800
C -4.842500 -22.787100 -25.111800
C -4.759200 -27.981900 -19.758900
C -4.747800 -21.789700 -26.077700
O -4.592500 -22.972800 -28.130700
C -4.533700 -25.687400 -21.268500
H -4.448300 -29.206300 -18.272400
C -4.438100 -24.553700 -22.122600
C -4.365300 -23.612000 -22.859900
C -4.276800 -22.579100 -23.855000
C -4.082000 -20.622600 -25.732100
H -4.006900 -19.914500 -26.360200
C -3.978000 -26.898900 -19.269500
C -3.869100 -25.761800 -20.025900
N -3.616900 -21.444200 -23.513900
H -3.537300 -26.962700 -18.430300
C -3.521200 -20.491200 -24.459100
H -3.350600 -25.028400 -19.715600
C -2.781400 -19.299100 -24.157300
C -2.152400 -18.285200 -24.031500
H -1.677700 -16.290200 -25.747900
C -1.426800 -17.072600 -23.855300
C -1.300200 -16.119600 -24.893700
H -0.873500 -17.420500 -21.946400
C -0.815900 -16.776400 -22.642100
C -0.631100 -14.950300 -24.657500
H -0.548400 -14.296800 -25.342900
N -0.150800 -15.640200 -22.389800
C -0.060300 -14.722600 -23.377100
N 0.581900 -13.569300 -23.106000
H 0.657900 -12.951900 -23.727500
H 0.925300 -13.433900 -22.306800
H -4.557200 -16.636900 -35.374500
H -4.018200 -12.113800 -30.458300
N -3.701300 -10.948900 -28.908900
H -3.628500 -9.072500 -27.328100
C -3.603300 -16.897500 -35.435100
H -3.575900 -15.268600 -33.280800
C -3.567400 -12.071100 -29.622800
H -3.545200 -17.748600 -35.937400
H -3.298500 -15.662000 -36.792100
N -3.148700 -9.741400 -27.018800
C -3.129300 -16.084100 -33.084800
C -3.046000 -10.889400 -27.731900
C -3.034600 -17.081600 -34.050600
O -2.879300 -15.898500 -36.103700
C -2.820500 -13.183900 -29.241500
H -2.735100 -9.664900 -26.245400
C -2.724900 -14.317500 -30.095600
C -2.652100 -15.259300 -30.832900
C -2.563600 -16.292200 -31.827900
C -2.368800 -18.248700 -33.705100
H -2.293700 -18.956700 -34.333200
C -2.264800 -11.972300 -27.242500
C -2.156000 -13.109400 -27.998800
N -1.903700 -17.427100 -31.486800
H -1.824100 -11.908600 -26.403300
C -1.808000 -18.380000 -32.432100
H -1.637400 -13.842800 -27.688500
C -1.068200 -19.572100 -32.130300
C -0.439200 -20.586100 -32.004400
H 0.035400 -22.581100 -33.720900
C 0.286400 -21.798700 -31.828200
C 0.413000 -22.751700 -32.866600
H 0.839700 -21.450700 -29.919400
C 0.897300 -22.094900 -30.615100
C 1.082100 -23.920900 -32.630500
H 1.164800 -24.574400 -33.315800
N 1.562400 -23.231000 -30.362800
C 1.652900 -24.148700 -31.350000
N 2.295100 -25.301900 -31.078900
H 2.371000 -25.919300 -31.700500
H 2.638500 -25.437300 -30.279700
