41
Fragment
H -6.270400 -22.234400 -27.401500
H -5.731400 -26.757400 -22.485400
N -5.414500 -27.922300 -20.935900
H -5.341700 -29.798700 -19.355200
C -5.316500 -21.973800 -27.462100
H -5.289100 -23.602600 -25.307800
C -5.280600 -26.800200 -21.649800
H -5.258400 -21.122600 -27.964400
H -5.011700 -23.209200 -28.819100
N -4.861900 -29.129800 -19.045800
C -4.842500 -22.787100 -25.111800
C -4.759200 -27.981900 -19.758900
C -4.747800 -21.789700 -26.077700
O -4.592500 -22.972800 -28.130700
C -4.533700 -25.687400 -21.268500
H -4.448300 -29.206300 -18.272400
C -4.438100 -24.553700 -22.122600
C -4.365300 -23.612000 -22.859900
C -4.276800 -22.579100 -23.855000
C -4.082000 -20.622600 -25.732100
H -4.006900 -19.914500 -26.360200
C -3.978000 -26.898900 -19.269500
C -3.869100 -25.761800 -20.025900
N -3.616900 -21.444200 -23.513900
H -3.537300 -26.962700 -18.430300
C -3.521200 -20.491200 -24.459100
H -3.350600 -25.028400 -19.715600
C -2.781400 -19.299100 -24.157300
C -2.152400 -18.285200 -24.031500
H -1.677700 -16.290200 -25.747900
C -1.426800 -17.072600 -23.855300
C -1.300200 -16.119600 -24.893700
H -0.873500 -17.420500 -21.946400
C -0.815900 -16.776400 -22.642100
C -0.631100 -14.950300 -24.657500
H -0.548400 -14.296800 -25.342900
N -0.150800 -15.640200 -22.389800
C -0.060300 -14.722600 -23.377100
N 0.581900 -13.569300 -23.106000
H 0.657900 -12.951900 -23.727500
H 0.925300 -13.433900 -22.306800
41
Fragment
H -7.983600 -16.636900 -19.428500
H -7.444600 -12.113800 -14.512400
N -7.127700 -10.948900 -12.962900
H -7.054900 -9.072500 -11.382200
C -7.029700 -16.897500 -19.489100
H -7.002300 -15.268600 -17.334800
C -6.993700 -12.071100 -13.676800
H -6.971600 -17.748600 -19.991400
H -6.724900 -15.662000 -20.846100
N -6.575000 -9.741400 -11.072900
C -6.555700 -16.084100 -17.138800
C -6.472400 -10.889400 -11.786000
C -6.461000 -17.081600 -18.104700
O -6.305700 -15.898500 -20.157700
C -6.246900 -13.183900 -13.295600
H -6.161400 -9.664900 -10.299500
C -6.151300 -14.317500 -14.149600
C -6.078500 -15.259300 -14.887000
C -5.989900 -16.292200 -15.882000
C -5.795200 -18.248700 -17.759100
H -5.720100 -18.956700 -18.387300
C -5.691200 -11.972300 -11.296600
C -5.582300 -13.109400 -12.052900
N -5.330100 -17.427100 -15.540900
H -5.250500 -11.908600 -10.457300
C -5.234400 -18.380000 -16.486200
H -5.063800 -13.842800 -11.742600
C -4.494600 -19.572100 -16.184300
C -3.865600 -20.586100 -16.058500
H -3.390900 -22.581100 -17.774900
C -3.140000 -21.798700 -15.882300
C -3.013400 -22.751700 -16.920700
H -2.586700 -21.450700 -13.973400
C -2.529100 -22.094900 -14.669100
C -2.344300 -23.920900 -16.684500
H -2.261600 -24.574400 -17.369900
N -1.863900 -23.231000 -14.416900
C -1.773500 -24.148700 -15.404100
N -1.131300 -25.301900 -15.133000
H -1.055300 -25.919300 -15.754600
H -0.787800 -25.437300 -14.333800
82
Fragment
H -6.270400 -22.234400 -27.401500
H -5.731400 -26.757400 -22.485400
N -5.414500 -27.922300 -20.935900
H -5.341700 -29.798700 -19.355200
C -5.316500 -21.973800 -27.462100
H -5.289100 -23.602600 -25.307800
C -5.280600 -26.800200 -21.649800
H -5.258400 -21.122600 -27.964400
H -5.011700 -23.209200 -28.819100
N -4.861900 -29.129800 -19.045800
C -4.842500 -22.787100 -25.111800
C -4.759200 -27.981900 -19.758900
C -4.747800 -21.789700 -26.077700
O -4.592500 -22.972800 -28.130700
C -4.533700 -25.687400 -21.268500
H -4.448300 -29.206300 -18.272400
C -4.438100 -24.553700 -22.122600
C -4.365300 -23.612000 -22.859900
C -4.276800 -22.579100 -23.855000
C -4.082000 -20.622600 -25.732100
H -4.006900 -19.914500 -26.360200
C -3.978000 -26.898900 -19.269500
C -3.869100 -25.761800 -20.025900
N -3.616900 -21.444200 -23.513900
H -3.537300 -26.962700 -18.430300
C -3.521200 -20.491200 -24.459100
H -3.350600 -25.028400 -19.715600
C -2.781400 -19.299100 -24.157300
C -2.152400 -18.285200 -24.031500
H -1.677700 -16.290200 -25.747900
C -1.426800 -17.072600 -23.855300
C -1.300200 -16.119600 -24.893700
H -0.873500 -17.420500 -21.946400
C -0.815900 -16.776400 -22.642100
C -0.631100 -14.950300 -24.657500
H -0.548400 -14.296800 -25.342900
N -0.150800 -15.640200 -22.389800
C -0.060300 -14.722600 -23.377100
N 0.581900 -13.569300 -23.106000
H 0.657900 -12.951900 -23.727500
H 0.925300 -13.433900 -22.306800
H -7.983600 -16.636900 -19.428500
H -7.444600 -12.113800 -14.512400
N -7.127700 -10.948900 -12.962900
H -7.054900 -9.072500 -11.382200
C -7.029700 -16.897500 -19.489100
H -7.002300 -15.268600 -17.334800
C -6.993700 -12.071100 -13.676800
H -6.971600 -17.748600 -19.991400
H -6.724900 -15.662000 -20.846100
N -6.575000 -9.741400 -11.072900
C -6.555700 -16.084100 -17.138800
C -6.472400 -10.889400 -11.786000
C -6.461000 -17.081600 -18.104700
O -6.305700 -15.898500 -20.157700
C -6.246900 -13.183900 -13.295600
H -6.161400 -9.664900 -10.299500
C -6.151300 -14.317500 -14.149600
C -6.078500 -15.259300 -14.887000
C -5.989900 -16.292200 -15.882000
C -5.795200 -18.248700 -17.759100
H -5.720100 -18.956700 -18.387300
C -5.691200 -11.972300 -11.296600
C -5.582300 -13.109400 -12.052900
N -5.330100 -17.427100 -15.540900
H -5.250500 -11.908600 -10.457300
C -5.234400 -18.380000 -16.486200
H -5.063800 -13.842800 -11.742600
C -4.494600 -19.572100 -16.184300
C -3.865600 -20.586100 -16.058500
H -3.390900 -22.581100 -17.774900
C -3.140000 -21.798700 -15.882300
C -3.013400 -22.751700 -16.920700
H -2.586700 -21.450700 -13.973400
C -2.529100 -22.094900 -14.669100
C -2.344300 -23.920900 -16.684500
H -2.261600 -24.574400 -17.369900
N -1.863900 -23.231000 -14.416900
C -1.773500 -24.148700 -15.404100
N -1.131300 -25.301900 -15.133000
H -1.055300 -25.919300 -15.754600
H -0.787800 -25.437300 -14.333800
