41
Fragment
H -6.270400 -22.234400 -27.401500
H -5.731400 -26.757400 -22.485400
N -5.414500 -27.922300 -20.935900
H -5.341700 -29.798700 -19.355200
C -5.316500 -21.973800 -27.462100
H -5.289100 -23.602600 -25.307800
C -5.280600 -26.800200 -21.649800
H -5.258400 -21.122600 -27.964400
H -5.011700 -23.209200 -28.819100
N -4.861900 -29.129800 -19.045800
C -4.842500 -22.787100 -25.111800
C -4.759200 -27.981900 -19.758900
C -4.747800 -21.789700 -26.077700
O -4.592500 -22.972800 -28.130700
C -4.533700 -25.687400 -21.268500
H -4.448300 -29.206300 -18.272400
C -4.438100 -24.553700 -22.122600
C -4.365300 -23.612000 -22.859900
C -4.276800 -22.579100 -23.855000
C -4.082000 -20.622600 -25.732100
H -4.006900 -19.914500 -26.360200
C -3.978000 -26.898900 -19.269500
C -3.869100 -25.761800 -20.025900
N -3.616900 -21.444200 -23.513900
H -3.537300 -26.962700 -18.430300
C -3.521200 -20.491200 -24.459100
H -3.350600 -25.028400 -19.715600
C -2.781400 -19.299100 -24.157300
C -2.152400 -18.285200 -24.031500
H -1.677700 -16.290200 -25.747900
C -1.426800 -17.072600 -23.855300
C -1.300200 -16.119600 -24.893700
H -0.873500 -17.420500 -21.946400
C -0.815900 -16.776400 -22.642100
C -0.631100 -14.950300 -24.657500
H -0.548400 -14.296800 -25.342900
N -0.150800 -15.640200 -22.389800
C -0.060300 -14.722600 -23.377100
N 0.581900 -13.569300 -23.106000
H 0.657900 -12.951900 -23.727500
H 0.925300 -13.433900 -22.306800
41
Fragment
H -4.497600 -5.659700 -33.504000
H -4.230200 -5.177700 -32.083200
N -4.154200 -5.795100 -32.704800
C -3.512000 -6.948300 -32.433700
N -3.421500 -7.866000 -33.420900
H -3.023900 -6.522600 -30.467900
C -2.941200 -7.176100 -31.153300
C -2.756400 -9.002100 -33.168700
H -2.698800 -9.646300 -33.864400
C -2.272100 -8.345300 -30.917100
C -2.145500 -9.298300 -31.955500
H -1.894600 -8.515900 -30.062900
C -1.419900 -10.510900 -31.779300
C -0.790900 -11.524900 -31.653500
H -0.221700 -17.254200 -36.095200
C -0.051100 -12.717000 -31.351600
H -0.035000 -19.188400 -37.380500
N 0.044600 -13.669900 -32.296900
C 0.296900 -17.987600 -35.784900
C 0.405700 -19.124700 -36.541200
H 0.434600 -12.140300 -29.450500
C 0.509700 -12.848300 -30.078700
C 0.704500 -14.804800 -31.955800
C 0.793000 -15.837700 -32.950800
C 0.865800 -16.779500 -33.688200
H 0.876000 -21.432100 -37.538300
C 0.961400 -17.913100 -34.542200
O 1.020200 -15.198500 -27.680100
C 1.175500 -14.015400 -29.733100
C 1.186900 -20.207600 -36.051800
C 1.270200 -15.012900 -30.699000
N 1.289600 -21.355600 -36.764900
H 1.439400 -15.435000 -26.991700
H 1.686100 -13.348400 -27.846400
C 1.708300 -19.025900 -34.161000
H 1.716800 -15.828400 -30.503000
C 1.744200 -14.199500 -28.348700
H 1.769400 -22.024500 -36.455600
N 1.842200 -20.148100 -34.874900
H 2.159100 -18.983200 -33.325400
H 2.698100 -14.460100 -28.409300
82
Fragment
H -6.270400 -22.234400 -27.401500
H -5.731400 -26.757400 -22.485400
N -5.414500 -27.922300 -20.935900
H -5.341700 -29.798700 -19.355200
C -5.316500 -21.973800 -27.462100
H -5.289100 -23.602600 -25.307800
C -5.280600 -26.800200 -21.649800
H -5.258400 -21.122600 -27.964400
H -5.011700 -23.209200 -28.819100
N -4.861900 -29.129800 -19.045800
C -4.842500 -22.787100 -25.111800
C -4.759200 -27.981900 -19.758900
C -4.747800 -21.789700 -26.077700
O -4.592500 -22.972800 -28.130700
C -4.533700 -25.687400 -21.268500
H -4.448300 -29.206300 -18.272400
C -4.438100 -24.553700 -22.122600
C -4.365300 -23.612000 -22.859900
C -4.276800 -22.579100 -23.855000
C -4.082000 -20.622600 -25.732100
H -4.006900 -19.914500 -26.360200
C -3.978000 -26.898900 -19.269500
C -3.869100 -25.761800 -20.025900
N -3.616900 -21.444200 -23.513900
H -3.537300 -26.962700 -18.430300
C -3.521200 -20.491200 -24.459100
H -3.350600 -25.028400 -19.715600
C -2.781400 -19.299100 -24.157300
C -2.152400 -18.285200 -24.031500
H -1.677700 -16.290200 -25.747900
C -1.426800 -17.072600 -23.855300
C -1.300200 -16.119600 -24.893700
H -0.873500 -17.420500 -21.946400
C -0.815900 -16.776400 -22.642100
C -0.631100 -14.950300 -24.657500
H -0.548400 -14.296800 -25.342900
N -0.150800 -15.640200 -22.389800
C -0.060300 -14.722600 -23.377100
N 0.581900 -13.569300 -23.106000
H 0.657900 -12.951900 -23.727500
H 0.925300 -13.433900 -22.306800
H -4.497600 -5.659700 -33.504000
H -4.230200 -5.177700 -32.083200
N -4.154200 -5.795100 -32.704800
C -3.512000 -6.948300 -32.433700
N -3.421500 -7.866000 -33.420900
H -3.023900 -6.522600 -30.467900
C -2.941200 -7.176100 -31.153300
C -2.756400 -9.002100 -33.168700
H -2.698800 -9.646300 -33.864400
C -2.272100 -8.345300 -30.917100
C -2.145500 -9.298300 -31.955500
H -1.894600 -8.515900 -30.062900
C -1.419900 -10.510900 -31.779300
C -0.790900 -11.524900 -31.653500
H -0.221700 -17.254200 -36.095200
C -0.051100 -12.717000 -31.351600
H -0.035000 -19.188400 -37.380500
N 0.044600 -13.669900 -32.296900
C 0.296900 -17.987600 -35.784900
C 0.405700 -19.124700 -36.541200
H 0.434600 -12.140300 -29.450500
C 0.509700 -12.848300 -30.078700
C 0.704500 -14.804800 -31.955800
C 0.793000 -15.837700 -32.950800
C 0.865800 -16.779500 -33.688200
H 0.876000 -21.432100 -37.538300
C 0.961400 -17.913100 -34.542200
O 1.020200 -15.198500 -27.680100
C 1.175500 -14.015400 -29.733100
C 1.186900 -20.207600 -36.051800
C 1.270200 -15.012900 -30.699000
N 1.289600 -21.355600 -36.764900
H 1.439400 -15.435000 -26.991700
H 1.686100 -13.348400 -27.846400
C 1.708300 -19.025900 -34.161000
H 1.716800 -15.828400 -30.503000
C 1.744200 -14.199500 -28.348700
H 1.769400 -22.024500 -36.455600
N 1.842200 -20.148100 -34.874900
H 2.159100 -18.983200 -33.325400
H 2.698100 -14.460100 -28.409300
