41
Fragment
H -6.270400 -22.234400 -27.401500
H -5.731400 -26.757400 -22.485400
N -5.414500 -27.922300 -20.935900
H -5.341700 -29.798700 -19.355200
C -5.316500 -21.973800 -27.462100
H -5.289100 -23.602600 -25.307800
C -5.280600 -26.800200 -21.649800
H -5.258400 -21.122600 -27.964400
H -5.011700 -23.209200 -28.819100
N -4.861900 -29.129800 -19.045800
C -4.842500 -22.787100 -25.111800
C -4.759200 -27.981900 -19.758900
C -4.747800 -21.789700 -26.077700
O -4.592500 -22.972800 -28.130700
C -4.533700 -25.687400 -21.268500
H -4.448300 -29.206300 -18.272400
C -4.438100 -24.553700 -22.122600
C -4.365300 -23.612000 -22.859900
C -4.276800 -22.579100 -23.855000
C -4.082000 -20.622600 -25.732100
H -4.006900 -19.914500 -26.360200
C -3.978000 -26.898900 -19.269500
C -3.869100 -25.761800 -20.025900
N -3.616900 -21.444200 -23.513900
H -3.537300 -26.962700 -18.430300
C -3.521200 -20.491200 -24.459100
H -3.350600 -25.028400 -19.715600
C -2.781400 -19.299100 -24.157300
C -2.152400 -18.285200 -24.031500
H -1.677700 -16.290200 -25.747900
C -1.426800 -17.072600 -23.855300
C -1.300200 -16.119600 -24.893700
H -0.873500 -17.420500 -21.946400
C -0.815900 -16.776400 -22.642100
C -0.631100 -14.950300 -24.657500
H -0.548400 -14.296800 -25.342900
N -0.150800 -15.640200 -22.389800
C -0.060300 -14.722600 -23.377100
N 0.581900 -13.569300 -23.106000
H 0.657900 -12.951900 -23.727500
H 0.925300 -13.433900 -22.306800
41
Fragment
H -13.993100 -33.211600 -25.531000
H -13.725600 -33.693600 -24.110300
N -13.649700 -33.076200 -24.731800
C -13.007500 -31.922900 -24.460700
N -12.917000 -31.005300 -25.448000
H -12.519400 -32.348700 -22.494900
C -12.436700 -31.695200 -23.180300
C -12.251900 -29.869100 -25.195700
H -12.194300 -29.225000 -25.891400
C -11.767600 -30.525900 -22.944100
C -11.641000 -29.572900 -23.982500
H -11.390000 -30.355300 -22.089900
C -10.915400 -28.360300 -23.806300
C -10.286400 -27.346400 -23.680500
H -9.717200 -21.617100 -28.122200
C -9.546500 -26.154300 -23.378700
H -9.530500 -19.682800 -29.407500
N -9.450900 -25.201300 -24.323900
C -9.198600 -20.883700 -27.811900
C -9.089800 -19.746600 -28.568300
H -9.060900 -26.731000 -21.477600
C -8.985800 -26.022900 -22.105700
C -8.791000 -24.066400 -23.982800
C -8.702500 -23.033500 -24.977900
C -8.629700 -22.091800 -25.715200
H -8.619500 -17.439200 -29.565400
C -8.534100 -20.958100 -26.569300
O -8.475300 -23.672700 -19.707100
C -8.320000 -24.855800 -21.760100
C -8.308600 -18.663600 -28.078900
C -8.225300 -23.858400 -22.726000
N -8.205900 -17.515700 -28.792000
H -8.056100 -23.436300 -19.018700
H -7.809400 -25.522900 -19.873400
C -7.787200 -19.845300 -26.188000
H -7.778700 -23.042900 -22.530000
C -7.751300 -24.671700 -20.375700
H -7.726100 -16.846800 -28.482600
N -7.653300 -18.723200 -26.901900
H -7.336400 -19.888100 -25.352400
H -6.797400 -24.411100 -20.436300
82
Fragment
H -6.270400 -22.234400 -27.401500
H -5.731400 -26.757400 -22.485400
N -5.414500 -27.922300 -20.935900
H -5.341700 -29.798700 -19.355200
C -5.316500 -21.973800 -27.462100
H -5.289100 -23.602600 -25.307800
C -5.280600 -26.800200 -21.649800
H -5.258400 -21.122600 -27.964400
H -5.011700 -23.209200 -28.819100
N -4.861900 -29.129800 -19.045800
C -4.842500 -22.787100 -25.111800
C -4.759200 -27.981900 -19.758900
C -4.747800 -21.789700 -26.077700
O -4.592500 -22.972800 -28.130700
C -4.533700 -25.687400 -21.268500
H -4.448300 -29.206300 -18.272400
C -4.438100 -24.553700 -22.122600
C -4.365300 -23.612000 -22.859900
C -4.276800 -22.579100 -23.855000
C -4.082000 -20.622600 -25.732100
H -4.006900 -19.914500 -26.360200
C -3.978000 -26.898900 -19.269500
C -3.869100 -25.761800 -20.025900
N -3.616900 -21.444200 -23.513900
H -3.537300 -26.962700 -18.430300
C -3.521200 -20.491200 -24.459100
H -3.350600 -25.028400 -19.715600
C -2.781400 -19.299100 -24.157300
C -2.152400 -18.285200 -24.031500
H -1.677700 -16.290200 -25.747900
C -1.426800 -17.072600 -23.855300
C -1.300200 -16.119600 -24.893700
H -0.873500 -17.420500 -21.946400
C -0.815900 -16.776400 -22.642100
C -0.631100 -14.950300 -24.657500
H -0.548400 -14.296800 -25.342900
N -0.150800 -15.640200 -22.389800
C -0.060300 -14.722600 -23.377100
N 0.581900 -13.569300 -23.106000
H 0.657900 -12.951900 -23.727500
H 0.925300 -13.433900 -22.306800
H -13.993100 -33.211600 -25.531000
H -13.725600 -33.693600 -24.110300
N -13.649700 -33.076200 -24.731800
C -13.007500 -31.922900 -24.460700
N -12.917000 -31.005300 -25.448000
H -12.519400 -32.348700 -22.494900
C -12.436700 -31.695200 -23.180300
C -12.251900 -29.869100 -25.195700
H -12.194300 -29.225000 -25.891400
C -11.767600 -30.525900 -22.944100
C -11.641000 -29.572900 -23.982500
H -11.390000 -30.355300 -22.089900
C -10.915400 -28.360300 -23.806300
C -10.286400 -27.346400 -23.680500
H -9.717200 -21.617100 -28.122200
C -9.546500 -26.154300 -23.378700
H -9.530500 -19.682800 -29.407500
N -9.450900 -25.201300 -24.323900
C -9.198600 -20.883700 -27.811900
C -9.089800 -19.746600 -28.568300
H -9.060900 -26.731000 -21.477600
C -8.985800 -26.022900 -22.105700
C -8.791000 -24.066400 -23.982800
C -8.702500 -23.033500 -24.977900
C -8.629700 -22.091800 -25.715200
H -8.619500 -17.439200 -29.565400
C -8.534100 -20.958100 -26.569300
O -8.475300 -23.672700 -19.707100
C -8.320000 -24.855800 -21.760100
C -8.308600 -18.663600 -28.078900
C -8.225300 -23.858400 -22.726000
N -8.205900 -17.515700 -28.792000
H -8.056100 -23.436300 -19.018700
H -7.809400 -25.522900 -19.873400
C -7.787200 -19.845300 -26.188000
H -7.778700 -23.042900 -22.530000
C -7.751300 -24.671700 -20.375700
H -7.726100 -16.846800 -28.482600
N -7.653300 -18.723200 -26.901900
H -7.336400 -19.888100 -25.352400
H -6.797400 -24.411100 -20.436300
