41
Fragment
H -6.270400 -22.234400 -27.401500
H -5.731400 -26.757400 -22.485400
N -5.414500 -27.922300 -20.935900
H -5.341700 -29.798700 -19.355200
C -5.316500 -21.973800 -27.462100
H -5.289100 -23.602600 -25.307800
C -5.280600 -26.800200 -21.649800
H -5.258400 -21.122600 -27.964400
H -5.011700 -23.209200 -28.819100
N -4.861900 -29.129800 -19.045800
C -4.842500 -22.787100 -25.111800
C -4.759200 -27.981900 -19.758900
C -4.747800 -21.789700 -26.077700
O -4.592500 -22.972800 -28.130700
C -4.533700 -25.687400 -21.268500
H -4.448300 -29.206300 -18.272400
C -4.438100 -24.553700 -22.122600
C -4.365300 -23.612000 -22.859900
C -4.276800 -22.579100 -23.855000
C -4.082000 -20.622600 -25.732100
H -4.006900 -19.914500 -26.360200
C -3.978000 -26.898900 -19.269500
C -3.869100 -25.761800 -20.025900
N -3.616900 -21.444200 -23.513900
H -3.537300 -26.962700 -18.430300
C -3.521200 -20.491200 -24.459100
H -3.350600 -25.028400 -19.715600
C -2.781400 -19.299100 -24.157300
C -2.152400 -18.285200 -24.031500
H -1.677700 -16.290200 -25.747900
C -1.426800 -17.072600 -23.855300
C -1.300200 -16.119600 -24.893700
H -0.873500 -17.420500 -21.946400
C -0.815900 -16.776400 -22.642100
C -0.631100 -14.950300 -24.657500
H -0.548400 -14.296800 -25.342900
N -0.150800 -15.640200 -22.389800
C -0.060300 -14.722600 -23.377100
N 0.581900 -13.569300 -23.106000
H 0.657900 -12.951900 -23.727500
H 0.925300 -13.433900 -22.306800
6
Fragment
H -1.753000 -13.168000 -19.892600
H -1.147000 -14.345000 -18.993200
C -0.978300 -13.453700 -19.365200
C -0.756100 -12.513700 -18.284200
N -0.607600 -11.745500 -17.461800
H -0.184700 -13.483700 -19.940400
47
Fragment
H -6.270400 -22.234400 -27.401500
H -5.731400 -26.757400 -22.485400
N -5.414500 -27.922300 -20.935900
H -5.341700 -29.798700 -19.355200
C -5.316500 -21.973800 -27.462100
H -5.289100 -23.602600 -25.307800
C -5.280600 -26.800200 -21.649800
H -5.258400 -21.122600 -27.964400
H -5.011700 -23.209200 -28.819100
N -4.861900 -29.129800 -19.045800
C -4.842500 -22.787100 -25.111800
C -4.759200 -27.981900 -19.758900
C -4.747800 -21.789700 -26.077700
O -4.592500 -22.972800 -28.130700
C -4.533700 -25.687400 -21.268500
H -4.448300 -29.206300 -18.272400
C -4.438100 -24.553700 -22.122600
C -4.365300 -23.612000 -22.859900
C -4.276800 -22.579100 -23.855000
C -4.082000 -20.622600 -25.732100
H -4.006900 -19.914500 -26.360200
C -3.978000 -26.898900 -19.269500
C -3.869100 -25.761800 -20.025900
N -3.616900 -21.444200 -23.513900
H -3.537300 -26.962700 -18.430300
C -3.521200 -20.491200 -24.459100
H -3.350600 -25.028400 -19.715600
C -2.781400 -19.299100 -24.157300
C -2.152400 -18.285200 -24.031500
H -1.677700 -16.290200 -25.747900
C -1.426800 -17.072600 -23.855300
C -1.300200 -16.119600 -24.893700
H -0.873500 -17.420500 -21.946400
C -0.815900 -16.776400 -22.642100
C -0.631100 -14.950300 -24.657500
H -0.548400 -14.296800 -25.342900
N -0.150800 -15.640200 -22.389800
C -0.060300 -14.722600 -23.377100
N 0.581900 -13.569300 -23.106000
H 0.657900 -12.951900 -23.727500
H 0.925300 -13.433900 -22.306800
H -1.753000 -13.168000 -19.892600
H -1.147000 -14.345000 -18.993200
C -0.978300 -13.453700 -19.365200
C -0.756100 -12.513700 -18.284200
N -0.607600 -11.745500 -17.461800
H -0.184700 -13.483700 -19.940400
