41
Fragment
H -6.270400 -22.234400 -27.401500
H -5.731400 -26.757400 -22.485400
N -5.414500 -27.922300 -20.935900
H -5.341700 -29.798700 -19.355200
C -5.316500 -21.973800 -27.462100
H -5.289100 -23.602600 -25.307800
C -5.280600 -26.800200 -21.649800
H -5.258400 -21.122600 -27.964400
H -5.011700 -23.209200 -28.819100
N -4.861900 -29.129800 -19.045800
C -4.842500 -22.787100 -25.111800
C -4.759200 -27.981900 -19.758900
C -4.747800 -21.789700 -26.077700
O -4.592500 -22.972800 -28.130700
C -4.533700 -25.687400 -21.268500
H -4.448300 -29.206300 -18.272400
C -4.438100 -24.553700 -22.122600
C -4.365300 -23.612000 -22.859900
C -4.276800 -22.579100 -23.855000
C -4.082000 -20.622600 -25.732100
H -4.006900 -19.914500 -26.360200
C -3.978000 -26.898900 -19.269500
C -3.869100 -25.761800 -20.025900
N -3.616900 -21.444200 -23.513900
H -3.537300 -26.962700 -18.430300
C -3.521200 -20.491200 -24.459100
H -3.350600 -25.028400 -19.715600
C -2.781400 -19.299100 -24.157300
C -2.152400 -18.285200 -24.031500
H -1.677700 -16.290200 -25.747900
C -1.426800 -17.072600 -23.855300
C -1.300200 -16.119600 -24.893700
H -0.873500 -17.420500 -21.946400
C -0.815900 -16.776400 -22.642100
C -0.631100 -14.950300 -24.657500
H -0.548400 -14.296800 -25.342900
N -0.150800 -15.640200 -22.389800
C -0.060300 -14.722600 -23.377100
N 0.581900 -13.569300 -23.106000
H 0.657900 -12.951900 -23.727500
H 0.925300 -13.433900 -22.306800
41
Fragment
H -7.924000 -5.659700 -17.558100
H -7.656500 -5.177700 -16.137300
N -7.580600 -5.795100 -16.758900
C -6.938400 -6.948300 -16.487800
N -6.847900 -7.866000 -17.475000
H -6.450300 -6.522600 -14.522000
C -6.367600 -7.176100 -15.207300
C -6.182800 -9.002100 -17.222700
H -6.125100 -9.646300 -17.918400
C -5.698500 -8.345300 -14.971200
C -5.571900 -9.298300 -16.009600
H -5.320900 -8.515900 -14.116900
C -4.846300 -10.510900 -15.833400
C -4.217300 -11.524900 -15.707500
H -3.648100 -17.254200 -20.149300
C -3.477400 -12.717000 -15.405700
H -3.461400 -19.188400 -21.434500
N -3.381800 -13.669900 -16.351000
C -3.129500 -17.987600 -19.839000
C -3.020700 -19.124700 -20.595300
H -2.991700 -12.140300 -13.504600
C -2.916700 -12.848300 -14.132700
C -2.721900 -14.804800 -16.009900
C -2.633400 -15.837700 -17.004900
C -2.560600 -16.779500 -17.742200
H -2.550400 -21.432100 -21.592400
C -2.465000 -17.913100 -18.596300
O -2.406200 -15.198500 -11.734100
C -2.250900 -14.015400 -13.787200
C -2.239500 -20.207600 -20.105900
C -2.156200 -15.012900 -14.753000
N -2.136800 -21.355600 -20.819000
H -1.987000 -15.435000 -11.045700
H -1.740300 -13.348400 -11.900500
C -1.718100 -19.025900 -18.215000
H -1.709500 -15.828400 -14.557000
C -1.682200 -14.199500 -12.402700
H -1.657000 -22.024500 -20.509700
N -1.584200 -20.148100 -18.928900
H -1.267300 -18.983200 -17.379500
H -0.728300 -14.460100 -12.463300
82
Fragment
H -6.270400 -22.234400 -27.401500
H -5.731400 -26.757400 -22.485400
N -5.414500 -27.922300 -20.935900
H -5.341700 -29.798700 -19.355200
C -5.316500 -21.973800 -27.462100
H -5.289100 -23.602600 -25.307800
C -5.280600 -26.800200 -21.649800
H -5.258400 -21.122600 -27.964400
H -5.011700 -23.209200 -28.819100
N -4.861900 -29.129800 -19.045800
C -4.842500 -22.787100 -25.111800
C -4.759200 -27.981900 -19.758900
C -4.747800 -21.789700 -26.077700
O -4.592500 -22.972800 -28.130700
C -4.533700 -25.687400 -21.268500
H -4.448300 -29.206300 -18.272400
C -4.438100 -24.553700 -22.122600
C -4.365300 -23.612000 -22.859900
C -4.276800 -22.579100 -23.855000
C -4.082000 -20.622600 -25.732100
H -4.006900 -19.914500 -26.360200
C -3.978000 -26.898900 -19.269500
C -3.869100 -25.761800 -20.025900
N -3.616900 -21.444200 -23.513900
H -3.537300 -26.962700 -18.430300
C -3.521200 -20.491200 -24.459100
H -3.350600 -25.028400 -19.715600
C -2.781400 -19.299100 -24.157300
C -2.152400 -18.285200 -24.031500
H -1.677700 -16.290200 -25.747900
C -1.426800 -17.072600 -23.855300
C -1.300200 -16.119600 -24.893700
H -0.873500 -17.420500 -21.946400
C -0.815900 -16.776400 -22.642100
C -0.631100 -14.950300 -24.657500
H -0.548400 -14.296800 -25.342900
N -0.150800 -15.640200 -22.389800
C -0.060300 -14.722600 -23.377100
N 0.581900 -13.569300 -23.106000
H 0.657900 -12.951900 -23.727500
H 0.925300 -13.433900 -22.306800
H -7.924000 -5.659700 -17.558100
H -7.656500 -5.177700 -16.137300
N -7.580600 -5.795100 -16.758900
C -6.938400 -6.948300 -16.487800
N -6.847900 -7.866000 -17.475000
H -6.450300 -6.522600 -14.522000
C -6.367600 -7.176100 -15.207300
C -6.182800 -9.002100 -17.222700
H -6.125100 -9.646300 -17.918400
C -5.698500 -8.345300 -14.971200
C -5.571900 -9.298300 -16.009600
H -5.320900 -8.515900 -14.116900
C -4.846300 -10.510900 -15.833400
C -4.217300 -11.524900 -15.707500
H -3.648100 -17.254200 -20.149300
C -3.477400 -12.717000 -15.405700
H -3.461400 -19.188400 -21.434500
N -3.381800 -13.669900 -16.351000
C -3.129500 -17.987600 -19.839000
C -3.020700 -19.124700 -20.595300
H -2.991700 -12.140300 -13.504600
C -2.916700 -12.848300 -14.132700
C -2.721900 -14.804800 -16.009900
C -2.633400 -15.837700 -17.004900
C -2.560600 -16.779500 -17.742200
H -2.550400 -21.432100 -21.592400
C -2.465000 -17.913100 -18.596300
O -2.406200 -15.198500 -11.734100
C -2.250900 -14.015400 -13.787200
C -2.239500 -20.207600 -20.105900
C -2.156200 -15.012900 -14.753000
N -2.136800 -21.355600 -20.819000
H -1.987000 -15.435000 -11.045700
H -1.740300 -13.348400 -11.900500
C -1.718100 -19.025900 -18.215000
H -1.709500 -15.828400 -14.557000
C -1.682200 -14.199500 -12.402700
H -1.657000 -22.024500 -20.509700
N -1.584200 -20.148100 -18.928900
H -1.267300 -18.983200 -17.379500
H -0.728300 -14.460100 -12.463300
