41
Fragment
H -6.270400 -22.234400 -27.401500
H -5.731400 -26.757400 -22.485400
N -5.414500 -27.922300 -20.935900
H -5.341700 -29.798700 -19.355200
C -5.316500 -21.973800 -27.462100
H -5.289100 -23.602600 -25.307800
C -5.280600 -26.800200 -21.649800
H -5.258400 -21.122600 -27.964400
H -5.011700 -23.209200 -28.819100
N -4.861900 -29.129800 -19.045800
C -4.842500 -22.787100 -25.111800
C -4.759200 -27.981900 -19.758900
C -4.747800 -21.789700 -26.077700
O -4.592500 -22.972800 -28.130700
C -4.533700 -25.687400 -21.268500
H -4.448300 -29.206300 -18.272400
C -4.438100 -24.553700 -22.122600
C -4.365300 -23.612000 -22.859900
C -4.276800 -22.579100 -23.855000
C -4.082000 -20.622600 -25.732100
H -4.006900 -19.914500 -26.360200
C -3.978000 -26.898900 -19.269500
C -3.869100 -25.761800 -20.025900
N -3.616900 -21.444200 -23.513900
H -3.537300 -26.962700 -18.430300
C -3.521200 -20.491200 -24.459100
H -3.350600 -25.028400 -19.715600
C -2.781400 -19.299100 -24.157300
C -2.152400 -18.285200 -24.031500
H -1.677700 -16.290200 -25.747900
C -1.426800 -17.072600 -23.855300
C -1.300200 -16.119600 -24.893700
H -0.873500 -17.420500 -21.946400
C -0.815900 -16.776400 -22.642100
C -0.631100 -14.950300 -24.657500
H -0.548400 -14.296800 -25.342900
N -0.150800 -15.640200 -22.389800
C -0.060300 -14.722600 -23.377100
N 0.581900 -13.569300 -23.106000
H 0.657900 -12.951900 -23.727500
H 0.925300 -13.433900 -22.306800
41
Fragment
H 1.511900 -6.685900 -27.401500
H 2.050900 -11.208900 -22.485400
N 2.367800 -12.373800 -20.935900
H 2.440600 -14.250200 -19.355200
C 2.465800 -6.425300 -27.462100
H 2.493200 -8.054100 -25.307800
C 2.501700 -11.251700 -21.649800
H 2.523900 -5.574100 -27.964400
H 2.770600 -7.660700 -28.819100
N 2.920400 -13.581300 -19.045800
C 2.939800 -7.238600 -25.111800
C 3.023100 -12.433400 -19.758900
C 3.034500 -6.241200 -26.077700
O 3.189800 -7.424300 -28.130700
C 3.248600 -10.138900 -21.268500
H 3.334000 -13.657800 -18.272400
C 3.344200 -9.005200 -22.122600
C 3.417000 -8.063500 -22.859900
C 3.505500 -7.030600 -23.855000
C 3.700300 -5.074100 -25.732100
H 3.775400 -4.366000 -26.360200
C 3.804300 -11.350400 -19.269500
C 3.913200 -10.213300 -20.025900
N 4.165400 -5.895700 -23.513900
H 4.245000 -11.414200 -18.430300
C 4.261100 -4.942700 -24.459100
H 4.431700 -9.479900 -19.715600
C 5.000900 -3.750600 -24.157300
C 5.629900 -2.736700 -24.031500
H 6.104600 -0.741700 -25.747900
C 6.355500 -1.524100 -23.855300
C 6.482100 -0.571100 -24.893700
H 6.908800 -1.872000 -21.946400
C 6.966400 -1.227900 -22.642100
C 7.151200 0.598200 -24.657500
H 7.233900 1.251700 -25.342900
N 7.631500 -0.091700 -22.389800
C 7.722000 0.825900 -23.377100
N 8.364200 1.979200 -23.106000
H 8.440200 2.596600 -23.727500
H 8.707600 2.114600 -22.306800
82
Fragment
H -6.270400 -22.234400 -27.401500
H -5.731400 -26.757400 -22.485400
N -5.414500 -27.922300 -20.935900
H -5.341700 -29.798700 -19.355200
C -5.316500 -21.973800 -27.462100
H -5.289100 -23.602600 -25.307800
C -5.280600 -26.800200 -21.649800
H -5.258400 -21.122600 -27.964400
H -5.011700 -23.209200 -28.819100
N -4.861900 -29.129800 -19.045800
C -4.842500 -22.787100 -25.111800
C -4.759200 -27.981900 -19.758900
C -4.747800 -21.789700 -26.077700
O -4.592500 -22.972800 -28.130700
C -4.533700 -25.687400 -21.268500
H -4.448300 -29.206300 -18.272400
C -4.438100 -24.553700 -22.122600
C -4.365300 -23.612000 -22.859900
C -4.276800 -22.579100 -23.855000
C -4.082000 -20.622600 -25.732100
H -4.006900 -19.914500 -26.360200
C -3.978000 -26.898900 -19.269500
C -3.869100 -25.761800 -20.025900
N -3.616900 -21.444200 -23.513900
H -3.537300 -26.962700 -18.430300
C -3.521200 -20.491200 -24.459100
H -3.350600 -25.028400 -19.715600
C -2.781400 -19.299100 -24.157300
C -2.152400 -18.285200 -24.031500
H -1.677700 -16.290200 -25.747900
C -1.426800 -17.072600 -23.855300
C -1.300200 -16.119600 -24.893700
H -0.873500 -17.420500 -21.946400
C -0.815900 -16.776400 -22.642100
C -0.631100 -14.950300 -24.657500
H -0.548400 -14.296800 -25.342900
N -0.150800 -15.640200 -22.389800
C -0.060300 -14.722600 -23.377100
N 0.581900 -13.569300 -23.106000
H 0.657900 -12.951900 -23.727500
H 0.925300 -13.433900 -22.306800
H 1.511900 -6.685900 -27.401500
H 2.050900 -11.208900 -22.485400
N 2.367800 -12.373800 -20.935900
H 2.440600 -14.250200 -19.355200
C 2.465800 -6.425300 -27.462100
H 2.493200 -8.054100 -25.307800
C 2.501700 -11.251700 -21.649800
H 2.523900 -5.574100 -27.964400
H 2.770600 -7.660700 -28.819100
N 2.920400 -13.581300 -19.045800
C 2.939800 -7.238600 -25.111800
C 3.023100 -12.433400 -19.758900
C 3.034500 -6.241200 -26.077700
O 3.189800 -7.424300 -28.130700
C 3.248600 -10.138900 -21.268500
H 3.334000 -13.657800 -18.272400
C 3.344200 -9.005200 -22.122600
C 3.417000 -8.063500 -22.859900
C 3.505500 -7.030600 -23.855000
C 3.700300 -5.074100 -25.732100
H 3.775400 -4.366000 -26.360200
C 3.804300 -11.350400 -19.269500
C 3.913200 -10.213300 -20.025900
N 4.165400 -5.895700 -23.513900
H 4.245000 -11.414200 -18.430300
C 4.261100 -4.942700 -24.459100
H 4.431700 -9.479900 -19.715600
C 5.000900 -3.750600 -24.157300
C 5.629900 -2.736700 -24.031500
H 6.104600 -0.741700 -25.747900
C 6.355500 -1.524100 -23.855300
C 6.482100 -0.571100 -24.893700
H 6.908800 -1.872000 -21.946400
C 6.966400 -1.227900 -22.642100
C 7.151200 0.598200 -24.657500
H 7.233900 1.251700 -25.342900
N 7.631500 -0.091700 -22.389800
C 7.722000 0.825900 -23.377100
N 8.364200 1.979200 -23.106000
H 8.440200 2.596600 -23.727500
H 8.707600 2.114600 -22.306800
