32
Fragment
H -27.437800 -11.353400 -32.828500
H -27.085800 -11.405300 -30.431800
H -26.902300 -11.807500 -34.908800
N -26.682000 -11.730800 -32.983500
C -26.293500 -11.992800 -34.230300
C -26.237100 -11.742600 -30.606900
C -25.828700 -11.984100 -31.922100
H -25.638500 -11.858000 -28.701200
C -25.371300 -12.010800 -29.578700
N -25.145900 -12.481400 -34.586600
C -24.559000 -12.492700 -32.194300
C -24.204300 -12.726100 -33.596000
C -24.099400 -12.508200 -29.830100
C -23.694800 -12.749000 -31.126000
H -23.519000 -12.678300 -29.123900
H -23.512700 -13.177100 -35.747600
H -23.043500 -12.444000 -37.730500
N -23.012500 -13.147000 -33.889500
H -22.842900 -13.084100 -31.290500
N -22.822500 -13.302000 -35.253400
H -22.748600 -12.525500 -40.023200
C -22.376300 -12.981100 -38.091900
C -22.208000 -13.038000 -39.465700
C -21.637500 -13.651600 -35.754200
C -21.556400 -13.720100 -37.247400
C -21.238600 -13.853300 -40.005300
H -21.136900 -13.912400 -40.928400
O -20.656500 -13.887000 -35.042900
C -20.569200 -14.499900 -37.809000
C -20.429100 -14.572000 -39.179800
H -19.992300 -14.980700 -37.261300
H -19.772400 -15.119100 -39.545200
32
Fragment
H -19.959200 -11.514900 -37.912000
H -19.739300 -11.376500 -40.195800
C -19.302500 -10.967700 -38.277300
C -19.162400 -10.895600 -39.648100
O -19.075100 -10.282800 -42.414200
H -18.594700 -10.308200 -36.528800
C -18.493000 -10.249000 -37.451900
C -18.175200 -10.115800 -40.209800
C -18.094100 -10.047400 -41.702900
C -17.523600 -9.433800 -37.991400
C -17.355300 -9.376800 -39.365300
H -16.983000 -8.921200 -37.433900
N -16.909100 -9.697700 -42.203700
H -16.888800 -9.479900 -46.166700
N -16.719100 -9.542800 -43.567700
H -16.688100 -8.839800 -39.726700
H -16.218900 -9.572900 -41.709600
H -16.212600 -9.074100 -48.333300
C -16.036900 -9.144700 -46.331100
C -15.632200 -8.903900 -47.627100
C -15.527300 -9.121900 -43.861100
C -15.172600 -8.888400 -45.262900
N -14.585700 -8.877200 -42.870500
C -14.360400 -8.406600 -47.878500
H -14.093100 -8.253700 -48.756000
C -13.902900 -8.379900 -45.535100
C -13.494500 -8.138400 -46.850300
C -13.438100 -8.388500 -43.226800
N -13.049600 -8.126600 -44.473700
H -12.829300 -8.203300 -42.548300
H -12.645800 -7.801000 -47.025300
H -12.293900 -7.749100 -44.628600
64
Fragment
H -27.437800 -11.353400 -32.828500
H -27.085800 -11.405300 -30.431800
H -26.902300 -11.807500 -34.908800
N -26.682000 -11.730800 -32.983500
C -26.293500 -11.992800 -34.230300
C -26.237100 -11.742600 -30.606900
C -25.828700 -11.984100 -31.922100
H -25.638500 -11.858000 -28.701200
C -25.371300 -12.010800 -29.578700
N -25.145900 -12.481400 -34.586600
C -24.559000 -12.492700 -32.194300
C -24.204300 -12.726100 -33.596000
C -24.099400 -12.508200 -29.830100
C -23.694800 -12.749000 -31.126000
H -23.519000 -12.678300 -29.123900
H -23.512700 -13.177100 -35.747600
H -23.043500 -12.444000 -37.730500
N -23.012500 -13.147000 -33.889500
H -22.842900 -13.084100 -31.290500
N -22.822500 -13.302000 -35.253400
H -22.748600 -12.525500 -40.023200
C -22.376300 -12.981100 -38.091900
C -22.208000 -13.038000 -39.465700
C -21.637500 -13.651600 -35.754200
C -21.556400 -13.720100 -37.247400
C -21.238600 -13.853300 -40.005300
H -21.136900 -13.912400 -40.928400
O -20.656500 -13.887000 -35.042900
C -20.569200 -14.499900 -37.809000
C -20.429100 -14.572000 -39.179800
H -19.992300 -14.980700 -37.261300
H -19.772400 -15.119100 -39.545200
H -19.959200 -11.514900 -37.912000
H -19.739300 -11.376500 -40.195800
C -19.302500 -10.967700 -38.277300
C -19.162400 -10.895600 -39.648100
O -19.075100 -10.282800 -42.414200
H -18.594700 -10.308200 -36.528800
C -18.493000 -10.249000 -37.451900
C -18.175200 -10.115800 -40.209800
C -18.094100 -10.047400 -41.702900
C -17.523600 -9.433800 -37.991400
C -17.355300 -9.376800 -39.365300
H -16.983000 -8.921200 -37.433900
N -16.909100 -9.697700 -42.203700
H -16.888800 -9.479900 -46.166700
N -16.719100 -9.542800 -43.567700
H -16.688100 -8.839800 -39.726700
H -16.218900 -9.572900 -41.709600
H -16.212600 -9.074100 -48.333300
C -16.036900 -9.144700 -46.331100
C -15.632200 -8.903900 -47.627100
C -15.527300 -9.121900 -43.861100
C -15.172600 -8.888400 -45.262900
N -14.585700 -8.877200 -42.870500
C -14.360400 -8.406600 -47.878500
H -14.093100 -8.253700 -48.756000
C -13.902900 -8.379900 -45.535100
C -13.494500 -8.138400 -46.850300
C -13.438100 -8.388500 -43.226800
N -13.049600 -8.126600 -44.473700
H -12.829300 -8.203300 -42.548300
H -12.645800 -7.801000 -47.025300
H -12.293900 -7.749100 -44.628600
