32
Fragment
H -27.437800 -11.353400 -32.828500
H -27.085800 -11.405300 -30.431800
H -26.902300 -11.807500 -34.908800
N -26.682000 -11.730800 -32.983500
C -26.293500 -11.992800 -34.230300
C -26.237100 -11.742600 -30.606900
C -25.828700 -11.984100 -31.922100
H -25.638500 -11.858000 -28.701200
C -25.371300 -12.010800 -29.578700
N -25.145900 -12.481400 -34.586600
C -24.559000 -12.492700 -32.194300
C -24.204300 -12.726100 -33.596000
C -24.099400 -12.508200 -29.830100
C -23.694800 -12.749000 -31.126000
H -23.519000 -12.678300 -29.123900
H -23.512700 -13.177100 -35.747600
H -23.043500 -12.444000 -37.730500
N -23.012500 -13.147000 -33.889500
H -22.842900 -13.084100 -31.290500
N -22.822500 -13.302000 -35.253400
H -22.748600 -12.525500 -40.023200
C -22.376300 -12.981100 -38.091900
C -22.208000 -13.038000 -39.465700
C -21.637500 -13.651600 -35.754200
C -21.556400 -13.720100 -37.247400
C -21.238600 -13.853300 -40.005300
H -21.136900 -13.912400 -40.928400
O -20.656500 -13.887000 -35.042900
C -20.569200 -14.499900 -37.809000
C -20.429100 -14.572000 -39.179800
H -19.992300 -14.980700 -37.261300
H -19.772400 -15.119100 -39.545200
3
Fragment
H -21.051200 -13.825900 -32.768800
O -20.524700 -13.931400 -32.141400
H -20.273600 -13.164900 -31.941100
35
Fragment
H -27.437800 -11.353400 -32.828500
H -27.085800 -11.405300 -30.431800
H -26.902300 -11.807500 -34.908800
N -26.682000 -11.730800 -32.983500
C -26.293500 -11.992800 -34.230300
C -26.237100 -11.742600 -30.606900
C -25.828700 -11.984100 -31.922100
H -25.638500 -11.858000 -28.701200
C -25.371300 -12.010800 -29.578700
N -25.145900 -12.481400 -34.586600
C -24.559000 -12.492700 -32.194300
C -24.204300 -12.726100 -33.596000
C -24.099400 -12.508200 -29.830100
C -23.694800 -12.749000 -31.126000
H -23.519000 -12.678300 -29.123900
H -23.512700 -13.177100 -35.747600
H -23.043500 -12.444000 -37.730500
N -23.012500 -13.147000 -33.889500
H -22.842900 -13.084100 -31.290500
N -22.822500 -13.302000 -35.253400
H -22.748600 -12.525500 -40.023200
C -22.376300 -12.981100 -38.091900
C -22.208000 -13.038000 -39.465700
C -21.637500 -13.651600 -35.754200
C -21.556400 -13.720100 -37.247400
C -21.238600 -13.853300 -40.005300
H -21.136900 -13.912400 -40.928400
O -20.656500 -13.887000 -35.042900
C -20.569200 -14.499900 -37.809000
C -20.429100 -14.572000 -39.179800
H -19.992300 -14.980700 -37.261300
H -19.772400 -15.119100 -39.545200
H -21.051200 -13.825900 -32.768800
O -20.524700 -13.931400 -32.141400
H -20.273600 -13.164900 -31.941100
