32
Fragment
H -27.437800 -11.353400 -32.828500
H -27.085800 -11.405300 -30.431800
H -26.902300 -11.807500 -34.908800
N -26.682000 -11.730800 -32.983500
C -26.293500 -11.992800 -34.230300
C -26.237100 -11.742600 -30.606900
C -25.828700 -11.984100 -31.922100
H -25.638500 -11.858000 -28.701200
C -25.371300 -12.010800 -29.578700
N -25.145900 -12.481400 -34.586600
C -24.559000 -12.492700 -32.194300
C -24.204300 -12.726100 -33.596000
C -24.099400 -12.508200 -29.830100
C -23.694800 -12.749000 -31.126000
H -23.519000 -12.678300 -29.123900
H -23.512700 -13.177100 -35.747600
H -23.043500 -12.444000 -37.730500
N -23.012500 -13.147000 -33.889500
H -22.842900 -13.084100 -31.290500
N -22.822500 -13.302000 -35.253400
H -22.748600 -12.525500 -40.023200
C -22.376300 -12.981100 -38.091900
C -22.208000 -13.038000 -39.465700
C -21.637500 -13.651600 -35.754200
C -21.556400 -13.720100 -37.247400
C -21.238600 -13.853300 -40.005300
H -21.136900 -13.912400 -40.928400
O -20.656500 -13.887000 -35.042900
C -20.569200 -14.499900 -37.809000
C -20.429100 -14.572000 -39.179800
H -19.992300 -14.980700 -37.261300
H -19.772400 -15.119100 -39.545200
32
Fragment
H -27.828400 -17.480600 -21.763200
H -27.476500 -17.428700 -19.366500
H -27.292900 -17.026500 -23.843500
N -27.072700 -17.103200 -21.918200
C -26.684100 -16.841200 -23.165000
C -26.627800 -17.091400 -19.541600
C -26.219400 -16.849900 -20.856800
H -26.029200 -16.976000 -17.635900
C -25.761900 -16.823200 -18.513400
N -25.536500 -16.352600 -23.521300
C -24.949700 -16.341300 -21.129000
C -24.594900 -16.107900 -22.530700
C -24.490100 -16.325800 -18.764800
C -24.085400 -16.085000 -20.060700
H -23.909600 -16.155700 -18.058600
H -23.903400 -15.656900 -24.682300
H -23.434200 -16.390000 -26.665200
N -23.403200 -15.687000 -22.824200
H -23.233500 -15.749900 -20.225200
N -23.213200 -15.532000 -24.188100
H -23.139200 -16.308500 -28.957900
C -22.767000 -15.852900 -27.026600
C -22.598700 -15.796000 -28.400400
C -22.028200 -15.182400 -24.688900
C -21.947100 -15.113900 -26.182100
C -21.629300 -14.980700 -28.940000
H -21.527500 -14.921600 -29.863000
O -21.047200 -14.947000 -23.977600
C -20.959900 -14.334100 -26.743700
C -20.819800 -14.262000 -28.114500
H -20.383000 -13.853300 -26.196000
H -20.163100 -13.714900 -28.479900
64
Fragment
H -27.437800 -11.353400 -32.828500
H -27.085800 -11.405300 -30.431800
H -26.902300 -11.807500 -34.908800
N -26.682000 -11.730800 -32.983500
C -26.293500 -11.992800 -34.230300
C -26.237100 -11.742600 -30.606900
C -25.828700 -11.984100 -31.922100
H -25.638500 -11.858000 -28.701200
C -25.371300 -12.010800 -29.578700
N -25.145900 -12.481400 -34.586600
C -24.559000 -12.492700 -32.194300
C -24.204300 -12.726100 -33.596000
C -24.099400 -12.508200 -29.830100
C -23.694800 -12.749000 -31.126000
H -23.519000 -12.678300 -29.123900
H -23.512700 -13.177100 -35.747600
H -23.043500 -12.444000 -37.730500
N -23.012500 -13.147000 -33.889500
H -22.842900 -13.084100 -31.290500
N -22.822500 -13.302000 -35.253400
H -22.748600 -12.525500 -40.023200
C -22.376300 -12.981100 -38.091900
C -22.208000 -13.038000 -39.465700
C -21.637500 -13.651600 -35.754200
C -21.556400 -13.720100 -37.247400
C -21.238600 -13.853300 -40.005300
H -21.136900 -13.912400 -40.928400
O -20.656500 -13.887000 -35.042900
C -20.569200 -14.499900 -37.809000
C -20.429100 -14.572000 -39.179800
H -19.992300 -14.980700 -37.261300
H -19.772400 -15.119100 -39.545200
H -27.828400 -17.480600 -21.763200
H -27.476500 -17.428700 -19.366500
H -27.292900 -17.026500 -23.843500
N -27.072700 -17.103200 -21.918200
C -26.684100 -16.841200 -23.165000
C -26.627800 -17.091400 -19.541600
C -26.219400 -16.849900 -20.856800
H -26.029200 -16.976000 -17.635900
C -25.761900 -16.823200 -18.513400
N -25.536500 -16.352600 -23.521300
C -24.949700 -16.341300 -21.129000
C -24.594900 -16.107900 -22.530700
C -24.490100 -16.325800 -18.764800
C -24.085400 -16.085000 -20.060700
H -23.909600 -16.155700 -18.058600
H -23.903400 -15.656900 -24.682300
H -23.434200 -16.390000 -26.665200
N -23.403200 -15.687000 -22.824200
H -23.233500 -15.749900 -20.225200
N -23.213200 -15.532000 -24.188100
H -23.139200 -16.308500 -28.957900
C -22.767000 -15.852900 -27.026600
C -22.598700 -15.796000 -28.400400
C -22.028200 -15.182400 -24.688900
C -21.947100 -15.113900 -26.182100
C -21.629300 -14.980700 -28.940000
H -21.527500 -14.921600 -29.863000
O -21.047200 -14.947000 -23.977600
C -20.959900 -14.334100 -26.743700
C -20.819800 -14.262000 -28.114500
H -20.383000 -13.853300 -26.196000
H -20.163100 -13.714900 -28.479900
