32
Fragment
H -27.437800 -11.353400 -32.828500
H -27.085800 -11.405300 -30.431800
H -26.902300 -11.807500 -34.908800
N -26.682000 -11.730800 -32.983500
C -26.293500 -11.992800 -34.230300
C -26.237100 -11.742600 -30.606900
C -25.828700 -11.984100 -31.922100
H -25.638500 -11.858000 -28.701200
C -25.371300 -12.010800 -29.578700
N -25.145900 -12.481400 -34.586600
C -24.559000 -12.492700 -32.194300
C -24.204300 -12.726100 -33.596000
C -24.099400 -12.508200 -29.830100
C -23.694800 -12.749000 -31.126000
H -23.519000 -12.678300 -29.123900
H -23.512700 -13.177100 -35.747600
H -23.043500 -12.444000 -37.730500
N -23.012500 -13.147000 -33.889500
H -22.842900 -13.084100 -31.290500
N -22.822500 -13.302000 -35.253400
H -22.748600 -12.525500 -40.023200
C -22.376300 -12.981100 -38.091900
C -22.208000 -13.038000 -39.465700
C -21.637500 -13.651600 -35.754200
C -21.556400 -13.720100 -37.247400
C -21.238600 -13.853300 -40.005300
H -21.136900 -13.912400 -40.928400
O -20.656500 -13.887000 -35.042900
C -20.569200 -14.499900 -37.809000
C -20.429100 -14.572000 -39.179800
H -19.992300 -14.980700 -37.261300
H -19.772400 -15.119100 -39.545200
32
Fragment
H -28.452400 -15.119100 -37.912000
H -28.232500 -14.980700 -40.195800
C -27.795700 -14.572000 -38.277300
C -27.655600 -14.499900 -39.648100
O -27.568300 -13.887000 -42.414200
H -27.088000 -13.912400 -36.528800
C -26.986300 -13.853300 -37.451900
C -26.668400 -13.720100 -40.209800
C -26.587300 -13.651600 -41.702900
C -26.016800 -13.038000 -37.991400
C -25.848600 -12.981100 -39.365300
H -25.476300 -12.525500 -37.433900
N -25.402300 -13.302000 -42.203700
H -25.382000 -13.084100 -46.166700
N -25.212300 -13.147000 -43.567700
H -25.181300 -12.444000 -39.726700
H -24.712100 -13.177100 -41.709600
H -24.705900 -12.678300 -48.333300
C -24.530100 -12.749000 -46.331100
C -24.125400 -12.508200 -47.627100
C -24.020600 -12.726100 -43.861100
C -23.665800 -12.492700 -45.262900
N -23.079000 -12.481400 -42.870500
C -22.853600 -12.010800 -47.878500
H -22.586300 -11.858000 -48.756000
C -22.396200 -11.984100 -45.535100
C -21.987800 -11.742600 -46.850300
C -21.931400 -11.992800 -43.226800
N -21.542900 -11.730800 -44.473700
H -21.322600 -11.807500 -42.548300
H -21.139000 -11.405300 -47.025300
H -20.787100 -11.353400 -44.628600
64
Fragment
H -27.437800 -11.353400 -32.828500
H -27.085800 -11.405300 -30.431800
H -26.902300 -11.807500 -34.908800
N -26.682000 -11.730800 -32.983500
C -26.293500 -11.992800 -34.230300
C -26.237100 -11.742600 -30.606900
C -25.828700 -11.984100 -31.922100
H -25.638500 -11.858000 -28.701200
C -25.371300 -12.010800 -29.578700
N -25.145900 -12.481400 -34.586600
C -24.559000 -12.492700 -32.194300
C -24.204300 -12.726100 -33.596000
C -24.099400 -12.508200 -29.830100
C -23.694800 -12.749000 -31.126000
H -23.519000 -12.678300 -29.123900
H -23.512700 -13.177100 -35.747600
H -23.043500 -12.444000 -37.730500
N -23.012500 -13.147000 -33.889500
H -22.842900 -13.084100 -31.290500
N -22.822500 -13.302000 -35.253400
H -22.748600 -12.525500 -40.023200
C -22.376300 -12.981100 -38.091900
C -22.208000 -13.038000 -39.465700
C -21.637500 -13.651600 -35.754200
C -21.556400 -13.720100 -37.247400
C -21.238600 -13.853300 -40.005300
H -21.136900 -13.912400 -40.928400
O -20.656500 -13.887000 -35.042900
C -20.569200 -14.499900 -37.809000
C -20.429100 -14.572000 -39.179800
H -19.992300 -14.980700 -37.261300
H -19.772400 -15.119100 -39.545200
H -28.452400 -15.119100 -37.912000
H -28.232500 -14.980700 -40.195800
C -27.795700 -14.572000 -38.277300
C -27.655600 -14.499900 -39.648100
O -27.568300 -13.887000 -42.414200
H -27.088000 -13.912400 -36.528800
C -26.986300 -13.853300 -37.451900
C -26.668400 -13.720100 -40.209800
C -26.587300 -13.651600 -41.702900
C -26.016800 -13.038000 -37.991400
C -25.848600 -12.981100 -39.365300
H -25.476300 -12.525500 -37.433900
N -25.402300 -13.302000 -42.203700
H -25.382000 -13.084100 -46.166700
N -25.212300 -13.147000 -43.567700
H -25.181300 -12.444000 -39.726700
H -24.712100 -13.177100 -41.709600
H -24.705900 -12.678300 -48.333300
C -24.530100 -12.749000 -46.331100
C -24.125400 -12.508200 -47.627100
C -24.020600 -12.726100 -43.861100
C -23.665800 -12.492700 -45.262900
N -23.079000 -12.481400 -42.870500
C -22.853600 -12.010800 -47.878500
H -22.586300 -11.858000 -48.756000
C -22.396200 -11.984100 -45.535100
C -21.987800 -11.742600 -46.850300
C -21.931400 -11.992800 -43.226800
N -21.542900 -11.730800 -44.473700
H -21.322600 -11.807500 -42.548300
H -21.139000 -11.405300 -47.025300
H -20.787100 -11.353400 -44.628600
