40
Fragment
H -11.479800 -33.765700 -18.924100
O -11.313000 -32.956500 -19.278600
H -11.024100 -33.265200 -16.710100
C -10.910800 -32.075000 -18.317300
C -10.789500 -32.411400 -16.994500
H -10.691100 -30.566000 -19.624100
C -10.604900 -30.800400 -18.727800
C -10.320600 -31.489000 -16.084900
H -10.225200 -31.731300 -15.191800
C -10.170400 -29.870900 -17.809200
N -10.103900 -28.118500 -15.368500
H -10.041800 -26.380500 -14.587600
H -9.995000 -29.001300 -18.089000
C -9.989700 -30.204600 -16.485200
N -9.538400 -27.114000 -14.637000
C -9.400500 -29.203700 -15.566800
C -8.300900 -27.110200 -14.091100
C -8.086400 -29.358000 -15.030900
O -7.857400 -26.137300 -13.470900
H -7.766500 -31.388400 -15.285100
C -7.560400 -28.328400 -14.304100
H -7.450700 -32.229800 -17.502800
C -7.241400 -30.569200 -15.401300
C -6.943800 -31.488100 -17.742500
C -6.728500 -30.485300 -16.827700
H -6.564800 -32.088700 -19.627900
C -6.412900 -31.405300 -19.015200
N -6.302500 -28.359100 -13.746900
N -6.110100 -30.566700 -14.465700
C -5.990100 -29.392600 -17.220300
H -5.960000 -27.614500 -13.368800
H -5.842500 -28.702200 -16.615300
C -5.668000 -30.323500 -19.374500
C -5.604700 -29.520100 -13.825000
C -5.461400 -29.297200 -18.496900
N -5.215600 -31.589900 -14.366200
H -4.974600 -28.547400 -18.752200
Cl -4.965500 -30.225700 -20.965900
N -4.434500 -29.840600 -13.301000
N -4.233800 -31.140700 -13.660000
8
Fragment
O -8.115600 -34.768200 -17.014100
H -7.944200 -36.907200 -16.114400
O -7.227300 -36.502400 -15.972000
C -7.187900 -35.277200 -16.431300
H -6.016000 -33.858500 -15.602600
C -5.889700 -34.593400 -16.206800
H -5.551700 -34.266300 -17.043300
H -5.262700 -35.214600 -15.828900
48
Fragment
H -11.479800 -33.765700 -18.924100
O -11.313000 -32.956500 -19.278600
H -11.024100 -33.265200 -16.710100
C -10.910800 -32.075000 -18.317300
C -10.789500 -32.411400 -16.994500
H -10.691100 -30.566000 -19.624100
C -10.604900 -30.800400 -18.727800
C -10.320600 -31.489000 -16.084900
H -10.225200 -31.731300 -15.191800
C -10.170400 -29.870900 -17.809200
N -10.103900 -28.118500 -15.368500
H -10.041800 -26.380500 -14.587600
H -9.995000 -29.001300 -18.089000
C -9.989700 -30.204600 -16.485200
N -9.538400 -27.114000 -14.637000
C -9.400500 -29.203700 -15.566800
C -8.300900 -27.110200 -14.091100
C -8.086400 -29.358000 -15.030900
O -7.857400 -26.137300 -13.470900
H -7.766500 -31.388400 -15.285100
C -7.560400 -28.328400 -14.304100
H -7.450700 -32.229800 -17.502800
C -7.241400 -30.569200 -15.401300
C -6.943800 -31.488100 -17.742500
C -6.728500 -30.485300 -16.827700
H -6.564800 -32.088700 -19.627900
C -6.412900 -31.405300 -19.015200
N -6.302500 -28.359100 -13.746900
N -6.110100 -30.566700 -14.465700
C -5.990100 -29.392600 -17.220300
H -5.960000 -27.614500 -13.368800
H -5.842500 -28.702200 -16.615300
C -5.668000 -30.323500 -19.374500
C -5.604700 -29.520100 -13.825000
C -5.461400 -29.297200 -18.496900
N -5.215600 -31.589900 -14.366200
H -4.974600 -28.547400 -18.752200
Cl -4.965500 -30.225700 -20.965900
N -4.434500 -29.840600 -13.301000
N -4.233800 -31.140700 -13.660000
O -8.115600 -34.768200 -17.014100
H -7.944200 -36.907200 -16.114400
O -7.227300 -36.502400 -15.972000
C -7.187900 -35.277200 -16.431300
H -6.016000 -33.858500 -15.602600
C -5.889700 -34.593400 -16.206800
H -5.551700 -34.266300 -17.043300
H -5.262700 -35.214600 -15.828900
