36
Fragment
N -16.432000 -25.676800 -25.517800
H -16.219700 -23.453100 -22.907500
C -16.163700 -24.604300 -25.241000
C -15.908400 -22.856300 -23.549100
C -15.815100 -23.264600 -24.874200
H -15.610700 -21.320400 -22.278500
C -15.547300 -21.580600 -23.169000
O -15.430600 -19.972400 -20.554600
C -15.358900 -22.349900 -25.840900
C -15.287600 -22.769600 -27.214400
N -15.259500 -23.116100 -28.294700
C -15.087500 -20.685400 -24.132700
C -15.005500 -19.048800 -21.213200
C -14.994000 -21.067000 -25.470300
N -14.706200 -19.367300 -23.823500
H -14.689500 -20.464400 -26.109200
C -14.684900 -18.754900 -22.628300
C -14.605400 -17.641100 -20.885200
O -14.597100 -17.004100 -19.847600
H -14.453100 -18.887900 -24.491100
C -14.293400 -17.441000 -22.305700
H -13.863300 -15.116800 -20.819300
N -13.827800 -16.473600 -23.106700
H -13.773100 -16.686000 -23.938200
C -13.518900 -14.616300 -21.523900
C -13.415100 -15.167000 -22.801100
N -13.343600 -12.190800 -19.005100
C -13.238500 -12.698200 -20.024200
C -13.099000 -13.304500 -21.323500
C -12.895400 -14.422500 -23.849200
H -12.832000 -14.800500 -24.696500
C -12.572100 -12.549600 -22.382000
C -12.472100 -13.121000 -23.643900
C -12.180600 -11.182200 -22.183000
H -12.120200 -12.629400 -24.350600
N -11.886300 -10.099300 -22.062000
36
Fragment
N -20.508100 -15.255700 -33.619100
H -20.274100 -17.785800 -31.330500
C -20.213800 -16.338600 -33.498000
C -19.922200 -18.277400 -32.037100
C -19.822200 -17.706000 -33.299000
H -19.562300 -19.956900 -30.984600
C -19.498900 -19.578900 -31.831900
C -19.295400 -18.460900 -34.357600
C -19.155800 -17.854600 -35.656900
N -19.050800 -17.347200 -36.676000
C -18.979300 -20.323400 -32.880000
C -18.875500 -19.772700 -34.157200
H -18.621200 -21.842400 -31.742800
N -18.566600 -21.630000 -32.574400
H -18.531100 -20.273200 -34.861800
C -18.101000 -22.597400 -33.375400
H -17.941300 -24.044300 -31.190000
O -17.797300 -22.160500 -35.833500
C -17.789000 -22.797500 -34.795900
C -17.709400 -23.911300 -33.052800
H -17.704900 -25.620800 -29.571900
N -17.688200 -24.523700 -31.857500
C -17.400400 -26.223400 -30.210800
C -17.388800 -24.205200 -34.467900
C -17.306900 -25.841800 -31.548400
N -17.134800 -28.272500 -27.386300
C -17.106800 -27.926000 -28.466700
C -17.035500 -27.506300 -29.840100
O -16.963700 -25.128800 -35.126500
C -16.847000 -26.737000 -32.512000
H -16.783700 -26.476800 -33.402600
C -16.579300 -28.421000 -30.806900
C -16.485900 -28.012700 -32.132000
C -16.230700 -29.760700 -30.440000
H -16.174600 -28.609500 -32.773600
N -15.962400 -30.833200 -30.163200
72
Fragment
N -16.432000 -25.676800 -25.517800
H -16.219700 -23.453100 -22.907500
C -16.163700 -24.604300 -25.241000
C -15.908400 -22.856300 -23.549100
C -15.815100 -23.264600 -24.874200
H -15.610700 -21.320400 -22.278500
C -15.547300 -21.580600 -23.169000
O -15.430600 -19.972400 -20.554600
C -15.358900 -22.349900 -25.840900
C -15.287600 -22.769600 -27.214400
N -15.259500 -23.116100 -28.294700
C -15.087500 -20.685400 -24.132700
C -15.005500 -19.048800 -21.213200
C -14.994000 -21.067000 -25.470300
N -14.706200 -19.367300 -23.823500
H -14.689500 -20.464400 -26.109200
C -14.684900 -18.754900 -22.628300
C -14.605400 -17.641100 -20.885200
O -14.597100 -17.004100 -19.847600
H -14.453100 -18.887900 -24.491100
C -14.293400 -17.441000 -22.305700
H -13.863300 -15.116800 -20.819300
N -13.827800 -16.473600 -23.106700
H -13.773100 -16.686000 -23.938200
C -13.518900 -14.616300 -21.523900
C -13.415100 -15.167000 -22.801100
N -13.343600 -12.190800 -19.005100
C -13.238500 -12.698200 -20.024200
C -13.099000 -13.304500 -21.323500
C -12.895400 -14.422500 -23.849200
H -12.832000 -14.800500 -24.696500
C -12.572100 -12.549600 -22.382000
C -12.472100 -13.121000 -23.643900
C -12.180600 -11.182200 -22.183000
H -12.120200 -12.629400 -24.350600
N -11.886300 -10.099300 -22.062000
N -20.508100 -15.255700 -33.619100
H -20.274100 -17.785800 -31.330500
C -20.213800 -16.338600 -33.498000
C -19.922200 -18.277400 -32.037100
C -19.822200 -17.706000 -33.299000
H -19.562300 -19.956900 -30.984600
C -19.498900 -19.578900 -31.831900
C -19.295400 -18.460900 -34.357600
C -19.155800 -17.854600 -35.656900
N -19.050800 -17.347200 -36.676000
C -18.979300 -20.323400 -32.880000
C -18.875500 -19.772700 -34.157200
H -18.621200 -21.842400 -31.742800
N -18.566600 -21.630000 -32.574400
H -18.531100 -20.273200 -34.861800
C -18.101000 -22.597400 -33.375400
H -17.941300 -24.044300 -31.190000
O -17.797300 -22.160500 -35.833500
C -17.789000 -22.797500 -34.795900
C -17.709400 -23.911300 -33.052800
H -17.704900 -25.620800 -29.571900
N -17.688200 -24.523700 -31.857500
C -17.400400 -26.223400 -30.210800
C -17.388800 -24.205200 -34.467900
C -17.306900 -25.841800 -31.548400
N -17.134800 -28.272500 -27.386300
C -17.106800 -27.926000 -28.466700
C -17.035500 -27.506300 -29.840100
O -16.963700 -25.128800 -35.126500
C -16.847000 -26.737000 -32.512000
H -16.783700 -26.476800 -33.402600
C -16.579300 -28.421000 -30.806900
C -16.485900 -28.012700 -32.132000
C -16.230700 -29.760700 -30.440000
H -16.174600 -28.609500 -32.773600
N -15.962400 -30.833200 -30.163200
