36
Fragment
N -16.432000 -25.676800 -25.517800
H -16.219700 -23.453100 -22.907500
C -16.163700 -24.604300 -25.241000
C -15.908400 -22.856300 -23.549100
C -15.815100 -23.264600 -24.874200
H -15.610700 -21.320400 -22.278500
C -15.547300 -21.580600 -23.169000
O -15.430600 -19.972400 -20.554600
C -15.358900 -22.349900 -25.840900
C -15.287600 -22.769600 -27.214400
N -15.259500 -23.116100 -28.294700
C -15.087500 -20.685400 -24.132700
C -15.005500 -19.048800 -21.213200
C -14.994000 -21.067000 -25.470300
N -14.706200 -19.367300 -23.823500
H -14.689500 -20.464400 -26.109200
C -14.684900 -18.754900 -22.628300
C -14.605400 -17.641100 -20.885200
O -14.597100 -17.004100 -19.847600
H -14.453100 -18.887900 -24.491100
C -14.293400 -17.441000 -22.305700
H -13.863300 -15.116800 -20.819300
N -13.827800 -16.473600 -23.106700
H -13.773100 -16.686000 -23.938200
C -13.518900 -14.616300 -21.523900
C -13.415100 -15.167000 -22.801100
N -13.343600 -12.190800 -19.005100
C -13.238500 -12.698200 -20.024200
C -13.099000 -13.304500 -21.323500
C -12.895400 -14.422500 -23.849200
H -12.832000 -14.800500 -24.696500
C -12.572100 -12.549600 -22.382000
C -12.472100 -13.121000 -23.643900
C -12.180600 -11.182200 -22.183000
H -12.120200 -12.629400 -24.350600
N -11.886300 -10.099300 -22.062000
36
Fragment
N -14.999500 -0.105200 -33.472300
H -14.787200 -2.328900 -30.861900
C -14.731200 -1.177700 -33.195500
C -14.475900 -2.925700 -31.503600
C -14.382600 -2.517400 -32.828600
H -14.178200 -4.461600 -30.232900
C -14.114800 -4.201400 -31.123500
O -13.998100 -5.809600 -28.509000
C -13.926300 -3.432100 -33.795400
C -13.855100 -3.012400 -35.168800
N -13.827000 -2.665900 -36.249200
C -13.654900 -5.096600 -32.087100
C -13.573000 -6.733200 -29.167700
C -13.561500 -4.715000 -33.424700
N -13.273700 -6.414700 -31.778000
H -13.257000 -5.317600 -34.063600
C -13.252400 -7.027100 -30.582700
C -13.172900 -8.140900 -28.839600
O -13.164600 -8.777900 -27.802000
H -13.020600 -6.894100 -32.445500
C -12.860800 -8.341000 -30.260100
H -12.430800 -10.665200 -28.773700
N -12.395200 -9.308400 -31.061100
H -12.340600 -9.096000 -31.892700
C -12.086400 -11.165700 -29.478400
C -11.982600 -10.615000 -30.755500
N -11.911100 -13.591200 -26.959500
C -11.806000 -13.083800 -27.978600
C -11.666400 -12.477500 -29.277900
C -11.462900 -11.359500 -31.803600
H -11.399500 -10.981500 -32.650900
C -11.139600 -13.232400 -30.336500
C -11.039600 -12.661000 -31.598400
C -10.748000 -14.599800 -30.137500
H -10.687700 -13.152600 -32.305000
N -10.453800 -15.682700 -30.016400
72
Fragment
N -16.432000 -25.676800 -25.517800
H -16.219700 -23.453100 -22.907500
C -16.163700 -24.604300 -25.241000
C -15.908400 -22.856300 -23.549100
C -15.815100 -23.264600 -24.874200
H -15.610700 -21.320400 -22.278500
C -15.547300 -21.580600 -23.169000
O -15.430600 -19.972400 -20.554600
C -15.358900 -22.349900 -25.840900
C -15.287600 -22.769600 -27.214400
N -15.259500 -23.116100 -28.294700
C -15.087500 -20.685400 -24.132700
C -15.005500 -19.048800 -21.213200
C -14.994000 -21.067000 -25.470300
N -14.706200 -19.367300 -23.823500
H -14.689500 -20.464400 -26.109200
C -14.684900 -18.754900 -22.628300
C -14.605400 -17.641100 -20.885200
O -14.597100 -17.004100 -19.847600
H -14.453100 -18.887900 -24.491100
C -14.293400 -17.441000 -22.305700
H -13.863300 -15.116800 -20.819300
N -13.827800 -16.473600 -23.106700
H -13.773100 -16.686000 -23.938200
C -13.518900 -14.616300 -21.523900
C -13.415100 -15.167000 -22.801100
N -13.343600 -12.190800 -19.005100
C -13.238500 -12.698200 -20.024200
C -13.099000 -13.304500 -21.323500
C -12.895400 -14.422500 -23.849200
H -12.832000 -14.800500 -24.696500
C -12.572100 -12.549600 -22.382000
C -12.472100 -13.121000 -23.643900
C -12.180600 -11.182200 -22.183000
H -12.120200 -12.629400 -24.350600
N -11.886300 -10.099300 -22.062000
N -14.999500 -0.105200 -33.472300
H -14.787200 -2.328900 -30.861900
C -14.731200 -1.177700 -33.195500
C -14.475900 -2.925700 -31.503600
C -14.382600 -2.517400 -32.828600
H -14.178200 -4.461600 -30.232900
C -14.114800 -4.201400 -31.123500
O -13.998100 -5.809600 -28.509000
C -13.926300 -3.432100 -33.795400
C -13.855100 -3.012400 -35.168800
N -13.827000 -2.665900 -36.249200
C -13.654900 -5.096600 -32.087100
C -13.573000 -6.733200 -29.167700
C -13.561500 -4.715000 -33.424700
N -13.273700 -6.414700 -31.778000
H -13.257000 -5.317600 -34.063600
C -13.252400 -7.027100 -30.582700
C -13.172900 -8.140900 -28.839600
O -13.164600 -8.777900 -27.802000
H -13.020600 -6.894100 -32.445500
C -12.860800 -8.341000 -30.260100
H -12.430800 -10.665200 -28.773700
N -12.395200 -9.308400 -31.061100
H -12.340600 -9.096000 -31.892700
C -12.086400 -11.165700 -29.478400
C -11.982600 -10.615000 -30.755500
N -11.911100 -13.591200 -26.959500
C -11.806000 -13.083800 -27.978600
C -11.666400 -12.477500 -29.277900
C -11.462900 -11.359500 -31.803600
H -11.399500 -10.981500 -32.650900
C -11.139600 -13.232400 -30.336500
C -11.039600 -12.661000 -31.598400
C -10.748000 -14.599800 -30.137500
H -10.687700 -13.152600 -32.305000
N -10.453800 -15.682700 -30.016400
