36
Fragment
N -16.432000 -25.676800 -25.517800
H -16.219700 -23.453100 -22.907500
C -16.163700 -24.604300 -25.241000
C -15.908400 -22.856300 -23.549100
C -15.815100 -23.264600 -24.874200
H -15.610700 -21.320400 -22.278500
C -15.547300 -21.580600 -23.169000
O -15.430600 -19.972400 -20.554600
C -15.358900 -22.349900 -25.840900
C -15.287600 -22.769600 -27.214400
N -15.259500 -23.116100 -28.294700
C -15.087500 -20.685400 -24.132700
C -15.005500 -19.048800 -21.213200
C -14.994000 -21.067000 -25.470300
N -14.706200 -19.367300 -23.823500
H -14.689500 -20.464400 -26.109200
C -14.684900 -18.754900 -22.628300
C -14.605400 -17.641100 -20.885200
O -14.597100 -17.004100 -19.847600
H -14.453100 -18.887900 -24.491100
C -14.293400 -17.441000 -22.305700
H -13.863300 -15.116800 -20.819300
N -13.827800 -16.473600 -23.106700
H -13.773100 -16.686000 -23.938200
C -13.518900 -14.616300 -21.523900
C -13.415100 -15.167000 -22.801100
N -13.343600 -12.190800 -19.005100
C -13.238500 -12.698200 -20.024200
C -13.099000 -13.304500 -21.323500
C -12.895400 -14.422500 -23.849200
H -12.832000 -14.800500 -24.696500
C -12.572100 -12.549600 -22.382000
C -12.472100 -13.121000 -23.643900
C -12.180600 -11.182200 -22.183000
H -12.120200 -12.629400 -24.350600
N -11.886300 -10.099300 -22.062000
36
Fragment
N -12.767600 -15.255700 -17.710200
H -12.533700 -17.785800 -15.421600
C -12.473300 -16.338600 -17.589200
C -12.181800 -18.277400 -16.128300
C -12.081800 -17.706000 -17.390200
H -11.821900 -19.956900 -15.075700
C -11.758500 -19.578900 -15.923000
C -11.555000 -18.460900 -18.448700
C -11.415400 -17.854600 -19.748000
N -11.310300 -17.347200 -20.767100
C -11.238800 -20.323400 -16.971100
C -11.135000 -19.772700 -18.248300
H -10.880800 -21.842400 -15.833900
N -10.826200 -21.630000 -16.665500
H -10.790600 -20.273200 -18.952900
C -10.360500 -22.597400 -17.466500
H -10.200800 -24.044300 -15.281100
O -10.056800 -22.160500 -19.924600
C -10.048500 -22.797500 -18.887000
C -9.969000 -23.911300 -17.143900
H -9.964400 -25.620800 -13.663000
N -9.947700 -24.523700 -15.948600
C -9.659900 -26.223400 -14.301900
C -9.648400 -24.205200 -18.559000
C -9.566400 -25.841800 -15.639500
N -9.394400 -28.272500 -11.477500
C -9.366300 -27.926000 -12.557800
C -9.295000 -27.506300 -13.931200
O -9.223300 -25.128800 -19.217600
C -9.106600 -26.737000 -16.603100
H -9.043200 -26.476800 -17.493700
C -8.838800 -28.421000 -14.898000
C -8.745500 -28.012700 -16.223100
C -8.490200 -29.760700 -14.531200
H -8.434200 -28.609500 -16.864700
N -8.221900 -30.833200 -14.254400
72
Fragment
N -16.432000 -25.676800 -25.517800
H -16.219700 -23.453100 -22.907500
C -16.163700 -24.604300 -25.241000
C -15.908400 -22.856300 -23.549100
C -15.815100 -23.264600 -24.874200
H -15.610700 -21.320400 -22.278500
C -15.547300 -21.580600 -23.169000
O -15.430600 -19.972400 -20.554600
C -15.358900 -22.349900 -25.840900
C -15.287600 -22.769600 -27.214400
N -15.259500 -23.116100 -28.294700
C -15.087500 -20.685400 -24.132700
C -15.005500 -19.048800 -21.213200
C -14.994000 -21.067000 -25.470300
N -14.706200 -19.367300 -23.823500
H -14.689500 -20.464400 -26.109200
C -14.684900 -18.754900 -22.628300
C -14.605400 -17.641100 -20.885200
O -14.597100 -17.004100 -19.847600
H -14.453100 -18.887900 -24.491100
C -14.293400 -17.441000 -22.305700
H -13.863300 -15.116800 -20.819300
N -13.827800 -16.473600 -23.106700
H -13.773100 -16.686000 -23.938200
C -13.518900 -14.616300 -21.523900
C -13.415100 -15.167000 -22.801100
N -13.343600 -12.190800 -19.005100
C -13.238500 -12.698200 -20.024200
C -13.099000 -13.304500 -21.323500
C -12.895400 -14.422500 -23.849200
H -12.832000 -14.800500 -24.696500
C -12.572100 -12.549600 -22.382000
C -12.472100 -13.121000 -23.643900
C -12.180600 -11.182200 -22.183000
H -12.120200 -12.629400 -24.350600
N -11.886300 -10.099300 -22.062000
N -12.767600 -15.255700 -17.710200
H -12.533700 -17.785800 -15.421600
C -12.473300 -16.338600 -17.589200
C -12.181800 -18.277400 -16.128300
C -12.081800 -17.706000 -17.390200
H -11.821900 -19.956900 -15.075700
C -11.758500 -19.578900 -15.923000
C -11.555000 -18.460900 -18.448700
C -11.415400 -17.854600 -19.748000
N -11.310300 -17.347200 -20.767100
C -11.238800 -20.323400 -16.971100
C -11.135000 -19.772700 -18.248300
H -10.880800 -21.842400 -15.833900
N -10.826200 -21.630000 -16.665500
H -10.790600 -20.273200 -18.952900
C -10.360500 -22.597400 -17.466500
H -10.200800 -24.044300 -15.281100
O -10.056800 -22.160500 -19.924600
C -10.048500 -22.797500 -18.887000
C -9.969000 -23.911300 -17.143900
H -9.964400 -25.620800 -13.663000
N -9.947700 -24.523700 -15.948600
C -9.659900 -26.223400 -14.301900
C -9.648400 -24.205200 -18.559000
C -9.566400 -25.841800 -15.639500
N -9.394400 -28.272500 -11.477500
C -9.366300 -27.926000 -12.557800
C -9.295000 -27.506300 -13.931200
O -9.223300 -25.128800 -19.217600
C -9.106600 -26.737000 -16.603100
H -9.043200 -26.476800 -17.493700
C -8.838800 -28.421000 -14.898000
C -8.745500 -28.012700 -16.223100
C -8.490200 -29.760700 -14.531200
H -8.434200 -28.609500 -16.864700
N -8.221900 -30.833200 -14.254400
