36
Fragment
N -16.432000 -25.676800 -25.517800
H -16.219700 -23.453100 -22.907500
C -16.163700 -24.604300 -25.241000
C -15.908400 -22.856300 -23.549100
C -15.815100 -23.264600 -24.874200
H -15.610700 -21.320400 -22.278500
C -15.547300 -21.580600 -23.169000
O -15.430600 -19.972400 -20.554600
C -15.358900 -22.349900 -25.840900
C -15.287600 -22.769600 -27.214400
N -15.259500 -23.116100 -28.294700
C -15.087500 -20.685400 -24.132700
C -15.005500 -19.048800 -21.213200
C -14.994000 -21.067000 -25.470300
N -14.706200 -19.367300 -23.823500
H -14.689500 -20.464400 -26.109200
C -14.684900 -18.754900 -22.628300
C -14.605400 -17.641100 -20.885200
O -14.597100 -17.004100 -19.847600
H -14.453100 -18.887900 -24.491100
C -14.293400 -17.441000 -22.305700
H -13.863300 -15.116800 -20.819300
N -13.827800 -16.473600 -23.106700
H -13.773100 -16.686000 -23.938200
C -13.518900 -14.616300 -21.523900
C -13.415100 -15.167000 -22.801100
N -13.343600 -12.190800 -19.005100
C -13.238500 -12.698200 -20.024200
C -13.099000 -13.304500 -21.323500
C -12.895400 -14.422500 -23.849200
H -12.832000 -14.800500 -24.696500
C -12.572100 -12.549600 -22.382000
C -12.472100 -13.121000 -23.643900
C -12.180600 -11.182200 -22.183000
H -12.120200 -12.629400 -24.350600
N -11.886300 -10.099300 -22.062000
36
Fragment
N -14.999500 -10.418000 -33.472300
H -14.787200 -12.641700 -30.861900
C -14.731200 -11.490500 -33.195500
C -14.475900 -13.238500 -31.503600
C -14.382600 -12.830200 -32.828600
H -14.178200 -14.774400 -30.232900
C -14.114800 -14.514200 -31.123500
O -13.998100 -16.122400 -28.509000
C -13.926300 -13.744900 -33.795400
C -13.855100 -13.325200 -35.168800
N -13.827000 -12.978700 -36.249200
C -13.654900 -15.409400 -32.087100
C -13.573000 -17.046000 -29.167700
C -13.561500 -15.027800 -33.424700
N -13.273700 -16.727500 -31.778000
H -13.257000 -15.630400 -34.063600
C -13.252400 -17.339900 -30.582700
C -13.172900 -18.453700 -28.839600
O -13.164600 -19.090700 -27.802000
H -13.020600 -17.206900 -32.445500
C -12.860800 -18.653800 -30.260100
H -12.430800 -20.978000 -28.773700
N -12.395200 -19.621200 -31.061100
H -12.340600 -19.408800 -31.892700
C -12.086400 -21.478500 -29.478400
C -11.982600 -20.927800 -30.755500
N -11.911100 -23.904000 -26.959500
C -11.806000 -23.396600 -27.978600
C -11.666400 -22.790300 -29.277900
C -11.462900 -21.672300 -31.803600
H -11.399500 -21.294300 -32.650900
C -11.139600 -23.545200 -30.336500
C -11.039600 -22.973800 -31.598400
C -10.748000 -24.912600 -30.137500
H -10.687700 -23.465400 -32.305000
N -10.453800 -25.995500 -30.016400
72
Fragment
N -16.432000 -25.676800 -25.517800
H -16.219700 -23.453100 -22.907500
C -16.163700 -24.604300 -25.241000
C -15.908400 -22.856300 -23.549100
C -15.815100 -23.264600 -24.874200
H -15.610700 -21.320400 -22.278500
C -15.547300 -21.580600 -23.169000
O -15.430600 -19.972400 -20.554600
C -15.358900 -22.349900 -25.840900
C -15.287600 -22.769600 -27.214400
N -15.259500 -23.116100 -28.294700
C -15.087500 -20.685400 -24.132700
C -15.005500 -19.048800 -21.213200
C -14.994000 -21.067000 -25.470300
N -14.706200 -19.367300 -23.823500
H -14.689500 -20.464400 -26.109200
C -14.684900 -18.754900 -22.628300
C -14.605400 -17.641100 -20.885200
O -14.597100 -17.004100 -19.847600
H -14.453100 -18.887900 -24.491100
C -14.293400 -17.441000 -22.305700
H -13.863300 -15.116800 -20.819300
N -13.827800 -16.473600 -23.106700
H -13.773100 -16.686000 -23.938200
C -13.518900 -14.616300 -21.523900
C -13.415100 -15.167000 -22.801100
N -13.343600 -12.190800 -19.005100
C -13.238500 -12.698200 -20.024200
C -13.099000 -13.304500 -21.323500
C -12.895400 -14.422500 -23.849200
H -12.832000 -14.800500 -24.696500
C -12.572100 -12.549600 -22.382000
C -12.472100 -13.121000 -23.643900
C -12.180600 -11.182200 -22.183000
H -12.120200 -12.629400 -24.350600
N -11.886300 -10.099300 -22.062000
N -14.999500 -10.418000 -33.472300
H -14.787200 -12.641700 -30.861900
C -14.731200 -11.490500 -33.195500
C -14.475900 -13.238500 -31.503600
C -14.382600 -12.830200 -32.828600
H -14.178200 -14.774400 -30.232900
C -14.114800 -14.514200 -31.123500
O -13.998100 -16.122400 -28.509000
C -13.926300 -13.744900 -33.795400
C -13.855100 -13.325200 -35.168800
N -13.827000 -12.978700 -36.249200
C -13.654900 -15.409400 -32.087100
C -13.573000 -17.046000 -29.167700
C -13.561500 -15.027800 -33.424700
N -13.273700 -16.727500 -31.778000
H -13.257000 -15.630400 -34.063600
C -13.252400 -17.339900 -30.582700
C -13.172900 -18.453700 -28.839600
O -13.164600 -19.090700 -27.802000
H -13.020600 -17.206900 -32.445500
C -12.860800 -18.653800 -30.260100
H -12.430800 -20.978000 -28.773700
N -12.395200 -19.621200 -31.061100
H -12.340600 -19.408800 -31.892700
C -12.086400 -21.478500 -29.478400
C -11.982600 -20.927800 -30.755500
N -11.911100 -23.904000 -26.959500
C -11.806000 -23.396600 -27.978600
C -11.666400 -22.790300 -29.277900
C -11.462900 -21.672300 -31.803600
H -11.399500 -21.294300 -32.650900
C -11.139600 -23.545200 -30.336500
C -11.039600 -22.973800 -31.598400
C -10.748000 -24.912600 -30.137500
H -10.687700 -23.465400 -32.305000
N -10.453800 -25.995500 -30.016400
