36
Fragment
N -16.432000 -25.676800 -25.517800
H -16.219700 -23.453100 -22.907500
C -16.163700 -24.604300 -25.241000
C -15.908400 -22.856300 -23.549100
C -15.815100 -23.264600 -24.874200
H -15.610700 -21.320400 -22.278500
C -15.547300 -21.580600 -23.169000
O -15.430600 -19.972400 -20.554600
C -15.358900 -22.349900 -25.840900
C -15.287600 -22.769600 -27.214400
N -15.259500 -23.116100 -28.294700
C -15.087500 -20.685400 -24.132700
C -15.005500 -19.048800 -21.213200
C -14.994000 -21.067000 -25.470300
N -14.706200 -19.367300 -23.823500
H -14.689500 -20.464400 -26.109200
C -14.684900 -18.754900 -22.628300
C -14.605400 -17.641100 -20.885200
O -14.597100 -17.004100 -19.847600
H -14.453100 -18.887900 -24.491100
C -14.293400 -17.441000 -22.305700
H -13.863300 -15.116800 -20.819300
N -13.827800 -16.473600 -23.106700
H -13.773100 -16.686000 -23.938200
C -13.518900 -14.616300 -21.523900
C -13.415100 -15.167000 -22.801100
N -13.343600 -12.190800 -19.005100
C -13.238500 -12.698200 -20.024200
C -13.099000 -13.304500 -21.323500
C -12.895400 -14.422500 -23.849200
H -12.832000 -14.800500 -24.696500
C -12.572100 -12.549600 -22.382000
C -12.472100 -13.121000 -23.643900
C -12.180600 -11.182200 -22.183000
H -12.120200 -12.629400 -24.350600
N -11.886300 -10.099300 -22.062000
36
Fragment
N -16.432000 -15.364000 -25.517800
H -16.219700 -13.140300 -22.907500
C -16.163700 -14.291500 -25.241000
C -15.908400 -12.543500 -23.549100
C -15.815100 -12.951800 -24.874200
H -15.610700 -11.007600 -22.278500
C -15.547300 -11.267800 -23.169000
O -15.430600 -9.659600 -20.554600
C -15.358900 -12.037100 -25.840900
C -15.287600 -12.456800 -27.214400
N -15.259500 -12.803300 -28.294700
C -15.087500 -10.372600 -24.132700
C -15.005500 -8.736000 -21.213200
C -14.994000 -10.754200 -25.470300
N -14.706200 -9.054500 -23.823500
H -14.689500 -10.151600 -26.109200
C -14.684900 -8.442100 -22.628300
C -14.605400 -7.328300 -20.885200
O -14.597100 -6.691300 -19.847600
H -14.453100 -8.575100 -24.491100
C -14.293400 -7.128200 -22.305700
H -13.863300 -4.804000 -20.819300
N -13.827800 -6.160800 -23.106700
H -13.773100 -6.373200 -23.938200
C -13.518900 -4.303500 -21.523900
C -13.415100 -4.854200 -22.801100
N -13.343600 -1.878000 -19.005100
C -13.238500 -2.385400 -20.024200
C -13.099000 -2.991700 -21.323500
C -12.895400 -4.109700 -23.849200
H -12.832000 -4.487700 -24.696500
C -12.572100 -2.236800 -22.382000
C -12.472100 -2.808200 -23.643900
C -12.180600 -0.869400 -22.183000
H -12.120200 -2.316600 -24.350600
N -11.886300 0.213500 -22.062000
72
Fragment
N -16.432000 -25.676800 -25.517800
H -16.219700 -23.453100 -22.907500
C -16.163700 -24.604300 -25.241000
C -15.908400 -22.856300 -23.549100
C -15.815100 -23.264600 -24.874200
H -15.610700 -21.320400 -22.278500
C -15.547300 -21.580600 -23.169000
O -15.430600 -19.972400 -20.554600
C -15.358900 -22.349900 -25.840900
C -15.287600 -22.769600 -27.214400
N -15.259500 -23.116100 -28.294700
C -15.087500 -20.685400 -24.132700
C -15.005500 -19.048800 -21.213200
C -14.994000 -21.067000 -25.470300
N -14.706200 -19.367300 -23.823500
H -14.689500 -20.464400 -26.109200
C -14.684900 -18.754900 -22.628300
C -14.605400 -17.641100 -20.885200
O -14.597100 -17.004100 -19.847600
H -14.453100 -18.887900 -24.491100
C -14.293400 -17.441000 -22.305700
H -13.863300 -15.116800 -20.819300
N -13.827800 -16.473600 -23.106700
H -13.773100 -16.686000 -23.938200
C -13.518900 -14.616300 -21.523900
C -13.415100 -15.167000 -22.801100
N -13.343600 -12.190800 -19.005100
C -13.238500 -12.698200 -20.024200
C -13.099000 -13.304500 -21.323500
C -12.895400 -14.422500 -23.849200
H -12.832000 -14.800500 -24.696500
C -12.572100 -12.549600 -22.382000
C -12.472100 -13.121000 -23.643900
C -12.180600 -11.182200 -22.183000
H -12.120200 -12.629400 -24.350600
N -11.886300 -10.099300 -22.062000
N -16.432000 -15.364000 -25.517800
H -16.219700 -13.140300 -22.907500
C -16.163700 -14.291500 -25.241000
C -15.908400 -12.543500 -23.549100
C -15.815100 -12.951800 -24.874200
H -15.610700 -11.007600 -22.278500
C -15.547300 -11.267800 -23.169000
O -15.430600 -9.659600 -20.554600
C -15.358900 -12.037100 -25.840900
C -15.287600 -12.456800 -27.214400
N -15.259500 -12.803300 -28.294700
C -15.087500 -10.372600 -24.132700
C -15.005500 -8.736000 -21.213200
C -14.994000 -10.754200 -25.470300
N -14.706200 -9.054500 -23.823500
H -14.689500 -10.151600 -26.109200
C -14.684900 -8.442100 -22.628300
C -14.605400 -7.328300 -20.885200
O -14.597100 -6.691300 -19.847600
H -14.453100 -8.575100 -24.491100
C -14.293400 -7.128200 -22.305700
H -13.863300 -4.804000 -20.819300
N -13.827800 -6.160800 -23.106700
H -13.773100 -6.373200 -23.938200
C -13.518900 -4.303500 -21.523900
C -13.415100 -4.854200 -22.801100
N -13.343600 -1.878000 -19.005100
C -13.238500 -2.385400 -20.024200
C -13.099000 -2.991700 -21.323500
C -12.895400 -4.109700 -23.849200
H -12.832000 -4.487700 -24.696500
C -12.572100 -2.236800 -22.382000
C -12.472100 -2.808200 -23.643900
C -12.180600 -0.869400 -22.183000
H -12.120200 -2.316600 -24.350600
N -11.886300 0.213500 -22.062000
