31
Fragment
O -8.850300 -10.796000 -17.292500
H -8.154500 -8.756500 -18.920900
O -8.115100 -8.687900 -21.618200
H -7.735800 -11.540300 -15.310000
C -7.734000 -10.450100 -16.888800
H -7.596100 -10.527100 -23.075600
C -7.510500 -9.722600 -21.328200
N -7.312600 -10.700900 -22.283000
N -7.239000 -10.963900 -15.711500
C -7.219200 -9.013600 -18.920900
C -6.989100 -10.021500 -20.021200
C -6.856000 -9.528000 -17.559200
C -6.712000 -11.922000 -22.098600
H -6.694900 -8.219100 -19.107400
O -6.641600 -12.741200 -23.004200
C -6.363900 -11.191200 -19.853600
H -6.217600 -14.088700 -20.428100
N -6.196500 -12.124500 -20.847500
C -6.042100 -10.663200 -15.102300
H -6.021000 -11.386300 -19.010500
C -5.707900 -9.205800 -16.953100
O -5.692300 -11.207600 -14.070500
C -5.547100 -13.414500 -20.558800
N -5.298200 -9.721300 -15.754800
H -5.151500 -8.591100 -17.374700
H -5.014200 -13.333900 -19.764100
H -4.984600 -13.661500 -21.297600
H -4.071500 -8.477100 -14.777700
C -4.000400 -9.341400 -15.189800
H -3.736000 -9.988300 -14.532100
H -3.343800 -9.308600 -15.889700
31
Fragment
H -2.178100 -6.696900 -15.729500
H -1.785900 -6.017200 -17.087000
C -1.521500 -6.664100 -16.429300
H -1.450400 -7.528400 -16.841400
H -0.537300 -2.344000 -10.321500
H -0.507700 -2.671600 -11.855100
H -0.370400 -7.414400 -14.244400
N -0.223700 -6.284200 -15.864400
C 0.025200 -2.591000 -11.060400
O 0.170400 -4.797900 -17.548600
C 0.186000 -6.799700 -14.666000
H 0.499000 -4.619200 -12.608700
C 0.520200 -5.342300 -16.516800
N 0.674600 -3.881000 -10.771600
H 0.695700 -1.916800 -11.191100
C 0.842000 -4.814300 -11.765500
O 1.119600 -3.264300 -8.614900
H 1.173000 -7.786400 -12.511700
C 1.190100 -4.083500 -9.520500
C 1.334100 -6.477600 -14.060000
C 1.467100 -5.984000 -11.597900
C 1.697300 -6.991900 -12.698200
N 1.717000 -5.041600 -15.907600
N 1.790700 -5.304700 -9.336100
C 1.988600 -6.282900 -10.291000
H 2.074200 -5.478400 -8.543500
C 2.212100 -5.555400 -14.730300
H 2.213800 -4.465200 -16.309100
O 2.593100 -7.317600 -10.000900
H 2.632500 -7.249000 -12.698200
O 3.328300 -5.209500 -14.326600
62
Fragment
O -8.850300 -10.796000 -17.292500
H -8.154500 -8.756500 -18.920900
O -8.115100 -8.687900 -21.618200
H -7.735800 -11.540300 -15.310000
C -7.734000 -10.450100 -16.888800
H -7.596100 -10.527100 -23.075600
C -7.510500 -9.722600 -21.328200
N -7.312600 -10.700900 -22.283000
N -7.239000 -10.963900 -15.711500
C -7.219200 -9.013600 -18.920900
C -6.989100 -10.021500 -20.021200
C -6.856000 -9.528000 -17.559200
C -6.712000 -11.922000 -22.098600
H -6.694900 -8.219100 -19.107400
O -6.641600 -12.741200 -23.004200
C -6.363900 -11.191200 -19.853600
H -6.217600 -14.088700 -20.428100
N -6.196500 -12.124500 -20.847500
C -6.042100 -10.663200 -15.102300
H -6.021000 -11.386300 -19.010500
C -5.707900 -9.205800 -16.953100
O -5.692300 -11.207600 -14.070500
C -5.547100 -13.414500 -20.558800
N -5.298200 -9.721300 -15.754800
H -5.151500 -8.591100 -17.374700
H -5.014200 -13.333900 -19.764100
H -4.984600 -13.661500 -21.297600
H -4.071500 -8.477100 -14.777700
C -4.000400 -9.341400 -15.189800
H -3.736000 -9.988300 -14.532100
H -3.343800 -9.308600 -15.889700
H -2.178100 -6.696900 -15.729500
H -1.785900 -6.017200 -17.087000
C -1.521500 -6.664100 -16.429300
H -1.450400 -7.528400 -16.841400
H -0.537300 -2.344000 -10.321500
H -0.507700 -2.671600 -11.855100
H -0.370400 -7.414400 -14.244400
N -0.223700 -6.284200 -15.864400
C 0.025200 -2.591000 -11.060400
O 0.170400 -4.797900 -17.548600
C 0.186000 -6.799700 -14.666000
H 0.499000 -4.619200 -12.608700
C 0.520200 -5.342300 -16.516800
N 0.674600 -3.881000 -10.771600
H 0.695700 -1.916800 -11.191100
C 0.842000 -4.814300 -11.765500
O 1.119600 -3.264300 -8.614900
H 1.173000 -7.786400 -12.511700
C 1.190100 -4.083500 -9.520500
C 1.334100 -6.477600 -14.060000
C 1.467100 -5.984000 -11.597900
C 1.697300 -6.991900 -12.698200
N 1.717000 -5.041600 -15.907600
N 1.790700 -5.304700 -9.336100
C 1.988600 -6.282900 -10.291000
H 2.074200 -5.478400 -8.543500
C 2.212100 -5.555400 -14.730300
H 2.213800 -4.465200 -16.309100
O 2.593100 -7.317600 -10.000900
H 2.632500 -7.249000 -12.698200
O 3.328300 -5.209500 -14.326600
