31
Fragment
O -8.850300 -10.796000 -17.292500
H -8.154500 -8.756500 -18.920900
O -8.115100 -8.687900 -21.618200
H -7.735800 -11.540300 -15.310000
C -7.734000 -10.450100 -16.888800
H -7.596100 -10.527100 -23.075600
C -7.510500 -9.722600 -21.328200
N -7.312600 -10.700900 -22.283000
N -7.239000 -10.963900 -15.711500
C -7.219200 -9.013600 -18.920900
C -6.989100 -10.021500 -20.021200
C -6.856000 -9.528000 -17.559200
C -6.712000 -11.922000 -22.098600
H -6.694900 -8.219100 -19.107400
O -6.641600 -12.741200 -23.004200
C -6.363900 -11.191200 -19.853600
H -6.217600 -14.088700 -20.428100
N -6.196500 -12.124500 -20.847500
C -6.042100 -10.663200 -15.102300
H -6.021000 -11.386300 -19.010500
C -5.707900 -9.205800 -16.953100
O -5.692300 -11.207600 -14.070500
C -5.547100 -13.414500 -20.558800
N -5.298200 -9.721300 -15.754800
H -5.151500 -8.591100 -17.374700
H -5.014200 -13.333900 -19.764100
H -4.984600 -13.661500 -21.297600
H -4.071500 -8.477100 -14.777700
C -4.000400 -9.341400 -15.189800
H -3.736000 -9.988300 -14.532100
H -3.343800 -9.308600 -15.889700
31
Fragment
O -8.886100 -13.157100 -6.752800
H -8.190300 -11.117600 -8.381200
O -8.150900 -11.049000 -11.078500
H -7.771600 -13.901400 -4.770300
C -7.769800 -12.811200 -6.349100
H -7.631900 -12.888300 -12.535900
C -7.546400 -12.083700 -10.788400
N -7.348400 -13.062000 -11.743300
N -7.274800 -13.325000 -5.171800
C -7.255100 -11.374700 -8.381200
C -7.024900 -12.382700 -9.481500
C -6.891800 -11.889100 -7.019400
C -6.747800 -14.283100 -11.558900
H -6.730700 -10.580200 -8.567700
O -6.677400 -15.102300 -12.464500
C -6.399800 -13.552300 -9.313900
H -6.253400 -16.449800 -9.888400
N -6.232400 -14.485700 -10.307800
C -6.077900 -13.024400 -4.562600
H -6.056800 -13.747400 -8.470800
C -5.743800 -11.566900 -6.413400
O -5.728100 -13.568800 -3.530800
C -5.582900 -15.775600 -10.019000
N -5.334000 -12.082400 -5.215000
H -5.187300 -10.952200 -6.835000
H -5.050000 -15.695000 -9.224400
H -5.020400 -16.022600 -10.757900
H -4.107400 -10.838200 -4.238000
C -4.036200 -11.702600 -4.650100
H -3.771900 -12.349400 -3.992400
H -3.379600 -11.669700 -5.350000
62
Fragment
O -8.850300 -10.796000 -17.292500
H -8.154500 -8.756500 -18.920900
O -8.115100 -8.687900 -21.618200
H -7.735800 -11.540300 -15.310000
C -7.734000 -10.450100 -16.888800
H -7.596100 -10.527100 -23.075600
C -7.510500 -9.722600 -21.328200
N -7.312600 -10.700900 -22.283000
N -7.239000 -10.963900 -15.711500
C -7.219200 -9.013600 -18.920900
C -6.989100 -10.021500 -20.021200
C -6.856000 -9.528000 -17.559200
C -6.712000 -11.922000 -22.098600
H -6.694900 -8.219100 -19.107400
O -6.641600 -12.741200 -23.004200
C -6.363900 -11.191200 -19.853600
H -6.217600 -14.088700 -20.428100
N -6.196500 -12.124500 -20.847500
C -6.042100 -10.663200 -15.102300
H -6.021000 -11.386300 -19.010500
C -5.707900 -9.205800 -16.953100
O -5.692300 -11.207600 -14.070500
C -5.547100 -13.414500 -20.558800
N -5.298200 -9.721300 -15.754800
H -5.151500 -8.591100 -17.374700
H -5.014200 -13.333900 -19.764100
H -4.984600 -13.661500 -21.297600
H -4.071500 -8.477100 -14.777700
C -4.000400 -9.341400 -15.189800
H -3.736000 -9.988300 -14.532100
H -3.343800 -9.308600 -15.889700
O -8.886100 -13.157100 -6.752800
H -8.190300 -11.117600 -8.381200
O -8.150900 -11.049000 -11.078500
H -7.771600 -13.901400 -4.770300
C -7.769800 -12.811200 -6.349100
H -7.631900 -12.888300 -12.535900
C -7.546400 -12.083700 -10.788400
N -7.348400 -13.062000 -11.743300
N -7.274800 -13.325000 -5.171800
C -7.255100 -11.374700 -8.381200
C -7.024900 -12.382700 -9.481500
C -6.891800 -11.889100 -7.019400
C -6.747800 -14.283100 -11.558900
H -6.730700 -10.580200 -8.567700
O -6.677400 -15.102300 -12.464500
C -6.399800 -13.552300 -9.313900
H -6.253400 -16.449800 -9.888400
N -6.232400 -14.485700 -10.307800
C -6.077900 -13.024400 -4.562600
H -6.056800 -13.747400 -8.470800
C -5.743800 -11.566900 -6.413400
O -5.728100 -13.568800 -3.530800
C -5.582900 -15.775600 -10.019000
N -5.334000 -12.082400 -5.215000
H -5.187300 -10.952200 -6.835000
H -5.050000 -15.695000 -9.224400
H -5.020400 -16.022600 -10.757900
H -4.107400 -10.838200 -4.238000
C -4.036200 -11.702600 -4.650100
H -3.771900 -12.349400 -3.992400
H -3.379600 -11.669700 -5.350000
