31
Fragment
O -8.850300 -10.796000 -17.292500
H -8.154500 -8.756500 -18.920900
O -8.115100 -8.687900 -21.618200
H -7.735800 -11.540300 -15.310000
C -7.734000 -10.450100 -16.888800
H -7.596100 -10.527100 -23.075600
C -7.510500 -9.722600 -21.328200
N -7.312600 -10.700900 -22.283000
N -7.239000 -10.963900 -15.711500
C -7.219200 -9.013600 -18.920900
C -6.989100 -10.021500 -20.021200
C -6.856000 -9.528000 -17.559200
C -6.712000 -11.922000 -22.098600
H -6.694900 -8.219100 -19.107400
O -6.641600 -12.741200 -23.004200
C -6.363900 -11.191200 -19.853600
H -6.217600 -14.088700 -20.428100
N -6.196500 -12.124500 -20.847500
C -6.042100 -10.663200 -15.102300
H -6.021000 -11.386300 -19.010500
C -5.707900 -9.205800 -16.953100
O -5.692300 -11.207600 -14.070500
C -5.547100 -13.414500 -20.558800
N -5.298200 -9.721300 -15.754800
H -5.151500 -8.591100 -17.374700
H -5.014200 -13.333900 -19.764100
H -4.984600 -13.661500 -21.297600
H -4.071500 -8.477100 -14.777700
C -4.000400 -9.341400 -15.189800
H -3.736000 -9.988300 -14.532100
H -3.343800 -9.308600 -15.889700
31
Fragment
O -8.814400 -8.434900 -27.832200
H -8.118700 -6.395400 -29.460600
O -8.079200 -6.326800 -32.157900
H -7.699900 -9.179200 -25.849700
C -7.698200 -8.088900 -27.428500
H -7.560300 -8.166000 -33.615300
C -7.474700 -7.361500 -31.867900
N -7.276800 -8.339700 -32.822800
N -7.203100 -8.602800 -26.251200
C -7.183400 -6.652400 -29.460600
C -6.953200 -7.660400 -30.560900
C -6.820200 -7.166800 -28.098900
C -6.676200 -9.560900 -32.638300
H -6.659100 -5.857900 -29.647100
O -6.605700 -10.380100 -33.543900
C -6.328100 -8.830100 -30.393400
H -6.181800 -11.727600 -30.967800
N -6.160700 -9.763400 -31.387200
C -6.006300 -8.302100 -25.642100
H -5.985100 -9.025100 -29.550200
C -5.672100 -6.844700 -27.492800
O -5.656500 -8.846500 -24.610200
C -5.511300 -11.053400 -31.098500
N -5.262400 -7.360200 -26.294500
H -5.115700 -6.229900 -27.914400
H -4.978400 -10.972800 -30.303800
H -4.948800 -11.300400 -31.837300
H -4.035700 -6.116000 -25.317400
C -3.964600 -6.980300 -25.729500
H -3.700200 -7.627100 -25.071900
H -3.308000 -6.947400 -26.429400
62
Fragment
O -8.850300 -10.796000 -17.292500
H -8.154500 -8.756500 -18.920900
O -8.115100 -8.687900 -21.618200
H -7.735800 -11.540300 -15.310000
C -7.734000 -10.450100 -16.888800
H -7.596100 -10.527100 -23.075600
C -7.510500 -9.722600 -21.328200
N -7.312600 -10.700900 -22.283000
N -7.239000 -10.963900 -15.711500
C -7.219200 -9.013600 -18.920900
C -6.989100 -10.021500 -20.021200
C -6.856000 -9.528000 -17.559200
C -6.712000 -11.922000 -22.098600
H -6.694900 -8.219100 -19.107400
O -6.641600 -12.741200 -23.004200
C -6.363900 -11.191200 -19.853600
H -6.217600 -14.088700 -20.428100
N -6.196500 -12.124500 -20.847500
C -6.042100 -10.663200 -15.102300
H -6.021000 -11.386300 -19.010500
C -5.707900 -9.205800 -16.953100
O -5.692300 -11.207600 -14.070500
C -5.547100 -13.414500 -20.558800
N -5.298200 -9.721300 -15.754800
H -5.151500 -8.591100 -17.374700
H -5.014200 -13.333900 -19.764100
H -4.984600 -13.661500 -21.297600
H -4.071500 -8.477100 -14.777700
C -4.000400 -9.341400 -15.189800
H -3.736000 -9.988300 -14.532100
H -3.343800 -9.308600 -15.889700
O -8.814400 -8.434900 -27.832200
H -8.118700 -6.395400 -29.460600
O -8.079200 -6.326800 -32.157900
H -7.699900 -9.179200 -25.849700
C -7.698200 -8.088900 -27.428500
H -7.560300 -8.166000 -33.615300
C -7.474700 -7.361500 -31.867900
N -7.276800 -8.339700 -32.822800
N -7.203100 -8.602800 -26.251200
C -7.183400 -6.652400 -29.460600
C -6.953200 -7.660400 -30.560900
C -6.820200 -7.166800 -28.098900
C -6.676200 -9.560900 -32.638300
H -6.659100 -5.857900 -29.647100
O -6.605700 -10.380100 -33.543900
C -6.328100 -8.830100 -30.393400
H -6.181800 -11.727600 -30.967800
N -6.160700 -9.763400 -31.387200
C -6.006300 -8.302100 -25.642100
H -5.985100 -9.025100 -29.550200
C -5.672100 -6.844700 -27.492800
O -5.656500 -8.846500 -24.610200
C -5.511300 -11.053400 -31.098500
N -5.262400 -7.360200 -26.294500
H -5.115700 -6.229900 -27.914400
H -4.978400 -10.972800 -30.303800
H -4.948800 -11.300400 -31.837300
H -4.035700 -6.116000 -25.317400
C -3.964600 -6.980300 -25.729500
H -3.700200 -7.627100 -25.071900
H -3.308000 -6.947400 -26.429400
