31
Fragment
O -8.850300 -10.796000 -17.292500
H -8.154500 -8.756500 -18.920900
O -8.115100 -8.687900 -21.618200
H -7.735800 -11.540300 -15.310000
C -7.734000 -10.450100 -16.888800
H -7.596100 -10.527100 -23.075600
C -7.510500 -9.722600 -21.328200
N -7.312600 -10.700900 -22.283000
N -7.239000 -10.963900 -15.711500
C -7.219200 -9.013600 -18.920900
C -6.989100 -10.021500 -20.021200
C -6.856000 -9.528000 -17.559200
C -6.712000 -11.922000 -22.098600
H -6.694900 -8.219100 -19.107400
O -6.641600 -12.741200 -23.004200
C -6.363900 -11.191200 -19.853600
H -6.217600 -14.088700 -20.428100
N -6.196500 -12.124500 -20.847500
C -6.042100 -10.663200 -15.102300
H -6.021000 -11.386300 -19.010500
C -5.707900 -9.205800 -16.953100
O -5.692300 -11.207600 -14.070500
C -5.547100 -13.414500 -20.558800
N -5.298200 -9.721300 -15.754800
H -5.151500 -8.591100 -17.374700
H -5.014200 -13.333900 -19.764100
H -4.984600 -13.661500 -21.297600
H -4.071500 -8.477100 -14.777700
C -4.000400 -9.341400 -15.189800
H -3.736000 -9.988300 -14.532100
H -3.343800 -9.308600 -15.889700
3
Fragment
H -1.690100 -9.087900 -13.027100
O -1.333300 -9.812400 -13.479200
H -1.101900 -10.337500 -12.774100
34
Fragment
O -8.850300 -10.796000 -17.292500
H -8.154500 -8.756500 -18.920900
O -8.115100 -8.687900 -21.618200
H -7.735800 -11.540300 -15.310000
C -7.734000 -10.450100 -16.888800
H -7.596100 -10.527100 -23.075600
C -7.510500 -9.722600 -21.328200
N -7.312600 -10.700900 -22.283000
N -7.239000 -10.963900 -15.711500
C -7.219200 -9.013600 -18.920900
C -6.989100 -10.021500 -20.021200
C -6.856000 -9.528000 -17.559200
C -6.712000 -11.922000 -22.098600
H -6.694900 -8.219100 -19.107400
O -6.641600 -12.741200 -23.004200
C -6.363900 -11.191200 -19.853600
H -6.217600 -14.088700 -20.428100
N -6.196500 -12.124500 -20.847500
C -6.042100 -10.663200 -15.102300
H -6.021000 -11.386300 -19.010500
C -5.707900 -9.205800 -16.953100
O -5.692300 -11.207600 -14.070500
C -5.547100 -13.414500 -20.558800
N -5.298200 -9.721300 -15.754800
H -5.151500 -8.591100 -17.374700
H -5.014200 -13.333900 -19.764100
H -4.984600 -13.661500 -21.297600
H -4.071500 -8.477100 -14.777700
C -4.000400 -9.341400 -15.189800
H -3.736000 -9.988300 -14.532100
H -3.343800 -9.308600 -15.889700
H -1.690100 -9.087900 -13.027100
O -1.333300 -9.812400 -13.479200
H -1.101900 -10.337500 -12.774100
