15
Fragment
O -15.728200 -13.948300 -37.706500
H -15.255000 -12.227100 -39.311100
C -14.615600 -13.521100 -38.001300
N -14.521300 -12.521200 -38.957200
H -13.872000 -15.757200 -36.625600
H -13.794200 -14.601200 -35.568600
O -13.378600 -11.104400 -40.321400
C -13.376500 -14.984800 -36.343900
C -13.369100 -11.989700 -39.454300
C -13.356300 -13.974600 -37.451100
H -12.477200 -15.241900 -36.129300
C -12.229700 -13.463200 -37.964300
N -12.229200 -12.505600 -38.951600
H -11.495100 -12.218100 -39.292300
H -11.413100 -13.768400 -37.639700
15
Fragment
H -19.861400 -18.280200 -37.639700
H -19.779400 -16.729900 -39.292300
N -19.045400 -17.017400 -38.951600
C -19.044800 -17.975000 -37.964300
H -18.797400 -19.753800 -36.129300
C -17.918200 -18.486400 -37.451100
C -17.905400 -16.501500 -39.454300
C -17.898100 -19.496600 -36.343900
O -17.896000 -15.616200 -40.321400
H -17.480400 -19.113100 -35.568600
H -17.402500 -20.269000 -36.625600
N -16.753300 -17.033000 -38.957200
C -16.658900 -18.033000 -38.001300
H -16.019500 -16.739000 -39.311100
O -15.546300 -18.460100 -37.706500
30
Fragment
O -15.728200 -13.948300 -37.706500
H -15.255000 -12.227100 -39.311100
C -14.615600 -13.521100 -38.001300
N -14.521300 -12.521200 -38.957200
H -13.872000 -15.757200 -36.625600
H -13.794200 -14.601200 -35.568600
O -13.378600 -11.104400 -40.321400
C -13.376500 -14.984800 -36.343900
C -13.369100 -11.989700 -39.454300
C -13.356300 -13.974600 -37.451100
H -12.477200 -15.241900 -36.129300
C -12.229700 -13.463200 -37.964300
N -12.229200 -12.505600 -38.951600
H -11.495100 -12.218100 -39.292300
H -11.413100 -13.768400 -37.639700
H -19.861400 -18.280200 -37.639700
H -19.779400 -16.729900 -39.292300
N -19.045400 -17.017400 -38.951600
C -19.044800 -17.975000 -37.964300
H -18.797400 -19.753800 -36.129300
C -17.918200 -18.486400 -37.451100
C -17.905400 -16.501500 -39.454300
C -17.898100 -19.496600 -36.343900
O -17.896000 -15.616200 -40.321400
H -17.480400 -19.113100 -35.568600
H -17.402500 -20.269000 -36.625600
N -16.753300 -17.033000 -38.957200
C -16.658900 -18.033000 -38.001300
H -16.019500 -16.739000 -39.311100
O -15.546300 -18.460100 -37.706500
