14
Fragment
H -22.581700 -9.581600 -13.459400
O -21.968400 -10.015900 -13.959600
H -21.296900 -9.198700 -11.569100
C -20.809900 -10.212900 -13.245300
C -20.623500 -9.699400 -11.970000
H -19.924200 -11.307200 -14.687300
C -19.803400 -10.959300 -13.833200
C -19.438600 -9.930900 -11.293400
H -19.317800 -9.583000 -10.439200
C -18.618500 -11.190800 -13.156500
C -18.432100 -10.677300 -11.881200
H -17.945100 -11.691500 -13.557400
O -17.273600 -10.874300 -11.166900
H -16.660300 -11.308600 -11.667100
14
Fragment
H -22.020000 -14.790300 -17.647200
O -21.406800 -14.356000 -18.147400
H -20.735200 -15.173200 -15.756800
C -20.248200 -14.159000 -17.433000
C -20.061900 -14.672500 -16.157800
H -19.362500 -13.064700 -18.875000
C -19.241700 -13.412600 -18.020900
C -18.877000 -14.441000 -15.481100
H -18.756200 -14.788900 -14.627000
C -18.056800 -13.181100 -17.344200
C -17.870500 -13.694600 -16.069000
H -17.383400 -12.680400 -17.745200
O -16.711900 -13.497600 -15.354600
H -16.098700 -13.063300 -15.854800
28
Fragment
H -22.581700 -9.581600 -13.459400
O -21.968400 -10.015900 -13.959600
H -21.296900 -9.198700 -11.569100
C -20.809900 -10.212900 -13.245300
C -20.623500 -9.699400 -11.970000
H -19.924200 -11.307200 -14.687300
C -19.803400 -10.959300 -13.833200
C -19.438600 -9.930900 -11.293400
H -19.317800 -9.583000 -10.439200
C -18.618500 -11.190800 -13.156500
C -18.432100 -10.677300 -11.881200
H -17.945100 -11.691500 -13.557400
O -17.273600 -10.874300 -11.166900
H -16.660300 -11.308600 -11.667100
H -22.020000 -14.790300 -17.647200
O -21.406800 -14.356000 -18.147400
H -20.735200 -15.173200 -15.756800
C -20.248200 -14.159000 -17.433000
C -20.061900 -14.672500 -16.157800
H -19.362500 -13.064700 -18.875000
C -19.241700 -13.412600 -18.020900
C -18.877000 -14.441000 -15.481100
H -18.756200 -14.788900 -14.627000
C -18.056800 -13.181100 -17.344200
C -17.870500 -13.694600 -16.069000
H -17.383400 -12.680400 -17.745200
O -16.711900 -13.497600 -15.354600
H -16.098700 -13.063300 -15.854800
