15
Fragment
O -15.728200 -13.948300 -37.706500
H -15.255000 -12.227100 -39.311100
C -14.615600 -13.521100 -38.001300
N -14.521300 -12.521200 -38.957200
H -13.872000 -15.757200 -36.625600
H -13.794200 -14.601200 -35.568600
O -13.378600 -11.104400 -40.321400
C -13.376500 -14.984800 -36.343900
C -13.369100 -11.989700 -39.454300
C -13.356300 -13.974600 -37.451100
H -12.477200 -15.241900 -36.129300
C -12.229700 -13.463200 -37.964300
N -12.229200 -12.505600 -38.951600
H -11.495100 -12.218100 -39.292300
H -11.413100 -13.768400 -37.639700
15
Fragment
H -19.861400 -9.256500 -37.639700
H -19.779400 -7.706200 -39.292300
N -19.045400 -7.993700 -38.951600
C -19.044800 -8.951300 -37.964300
H -18.797400 -10.730100 -36.129300
C -17.918200 -9.462700 -37.451100
C -17.905400 -7.477800 -39.454300
C -17.898100 -10.472900 -36.343900
O -17.896000 -6.592500 -40.321400
H -17.480400 -10.089400 -35.568600
H -17.402500 -11.245300 -36.625600
N -16.753300 -8.009300 -38.957200
C -16.658900 -9.009300 -38.001300
H -16.019500 -7.715300 -39.311100
O -15.546300 -9.436400 -37.706500
30
Fragment
O -15.728200 -13.948300 -37.706500
H -15.255000 -12.227100 -39.311100
C -14.615600 -13.521100 -38.001300
N -14.521300 -12.521200 -38.957200
H -13.872000 -15.757200 -36.625600
H -13.794200 -14.601200 -35.568600
O -13.378600 -11.104400 -40.321400
C -13.376500 -14.984800 -36.343900
C -13.369100 -11.989700 -39.454300
C -13.356300 -13.974600 -37.451100
H -12.477200 -15.241900 -36.129300
C -12.229700 -13.463200 -37.964300
N -12.229200 -12.505600 -38.951600
H -11.495100 -12.218100 -39.292300
H -11.413100 -13.768400 -37.639700
H -19.861400 -9.256500 -37.639700
H -19.779400 -7.706200 -39.292300
N -19.045400 -7.993700 -38.951600
C -19.044800 -8.951300 -37.964300
H -18.797400 -10.730100 -36.129300
C -17.918200 -9.462700 -37.451100
C -17.905400 -7.477800 -39.454300
C -17.898100 -10.472900 -36.343900
O -17.896000 -6.592500 -40.321400
H -17.480400 -10.089400 -35.568600
H -17.402500 -11.245300 -36.625600
N -16.753300 -8.009300 -38.957200
C -16.658900 -9.009300 -38.001300
H -16.019500 -7.715300 -39.311100
O -15.546300 -9.436400 -37.706500
