14
Fragment
H -22.581700 -9.581600 -13.459400
O -21.968400 -10.015900 -13.959600
H -21.296900 -9.198700 -11.569100
C -20.809900 -10.212900 -13.245300
C -20.623500 -9.699400 -11.970000
H -19.924200 -11.307200 -14.687300
C -19.803400 -10.959300 -13.833200
C -19.438600 -9.930900 -11.293400
H -19.317800 -9.583000 -10.439200
C -18.618500 -11.190800 -13.156500
C -18.432100 -10.677300 -11.881200
H -17.945100 -11.691500 -13.557400
O -17.273600 -10.874300 -11.166900
H -16.660300 -11.308600 -11.667100
15
Fragment
H -17.413200 -13.931000 -12.132800
H -16.941800 -15.209500 -11.358000
C -16.697300 -14.321000 -11.626700
H -16.528900 -13.786100 -10.847100
C -15.461400 -14.377000 -12.471800
O -15.242900 -12.002400 -12.612200
H -15.240700 -16.329900 -12.572500
C -14.872000 -15.523400 -12.851800
C -14.855800 -13.133500 -12.905400
N -13.739600 -15.549300 -13.640800
N -13.735400 -13.256500 -13.706000
H -13.331200 -16.294400 -13.857300
H -13.320300 -12.527200 -13.991300
C -13.150000 -14.422500 -14.096400
O -12.134300 -14.431000 -14.809700
29
Fragment
H -22.581700 -9.581600 -13.459400
O -21.968400 -10.015900 -13.959600
H -21.296900 -9.198700 -11.569100
C -20.809900 -10.212900 -13.245300
C -20.623500 -9.699400 -11.970000
H -19.924200 -11.307200 -14.687300
C -19.803400 -10.959300 -13.833200
C -19.438600 -9.930900 -11.293400
H -19.317800 -9.583000 -10.439200
C -18.618500 -11.190800 -13.156500
C -18.432100 -10.677300 -11.881200
H -17.945100 -11.691500 -13.557400
O -17.273600 -10.874300 -11.166900
H -16.660300 -11.308600 -11.667100
H -17.413200 -13.931000 -12.132800
H -16.941800 -15.209500 -11.358000
C -16.697300 -14.321000 -11.626700
H -16.528900 -13.786100 -10.847100
C -15.461400 -14.377000 -12.471800
O -15.242900 -12.002400 -12.612200
H -15.240700 -16.329900 -12.572500
C -14.872000 -15.523400 -12.851800
C -14.855800 -13.133500 -12.905400
N -13.739600 -15.549300 -13.640800
N -13.735400 -13.256500 -13.706000
H -13.331200 -16.294400 -13.857300
H -13.320300 -12.527200 -13.991300
C -13.150000 -14.422500 -14.096400
O -12.134300 -14.431000 -14.809700
