14
Fragment
H -22.581700 -9.581600 -13.459400
O -21.968400 -10.015900 -13.959600
H -21.296900 -9.198700 -11.569100
C -20.809900 -10.212900 -13.245300
C -20.623500 -9.699400 -11.970000
H -19.924200 -11.307200 -14.687300
C -19.803400 -10.959300 -13.833200
C -19.438600 -9.930900 -11.293400
H -19.317800 -9.583000 -10.439200
C -18.618500 -11.190800 -13.156500
C -18.432100 -10.677300 -11.881200
H -17.945100 -11.691500 -13.557400
O -17.273600 -10.874300 -11.166900
H -16.660300 -11.308600 -11.667100
15
Fragment
O -27.669300 -10.949300 -6.129100
C -26.653700 -10.940800 -6.842400
H -26.483300 -9.045500 -6.947500
H -26.472500 -12.812700 -7.081500
N -26.068200 -9.774800 -7.232800
N -26.064000 -12.067600 -7.297900
C -24.947800 -9.651800 -8.033400
C -24.931700 -12.041700 -8.087000
H -24.563000 -12.848200 -8.366300
O -24.560800 -8.520700 -8.326600
C -24.342300 -10.895300 -8.467000
H -23.274800 -10.304400 -10.091600
C -23.106400 -10.839300 -9.312100
H -22.861800 -11.727800 -9.580700
H -22.390500 -10.449300 -8.806000
29
Fragment
H -22.581700 -9.581600 -13.459400
O -21.968400 -10.015900 -13.959600
H -21.296900 -9.198700 -11.569100
C -20.809900 -10.212900 -13.245300
C -20.623500 -9.699400 -11.970000
H -19.924200 -11.307200 -14.687300
C -19.803400 -10.959300 -13.833200
C -19.438600 -9.930900 -11.293400
H -19.317800 -9.583000 -10.439200
C -18.618500 -11.190800 -13.156500
C -18.432100 -10.677300 -11.881200
H -17.945100 -11.691500 -13.557400
O -17.273600 -10.874300 -11.166900
H -16.660300 -11.308600 -11.667100
O -27.669300 -10.949300 -6.129100
C -26.653700 -10.940800 -6.842400
H -26.483300 -9.045500 -6.947500
H -26.472500 -12.812700 -7.081500
N -26.068200 -9.774800 -7.232800
N -26.064000 -12.067600 -7.297900
C -24.947800 -9.651800 -8.033400
C -24.931700 -12.041700 -8.087000
H -24.563000 -12.848200 -8.366300
O -24.560800 -8.520700 -8.326600
C -24.342300 -10.895300 -8.467000
H -23.274800 -10.304400 -10.091600
C -23.106400 -10.839300 -9.312100
H -22.861800 -11.727800 -9.580700
H -22.390500 -10.449300 -8.806000
