17
Fragment
H -17.182600 -10.038200 -27.864700
H -16.961300 -8.883300 -25.621000
N -16.552300 -10.598500 -27.588400
N -16.512900 -9.625500 -25.418400
H -16.416500 -8.494600 -22.811700
H -16.338300 -11.295900 -28.072900
C -16.174000 -10.610400 -26.295900
C -15.967700 -9.333200 -22.949600
C -15.945600 -9.957400 -24.188900
N -15.432600 -11.572500 -25.739100
C -15.280200 -9.970200 -21.914500
C -15.269600 -11.170000 -24.408200
H -15.252600 -9.564300 -21.019300
C -14.599700 -11.177000 -22.121600
C -14.578000 -11.788800 -23.373400
H -14.131500 -11.576400 -21.359300
H -14.092400 -12.612200 -23.528300
17
Fragment
H -19.299700 -10.304100 -15.583300
H -19.260600 -11.339900 -13.414300
C -18.814100 -11.127500 -15.428400
C -18.792400 -11.739300 -14.176600
H -18.139500 -13.351900 -13.074300
C -18.122500 -11.746200 -16.463200
C -18.111900 -12.946000 -13.969500
N -17.959500 -11.343700 -17.794100
C -17.446500 -12.958900 -16.243900
C -17.424400 -13.583000 -15.004600
C -17.218100 -12.305800 -18.350900
H -17.053800 -11.620400 -20.127900
H -16.975600 -14.421700 -14.866700
N -16.879200 -13.290800 -17.473400
N -16.839800 -12.317800 -19.643400
H -16.430800 -14.033000 -17.676000
H -16.209500 -12.878000 -19.919700
34
Fragment
H -17.182600 -10.038200 -27.864700
H -16.961300 -8.883300 -25.621000
N -16.552300 -10.598500 -27.588400
N -16.512900 -9.625500 -25.418400
H -16.416500 -8.494600 -22.811700
H -16.338300 -11.295900 -28.072900
C -16.174000 -10.610400 -26.295900
C -15.967700 -9.333200 -22.949600
C -15.945600 -9.957400 -24.188900
N -15.432600 -11.572500 -25.739100
C -15.280200 -9.970200 -21.914500
C -15.269600 -11.170000 -24.408200
H -15.252600 -9.564300 -21.019300
C -14.599700 -11.177000 -22.121600
C -14.578000 -11.788800 -23.373400
H -14.131500 -11.576400 -21.359300
H -14.092400 -12.612200 -23.528300
H -19.299700 -10.304100 -15.583300
H -19.260600 -11.339900 -13.414300
C -18.814100 -11.127500 -15.428400
C -18.792400 -11.739300 -14.176600
H -18.139500 -13.351900 -13.074300
C -18.122500 -11.746200 -16.463200
C -18.111900 -12.946000 -13.969500
N -17.959500 -11.343700 -17.794100
C -17.446500 -12.958900 -16.243900
C -17.424400 -13.583000 -15.004600
C -17.218100 -12.305800 -18.350900
H -17.053800 -11.620400 -20.127900
H -16.975600 -14.421700 -14.866700
N -16.879200 -13.290800 -17.473400
N -16.839800 -12.317800 -19.643400
H -16.430800 -14.033000 -17.676000
H -16.209500 -12.878000 -19.919700
