17
Fragment
H -17.182600 -10.038200 -27.864700
H -16.961300 -8.883300 -25.621000
N -16.552300 -10.598500 -27.588400
N -16.512900 -9.625500 -25.418400
H -16.416500 -8.494600 -22.811700
H -16.338300 -11.295900 -28.072900
C -16.174000 -10.610400 -26.295900
C -15.967700 -9.333200 -22.949600
C -15.945600 -9.957400 -24.188900
N -15.432600 -11.572500 -25.739100
C -15.280200 -9.970200 -21.914500
C -15.269600 -11.170000 -24.408200
H -15.252600 -9.564300 -21.019300
C -14.599700 -11.177000 -22.121600
C -14.578000 -11.788800 -23.373400
H -14.131500 -11.576400 -21.359300
H -14.092400 -12.612200 -23.528300
17
Fragment
H -14.529400 -5.720800 -24.141700
H -14.490300 -6.756600 -26.310700
C -14.043800 -6.544200 -24.296600
C -14.022100 -7.156000 -25.548400
H -13.369200 -8.768700 -26.650700
C -13.352200 -7.163000 -23.261800
C -13.341600 -8.362800 -25.755500
N -13.189200 -6.760500 -21.930900
C -12.676200 -8.375600 -23.481100
C -12.654100 -8.999800 -24.720400
C -12.447800 -7.722600 -21.374100
H -12.283500 -7.037100 -19.597100
H -12.205300 -9.838400 -24.858300
N -12.108900 -8.707500 -22.251600
N -12.069500 -7.734500 -20.081600
H -11.660500 -9.449700 -22.049000
H -11.439200 -8.294800 -19.805300
34
Fragment
H -17.182600 -10.038200 -27.864700
H -16.961300 -8.883300 -25.621000
N -16.552300 -10.598500 -27.588400
N -16.512900 -9.625500 -25.418400
H -16.416500 -8.494600 -22.811700
H -16.338300 -11.295900 -28.072900
C -16.174000 -10.610400 -26.295900
C -15.967700 -9.333200 -22.949600
C -15.945600 -9.957400 -24.188900
N -15.432600 -11.572500 -25.739100
C -15.280200 -9.970200 -21.914500
C -15.269600 -11.170000 -24.408200
H -15.252600 -9.564300 -21.019300
C -14.599700 -11.177000 -22.121600
C -14.578000 -11.788800 -23.373400
H -14.131500 -11.576400 -21.359300
H -14.092400 -12.612200 -23.528300
H -14.529400 -5.720800 -24.141700
H -14.490300 -6.756600 -26.310700
C -14.043800 -6.544200 -24.296600
C -14.022100 -7.156000 -25.548400
H -13.369200 -8.768700 -26.650700
C -13.352200 -7.163000 -23.261800
C -13.341600 -8.362800 -25.755500
N -13.189200 -6.760500 -21.930900
C -12.676200 -8.375600 -23.481100
C -12.654100 -8.999800 -24.720400
C -12.447800 -7.722600 -21.374100
H -12.283500 -7.037100 -19.597100
H -12.205300 -9.838400 -24.858300
N -12.108900 -8.707500 -22.251600
N -12.069500 -7.734500 -20.081600
H -11.660500 -9.449700 -22.049000
H -11.439200 -8.294800 -19.805300
