17
Fragment
H -17.182600 -10.038200 -27.864700
H -16.961300 -8.883300 -25.621000
N -16.552300 -10.598500 -27.588400
N -16.512900 -9.625500 -25.418400
H -16.416500 -8.494600 -22.811700
H -16.338300 -11.295900 -28.072900
C -16.174000 -10.610400 -26.295900
C -15.967700 -9.333200 -22.949600
C -15.945600 -9.957400 -24.188900
N -15.432600 -11.572500 -25.739100
C -15.280200 -9.970200 -21.914500
C -15.269600 -11.170000 -24.408200
H -15.252600 -9.564300 -21.019300
C -14.599700 -11.177000 -22.121600
C -14.578000 -11.788800 -23.373400
H -14.131500 -11.576400 -21.359300
H -14.092400 -12.612200 -23.528300
17
Fragment
H -19.299700 -17.195400 -23.528300
H -19.260600 -16.159600 -21.359300
C -18.814100 -16.372000 -23.373400
C -18.792400 -15.760200 -22.121600
H -18.139500 -14.147600 -21.019300
C -18.122500 -15.753300 -24.408200
C -18.111900 -14.553500 -21.914500
N -17.959500 -16.155800 -25.739100
C -17.446500 -14.540600 -24.188900
C -17.424400 -13.916500 -22.949600
C -17.218100 -15.193700 -26.295900
H -17.053800 -15.879100 -28.072900
H -16.975600 -13.077800 -22.811700
N -16.879200 -14.208700 -25.418400
N -16.839800 -15.181700 -27.588400
H -16.430800 -13.466500 -25.621000
H -16.209500 -14.621500 -27.864700
34
Fragment
H -17.182600 -10.038200 -27.864700
H -16.961300 -8.883300 -25.621000
N -16.552300 -10.598500 -27.588400
N -16.512900 -9.625500 -25.418400
H -16.416500 -8.494600 -22.811700
H -16.338300 -11.295900 -28.072900
C -16.174000 -10.610400 -26.295900
C -15.967700 -9.333200 -22.949600
C -15.945600 -9.957400 -24.188900
N -15.432600 -11.572500 -25.739100
C -15.280200 -9.970200 -21.914500
C -15.269600 -11.170000 -24.408200
H -15.252600 -9.564300 -21.019300
C -14.599700 -11.177000 -22.121600
C -14.578000 -11.788800 -23.373400
H -14.131500 -11.576400 -21.359300
H -14.092400 -12.612200 -23.528300
H -19.299700 -17.195400 -23.528300
H -19.260600 -16.159600 -21.359300
C -18.814100 -16.372000 -23.373400
C -18.792400 -15.760200 -22.121600
H -18.139500 -14.147600 -21.019300
C -18.122500 -15.753300 -24.408200
C -18.111900 -14.553500 -21.914500
N -17.959500 -16.155800 -25.739100
C -17.446500 -14.540600 -24.188900
C -17.424400 -13.916500 -22.949600
C -17.218100 -15.193700 -26.295900
H -17.053800 -15.879100 -28.072900
H -16.975600 -13.077800 -22.811700
N -16.879200 -14.208700 -25.418400
N -16.839800 -15.181700 -27.588400
H -16.430800 -13.466500 -25.621000
H -16.209500 -14.621500 -27.864700
