17
Fragment
H -17.182600 -10.038200 -27.864700
H -16.961300 -8.883300 -25.621000
N -16.552300 -10.598500 -27.588400
N -16.512900 -9.625500 -25.418400
H -16.416500 -8.494600 -22.811700
H -16.338300 -11.295900 -28.072900
C -16.174000 -10.610400 -26.295900
C -15.967700 -9.333200 -22.949600
C -15.945600 -9.957400 -24.188900
N -15.432600 -11.572500 -25.739100
C -15.280200 -9.970200 -21.914500
C -15.269600 -11.170000 -24.408200
H -15.252600 -9.564300 -21.019300
C -14.599700 -11.177000 -22.121600
C -14.578000 -11.788800 -23.373400
H -14.131500 -11.576400 -21.359300
H -14.092400 -12.612200 -23.528300
17
Fragment
H -17.182600 -8.294800 -19.919700
H -16.961300 -9.449700 -17.676000
N -16.552300 -7.734500 -19.643400
N -16.512900 -8.707500 -17.473400
H -16.416500 -9.838400 -14.866700
H -16.338300 -7.037100 -20.127900
C -16.174000 -7.722600 -18.350900
C -15.967700 -8.999800 -15.004600
C -15.945600 -8.375600 -16.243900
N -15.432600 -6.760500 -17.794100
C -15.280200 -8.362800 -13.969500
C -15.269600 -7.163000 -16.463200
H -15.252600 -8.768700 -13.074300
C -14.599700 -7.156000 -14.176600
C -14.578000 -6.544200 -15.428400
H -14.131500 -6.756600 -13.414300
H -14.092400 -5.720800 -15.583300
34
Fragment
H -17.182600 -10.038200 -27.864700
H -16.961300 -8.883300 -25.621000
N -16.552300 -10.598500 -27.588400
N -16.512900 -9.625500 -25.418400
H -16.416500 -8.494600 -22.811700
H -16.338300 -11.295900 -28.072900
C -16.174000 -10.610400 -26.295900
C -15.967700 -9.333200 -22.949600
C -15.945600 -9.957400 -24.188900
N -15.432600 -11.572500 -25.739100
C -15.280200 -9.970200 -21.914500
C -15.269600 -11.170000 -24.408200
H -15.252600 -9.564300 -21.019300
C -14.599700 -11.177000 -22.121600
C -14.578000 -11.788800 -23.373400
H -14.131500 -11.576400 -21.359300
H -14.092400 -12.612200 -23.528300
H -17.182600 -8.294800 -19.919700
H -16.961300 -9.449700 -17.676000
N -16.552300 -7.734500 -19.643400
N -16.512900 -8.707500 -17.473400
H -16.416500 -9.838400 -14.866700
H -16.338300 -7.037100 -20.127900
C -16.174000 -7.722600 -18.350900
C -15.967700 -8.999800 -15.004600
C -15.945600 -8.375600 -16.243900
N -15.432600 -6.760500 -17.794100
C -15.280200 -8.362800 -13.969500
C -15.269600 -7.163000 -16.463200
H -15.252600 -8.768700 -13.074300
C -14.599700 -7.156000 -14.176600
C -14.578000 -6.544200 -15.428400
H -14.131500 -6.756600 -13.414300
H -14.092400 -5.720800 -15.583300
