28
Fragment
H -9.417800 -8.977800 -16.047800
C -8.489400 -8.757800 -15.905000
H -8.400200 -7.966100 -15.342400
H -8.056200 -12.889800 -12.961700
H -8.052900 -8.569500 -16.806100
O -7.924900 -9.898200 -15.260700
H -7.898000 -11.269500 -12.882300
C -7.415900 -12.137500 -12.998700
O -6.824900 -12.143400 -14.305300
H -6.718100 -12.285500 -12.335700
C -6.568300 -9.869700 -15.058700
H -6.181900 -7.924500 -15.709200
C -6.021600 -11.032000 -14.542500
C -5.766700 -8.758800 -15.372900
C -4.645800 -11.102300 -14.333800
H -4.629700 -6.190600 -15.527600
H -4.463600 -6.955800 -16.991300
C -4.402200 -8.866900 -15.167800
O -4.194700 -12.294700 -13.847800
C -4.014900 -6.698900 -16.128100
C -3.828000 -10.019300 -14.646400
O -3.513800 -7.851600 -15.458700
H -3.218200 -6.147500 -16.347600
H -2.842100 -10.053700 -14.538300
C -2.782900 -12.406000 -13.642400
H -2.641400 -13.320400 -13.270300
H -2.463300 -11.719000 -12.979300
H -2.260000 -12.299900 -14.469500
28
Fragment
H -13.415000 -15.656200 -11.983000
H -13.211700 -16.237100 -13.473100
H -13.033600 -14.635700 -13.182100
C -12.892100 -15.550100 -12.810000
H -12.832900 -17.902400 -11.914200
H -12.456800 -21.808600 -10.104800
O -12.161100 -20.104500 -10.993700
C -11.847000 -17.936800 -11.806000
C -11.660100 -21.257200 -10.324400
O -11.480300 -15.661400 -12.604700
C -11.272800 -19.089200 -11.284600
H -11.211400 -21.000300 -9.461200
H -11.045200 -21.765500 -10.924900
C -11.029200 -16.853800 -12.118700
C -9.908300 -19.197300 -11.079500
C -9.653400 -16.924100 -11.909900
H -9.493100 -20.031600 -10.743200
C -9.106600 -18.086400 -11.393800
H -8.956800 -15.670600 -14.116800
O -8.850100 -15.812700 -12.147100
C -8.259100 -15.818600 -13.453700
H -7.777000 -16.686600 -13.570100
O -7.750100 -18.057900 -11.191800
H -7.622100 -19.386600 -9.646300
H -7.618800 -15.066300 -13.490700
H -7.274800 -19.990000 -11.110000
C -7.185600 -19.198400 -10.547500
H -6.257200 -18.978300 -10.404600
56
Fragment
H -9.417800 -8.977800 -16.047800
C -8.489400 -8.757800 -15.905000
H -8.400200 -7.966100 -15.342400
H -8.056200 -12.889800 -12.961700
H -8.052900 -8.569500 -16.806100
O -7.924900 -9.898200 -15.260700
H -7.898000 -11.269500 -12.882300
C -7.415900 -12.137500 -12.998700
O -6.824900 -12.143400 -14.305300
H -6.718100 -12.285500 -12.335700
C -6.568300 -9.869700 -15.058700
H -6.181900 -7.924500 -15.709200
C -6.021600 -11.032000 -14.542500
C -5.766700 -8.758800 -15.372900
C -4.645800 -11.102300 -14.333800
H -4.629700 -6.190600 -15.527600
H -4.463600 -6.955800 -16.991300
C -4.402200 -8.866900 -15.167800
O -4.194700 -12.294700 -13.847800
C -4.014900 -6.698900 -16.128100
C -3.828000 -10.019300 -14.646400
O -3.513800 -7.851600 -15.458700
H -3.218200 -6.147500 -16.347600
H -2.842100 -10.053700 -14.538300
C -2.782900 -12.406000 -13.642400
H -2.641400 -13.320400 -13.270300
H -2.463300 -11.719000 -12.979300
H -2.260000 -12.299900 -14.469500
H -13.415000 -15.656200 -11.983000
H -13.211700 -16.237100 -13.473100
H -13.033600 -14.635700 -13.182100
C -12.892100 -15.550100 -12.810000
H -12.832900 -17.902400 -11.914200
H -12.456800 -21.808600 -10.104800
O -12.161100 -20.104500 -10.993700
C -11.847000 -17.936800 -11.806000
C -11.660100 -21.257200 -10.324400
O -11.480300 -15.661400 -12.604700
C -11.272800 -19.089200 -11.284600
H -11.211400 -21.000300 -9.461200
H -11.045200 -21.765500 -10.924900
C -11.029200 -16.853800 -12.118700
C -9.908300 -19.197300 -11.079500
C -9.653400 -16.924100 -11.909900
H -9.493100 -20.031600 -10.743200
C -9.106600 -18.086400 -11.393800
H -8.956800 -15.670600 -14.116800
O -8.850100 -15.812700 -12.147100
C -8.259100 -15.818600 -13.453700
H -7.777000 -16.686600 -13.570100
O -7.750100 -18.057900 -11.191800
H -7.622100 -19.386600 -9.646300
H -7.618800 -15.066300 -13.490700
H -7.274800 -19.990000 -11.110000
C -7.185600 -19.198400 -10.547500
H -6.257200 -18.978300 -10.404600
