28
Fragment
H -9.417800 -8.977800 -16.047800
C -8.489400 -8.757800 -15.905000
H -8.400200 -7.966100 -15.342400
H -8.056200 -12.889800 -12.961700
H -8.052900 -8.569500 -16.806100
O -7.924900 -9.898200 -15.260700
H -7.898000 -11.269500 -12.882300
C -7.415900 -12.137500 -12.998700
O -6.824900 -12.143400 -14.305300
H -6.718100 -12.285500 -12.335700
C -6.568300 -9.869700 -15.058700
H -6.181900 -7.924500 -15.709200
C -6.021600 -11.032000 -14.542500
C -5.766700 -8.758800 -15.372900
C -4.645800 -11.102300 -14.333800
H -4.629700 -6.190600 -15.527600
H -4.463600 -6.955800 -16.991300
C -4.402200 -8.866900 -15.167800
O -4.194700 -12.294700 -13.847800
C -4.014900 -6.698900 -16.128100
C -3.828000 -10.019300 -14.646400
O -3.513800 -7.851600 -15.458700
H -3.218200 -6.147500 -16.347600
H -2.842100 -10.053700 -14.538300
C -2.782900 -12.406000 -13.642400
H -2.641400 -13.320400 -13.270300
H -2.463300 -11.719000 -12.979300
H -2.260000 -12.299900 -14.469500
28
Fragment
H -1.309800 -8.977800 -16.047800
C -0.381400 -8.757800 -15.905000
H -0.292200 -7.966100 -15.342400
H 0.051800 -12.889800 -12.961700
H 0.055100 -8.569500 -16.806100
O 0.183100 -9.898200 -15.260700
H 0.210000 -11.269500 -12.882300
C 0.692100 -12.137500 -12.998700
O 1.283100 -12.143400 -14.305300
H 1.389900 -12.285500 -12.335700
C 1.539700 -9.869700 -15.058700
H 1.926100 -7.924500 -15.709200
C 2.086400 -11.032000 -14.542500
C 2.341300 -8.758800 -15.372900
C 3.462200 -11.102300 -14.333800
H 3.478300 -6.190600 -15.527600
H 3.644400 -6.955800 -16.991300
C 3.705800 -8.866900 -15.167800
O 3.913300 -12.294700 -13.847800
C 4.093100 -6.698900 -16.128100
C 4.280000 -10.019300 -14.646400
O 4.594200 -7.851600 -15.458700
H 4.889800 -6.147500 -16.347600
H 5.265900 -10.053700 -14.538300
C 5.325100 -12.406000 -13.642400
H 5.466600 -13.320400 -13.270300
H 5.644700 -11.719000 -12.979300
H 5.848000 -12.299900 -14.469500
56
Fragment
H -9.417800 -8.977800 -16.047800
C -8.489400 -8.757800 -15.905000
H -8.400200 -7.966100 -15.342400
H -8.056200 -12.889800 -12.961700
H -8.052900 -8.569500 -16.806100
O -7.924900 -9.898200 -15.260700
H -7.898000 -11.269500 -12.882300
C -7.415900 -12.137500 -12.998700
O -6.824900 -12.143400 -14.305300
H -6.718100 -12.285500 -12.335700
C -6.568300 -9.869700 -15.058700
H -6.181900 -7.924500 -15.709200
C -6.021600 -11.032000 -14.542500
C -5.766700 -8.758800 -15.372900
C -4.645800 -11.102300 -14.333800
H -4.629700 -6.190600 -15.527600
H -4.463600 -6.955800 -16.991300
C -4.402200 -8.866900 -15.167800
O -4.194700 -12.294700 -13.847800
C -4.014900 -6.698900 -16.128100
C -3.828000 -10.019300 -14.646400
O -3.513800 -7.851600 -15.458700
H -3.218200 -6.147500 -16.347600
H -2.842100 -10.053700 -14.538300
C -2.782900 -12.406000 -13.642400
H -2.641400 -13.320400 -13.270300
H -2.463300 -11.719000 -12.979300
H -2.260000 -12.299900 -14.469500
H -1.309800 -8.977800 -16.047800
C -0.381400 -8.757800 -15.905000
H -0.292200 -7.966100 -15.342400
H 0.051800 -12.889800 -12.961700
H 0.055100 -8.569500 -16.806100
O 0.183100 -9.898200 -15.260700
H 0.210000 -11.269500 -12.882300
C 0.692100 -12.137500 -12.998700
O 1.283100 -12.143400 -14.305300
H 1.389900 -12.285500 -12.335700
C 1.539700 -9.869700 -15.058700
H 1.926100 -7.924500 -15.709200
C 2.086400 -11.032000 -14.542500
C 2.341300 -8.758800 -15.372900
C 3.462200 -11.102300 -14.333800
H 3.478300 -6.190600 -15.527600
H 3.644400 -6.955800 -16.991300
C 3.705800 -8.866900 -15.167800
O 3.913300 -12.294700 -13.847800
C 4.093100 -6.698900 -16.128100
C 4.280000 -10.019300 -14.646400
O 4.594200 -7.851600 -15.458700
H 4.889800 -6.147500 -16.347600
H 5.265900 -10.053700 -14.538300
C 5.325100 -12.406000 -13.642400
H 5.466600 -13.320400 -13.270300
H 5.644700 -11.719000 -12.979300
H 5.848000 -12.299900 -14.469500
