28
Fragment
H -9.417800 -8.977800 -16.047800
C -8.489400 -8.757800 -15.905000
H -8.400200 -7.966100 -15.342400
H -8.056200 -12.889800 -12.961700
H -8.052900 -8.569500 -16.806100
O -7.924900 -9.898200 -15.260700
H -7.898000 -11.269500 -12.882300
C -7.415900 -12.137500 -12.998700
O -6.824900 -12.143400 -14.305300
H -6.718100 -12.285500 -12.335700
C -6.568300 -9.869700 -15.058700
H -6.181900 -7.924500 -15.709200
C -6.021600 -11.032000 -14.542500
C -5.766700 -8.758800 -15.372900
C -4.645800 -11.102300 -14.333800
H -4.629700 -6.190600 -15.527600
H -4.463600 -6.955800 -16.991300
C -4.402200 -8.866900 -15.167800
O -4.194700 -12.294700 -13.847800
C -4.014900 -6.698900 -16.128100
C -3.828000 -10.019300 -14.646400
O -3.513800 -7.851600 -15.458700
H -3.218200 -6.147500 -16.347600
H -2.842100 -10.053700 -14.538300
C -2.782900 -12.406000 -13.642400
H -2.641400 -13.320400 -13.270300
H -2.463300 -11.719000 -12.979300
H -2.260000 -12.299900 -14.469500
16
Fragment
N -13.289100 -17.688600 -8.064400
C -12.260000 -17.237900 -8.293700
H -11.740600 -14.893400 -9.432100
C -10.970300 -16.643300 -8.573900
C -10.908600 -15.391400 -9.174100
N -9.892600 -19.696600 -7.213100
C -9.858900 -18.634400 -7.638100
C -9.796000 -17.316900 -8.225000
C -9.666400 -14.798400 -9.409900
C -9.603400 -13.480900 -9.996800
N -9.569700 -12.418700 -10.421800
C -8.553800 -16.723900 -8.460900
C -8.492000 -15.472000 -9.061100
H -7.721700 -17.221900 -8.202900
C -7.202400 -14.877400 -9.341200
N -6.173300 -14.426700 -9.570600
44
Fragment
H -9.417800 -8.977800 -16.047800
C -8.489400 -8.757800 -15.905000
H -8.400200 -7.966100 -15.342400
H -8.056200 -12.889800 -12.961700
H -8.052900 -8.569500 -16.806100
O -7.924900 -9.898200 -15.260700
H -7.898000 -11.269500 -12.882300
C -7.415900 -12.137500 -12.998700
O -6.824900 -12.143400 -14.305300
H -6.718100 -12.285500 -12.335700
C -6.568300 -9.869700 -15.058700
H -6.181900 -7.924500 -15.709200
C -6.021600 -11.032000 -14.542500
C -5.766700 -8.758800 -15.372900
C -4.645800 -11.102300 -14.333800
H -4.629700 -6.190600 -15.527600
H -4.463600 -6.955800 -16.991300
C -4.402200 -8.866900 -15.167800
O -4.194700 -12.294700 -13.847800
C -4.014900 -6.698900 -16.128100
C -3.828000 -10.019300 -14.646400
O -3.513800 -7.851600 -15.458700
H -3.218200 -6.147500 -16.347600
H -2.842100 -10.053700 -14.538300
C -2.782900 -12.406000 -13.642400
H -2.641400 -13.320400 -13.270300
H -2.463300 -11.719000 -12.979300
H -2.260000 -12.299900 -14.469500
N -13.289100 -17.688600 -8.064400
C -12.260000 -17.237900 -8.293700
H -11.740600 -14.893400 -9.432100
C -10.970300 -16.643300 -8.573900
C -10.908600 -15.391400 -9.174100
N -9.892600 -19.696600 -7.213100
C -9.858900 -18.634400 -7.638100
C -9.796000 -17.316900 -8.225000
C -9.666400 -14.798400 -9.409900
C -9.603400 -13.480900 -9.996800
N -9.569700 -12.418700 -10.421800
C -8.553800 -16.723900 -8.460900
C -8.492000 -15.472000 -9.061100
H -7.721700 -17.221900 -8.202900
C -7.202400 -14.877400 -9.341200
N -6.173300 -14.426700 -9.570600
