28
Fragment
H -9.417800 -8.977800 -16.047800
C -8.489400 -8.757800 -15.905000
H -8.400200 -7.966100 -15.342400
H -8.056200 -12.889800 -12.961700
H -8.052900 -8.569500 -16.806100
O -7.924900 -9.898200 -15.260700
H -7.898000 -11.269500 -12.882300
C -7.415900 -12.137500 -12.998700
O -6.824900 -12.143400 -14.305300
H -6.718100 -12.285500 -12.335700
C -6.568300 -9.869700 -15.058700
H -6.181900 -7.924500 -15.709200
C -6.021600 -11.032000 -14.542500
C -5.766700 -8.758800 -15.372900
C -4.645800 -11.102300 -14.333800
H -4.629700 -6.190600 -15.527600
H -4.463600 -6.955800 -16.991300
C -4.402200 -8.866900 -15.167800
O -4.194700 -12.294700 -13.847800
C -4.014900 -6.698900 -16.128100
C -3.828000 -10.019300 -14.646400
O -3.513800 -7.851600 -15.458700
H -3.218200 -6.147500 -16.347600
H -2.842100 -10.053700 -14.538300
C -2.782900 -12.406000 -13.642400
H -2.641400 -13.320400 -13.270300
H -2.463300 -11.719000 -12.979300
H -2.260000 -12.299900 -14.469500
16
Fragment
N -17.609700 -13.529400 -16.881900
C -16.580600 -13.078700 -17.111200
H -16.061200 -10.734200 -18.249500
C -15.291000 -12.484100 -17.391300
C -15.229200 -11.232200 -17.991500
N -14.213300 -15.537400 -16.030600
C -14.179600 -14.475200 -16.455600
C -14.116600 -13.157700 -17.042500
C -13.987000 -10.639200 -18.227400
C -13.924100 -9.321700 -18.814300
N -13.890400 -8.259500 -19.239300
C -12.874400 -12.564700 -17.278400
C -12.812700 -11.312800 -17.878600
H -12.042400 -13.062700 -17.020400
C -11.523000 -10.718200 -18.158700
N -10.493900 -10.267500 -18.388100
44
Fragment
H -9.417800 -8.977800 -16.047800
C -8.489400 -8.757800 -15.905000
H -8.400200 -7.966100 -15.342400
H -8.056200 -12.889800 -12.961700
H -8.052900 -8.569500 -16.806100
O -7.924900 -9.898200 -15.260700
H -7.898000 -11.269500 -12.882300
C -7.415900 -12.137500 -12.998700
O -6.824900 -12.143400 -14.305300
H -6.718100 -12.285500 -12.335700
C -6.568300 -9.869700 -15.058700
H -6.181900 -7.924500 -15.709200
C -6.021600 -11.032000 -14.542500
C -5.766700 -8.758800 -15.372900
C -4.645800 -11.102300 -14.333800
H -4.629700 -6.190600 -15.527600
H -4.463600 -6.955800 -16.991300
C -4.402200 -8.866900 -15.167800
O -4.194700 -12.294700 -13.847800
C -4.014900 -6.698900 -16.128100
C -3.828000 -10.019300 -14.646400
O -3.513800 -7.851600 -15.458700
H -3.218200 -6.147500 -16.347600
H -2.842100 -10.053700 -14.538300
C -2.782900 -12.406000 -13.642400
H -2.641400 -13.320400 -13.270300
H -2.463300 -11.719000 -12.979300
H -2.260000 -12.299900 -14.469500
N -17.609700 -13.529400 -16.881900
C -16.580600 -13.078700 -17.111200
H -16.061200 -10.734200 -18.249500
C -15.291000 -12.484100 -17.391300
C -15.229200 -11.232200 -17.991500
N -14.213300 -15.537400 -16.030600
C -14.179600 -14.475200 -16.455600
C -14.116600 -13.157700 -17.042500
C -13.987000 -10.639200 -18.227400
C -13.924100 -9.321700 -18.814300
N -13.890400 -8.259500 -19.239300
C -12.874400 -12.564700 -17.278400
C -12.812700 -11.312800 -17.878600
H -12.042400 -13.062700 -17.020400
C -11.523000 -10.718200 -18.158700
N -10.493900 -10.267500 -18.388100
