28
Fragment
H -9.417800 -8.977800 -16.047800
C -8.489400 -8.757800 -15.905000
H -8.400200 -7.966100 -15.342400
H -8.056200 -12.889800 -12.961700
H -8.052900 -8.569500 -16.806100
O -7.924900 -9.898200 -15.260700
H -7.898000 -11.269500 -12.882300
C -7.415900 -12.137500 -12.998700
O -6.824900 -12.143400 -14.305300
H -6.718100 -12.285500 -12.335700
C -6.568300 -9.869700 -15.058700
H -6.181900 -7.924500 -15.709200
C -6.021600 -11.032000 -14.542500
C -5.766700 -8.758800 -15.372900
C -4.645800 -11.102300 -14.333800
H -4.629700 -6.190600 -15.527600
H -4.463600 -6.955800 -16.991300
C -4.402200 -8.866900 -15.167800
O -4.194700 -12.294700 -13.847800
C -4.014900 -6.698900 -16.128100
C -3.828000 -10.019300 -14.646400
O -3.513800 -7.851600 -15.458700
H -3.218200 -6.147500 -16.347600
H -2.842100 -10.053700 -14.538300
C -2.782900 -12.406000 -13.642400
H -2.641400 -13.320400 -13.270300
H -2.463300 -11.719000 -12.979300
H -2.260000 -12.299900 -14.469500
28
Fragment
H -14.763700 -5.547800 -11.983000
H -14.560500 -6.128700 -13.473100
H -14.382300 -4.527300 -13.182100
C -14.240800 -5.441700 -12.810000
H -14.181700 -7.794000 -11.914200
H -13.805600 -11.700200 -10.104800
O -13.509900 -9.996100 -10.993700
C -13.195800 -7.828400 -11.806000
C -13.008900 -11.148800 -10.324400
O -12.829100 -5.553000 -12.604700
C -12.621500 -8.980800 -11.284600
H -12.560200 -10.891900 -9.461200
H -12.394000 -11.657100 -10.924900
C -12.377900 -6.745400 -12.118700
C -11.257000 -9.088800 -11.079500
C -11.002200 -6.815700 -11.909900
H -10.841800 -9.923200 -10.743200
C -10.455400 -7.978000 -11.393800
H -10.305600 -5.562200 -14.116800
O -10.198900 -5.704300 -12.147100
C -9.607800 -5.710200 -13.453700
H -9.125800 -6.578200 -13.570100
O -9.098800 -7.949500 -11.191800
H -8.970800 -9.278200 -9.646300
H -8.967500 -4.957900 -13.490700
H -8.623500 -9.881600 -11.110000
C -8.534300 -9.089900 -10.547500
H -7.605900 -8.869900 -10.404600
56
Fragment
H -9.417800 -8.977800 -16.047800
C -8.489400 -8.757800 -15.905000
H -8.400200 -7.966100 -15.342400
H -8.056200 -12.889800 -12.961700
H -8.052900 -8.569500 -16.806100
O -7.924900 -9.898200 -15.260700
H -7.898000 -11.269500 -12.882300
C -7.415900 -12.137500 -12.998700
O -6.824900 -12.143400 -14.305300
H -6.718100 -12.285500 -12.335700
C -6.568300 -9.869700 -15.058700
H -6.181900 -7.924500 -15.709200
C -6.021600 -11.032000 -14.542500
C -5.766700 -8.758800 -15.372900
C -4.645800 -11.102300 -14.333800
H -4.629700 -6.190600 -15.527600
H -4.463600 -6.955800 -16.991300
C -4.402200 -8.866900 -15.167800
O -4.194700 -12.294700 -13.847800
C -4.014900 -6.698900 -16.128100
C -3.828000 -10.019300 -14.646400
O -3.513800 -7.851600 -15.458700
H -3.218200 -6.147500 -16.347600
H -2.842100 -10.053700 -14.538300
C -2.782900 -12.406000 -13.642400
H -2.641400 -13.320400 -13.270300
H -2.463300 -11.719000 -12.979300
H -2.260000 -12.299900 -14.469500
H -14.763700 -5.547800 -11.983000
H -14.560500 -6.128700 -13.473100
H -14.382300 -4.527300 -13.182100
C -14.240800 -5.441700 -12.810000
H -14.181700 -7.794000 -11.914200
H -13.805600 -11.700200 -10.104800
O -13.509900 -9.996100 -10.993700
C -13.195800 -7.828400 -11.806000
C -13.008900 -11.148800 -10.324400
O -12.829100 -5.553000 -12.604700
C -12.621500 -8.980800 -11.284600
H -12.560200 -10.891900 -9.461200
H -12.394000 -11.657100 -10.924900
C -12.377900 -6.745400 -12.118700
C -11.257000 -9.088800 -11.079500
C -11.002200 -6.815700 -11.909900
H -10.841800 -9.923200 -10.743200
C -10.455400 -7.978000 -11.393800
H -10.305600 -5.562200 -14.116800
O -10.198900 -5.704300 -12.147100
C -9.607800 -5.710200 -13.453700
H -9.125800 -6.578200 -13.570100
O -9.098800 -7.949500 -11.191800
H -8.970800 -9.278200 -9.646300
H -8.967500 -4.957900 -13.490700
H -8.623500 -9.881600 -11.110000
C -8.534300 -9.089900 -10.547500
H -7.605900 -8.869900 -10.404600
