6
Fragment
H -8.521900 -8.848500 -29.847200
H -7.752300 -10.140300 -29.299300
C -7.659000 -9.312000 -29.814800
O -7.236400 -9.622700 -31.140700
H -6.993500 -8.734000 -29.386600
H -6.475500 -9.999800 -31.137900
30
Fragment
O -19.811800 -3.780300 -31.467400
O -19.777800 -3.127100 -29.398600
N -19.254600 -3.726100 -30.347600
H -18.478600 -4.992700 -32.829100
N -18.067500 -4.303400 -30.107300
N -17.826000 -5.101800 -32.436000
C -17.488300 -4.908100 -31.157300
N -16.853700 -5.775900 -33.122300
N -16.268800 -5.466700 -31.009900
C -15.919500 -5.971000 -32.222900
H -15.792200 -5.498500 -30.271000
H -15.094000 -7.260600 -34.261500
C -14.652800 -6.645800 -32.467800
N -14.469000 -7.259300 -33.642200
N -13.760500 -6.592400 -31.464600
N -13.318000 -7.858200 -33.832300
N -12.609500 -7.191300 -31.654600
C -12.425700 -7.804800 -32.829100
H -11.984500 -7.190000 -31.035400
H -11.286300 -8.952100 -35.025900
C -11.159000 -8.479600 -33.073900
N -10.809700 -8.983900 -34.286900
N -10.224800 -8.674700 -32.174600
C -9.590200 -9.542500 -34.139600
N -9.252500 -9.348800 -32.860900
N -9.011000 -10.147200 -35.189600
H -8.599900 -9.457900 -32.467800
N -7.823900 -10.724500 -34.949300
O -7.300800 -11.323500 -35.898200
O -7.266700 -10.670300 -33.829400
36
Fragment
H -8.521900 -8.848500 -29.847200
H -7.752300 -10.140300 -29.299300
C -7.659000 -9.312000 -29.814800
O -7.236400 -9.622700 -31.140700
H -6.993500 -8.734000 -29.386600
H -6.475500 -9.999800 -31.137900
O -19.811800 -3.780300 -31.467400
O -19.777800 -3.127100 -29.398600
N -19.254600 -3.726100 -30.347600
H -18.478600 -4.992700 -32.829100
N -18.067500 -4.303400 -30.107300
N -17.826000 -5.101800 -32.436000
C -17.488300 -4.908100 -31.157300
N -16.853700 -5.775900 -33.122300
N -16.268800 -5.466700 -31.009900
C -15.919500 -5.971000 -32.222900
H -15.792200 -5.498500 -30.271000
H -15.094000 -7.260600 -34.261500
C -14.652800 -6.645800 -32.467800
N -14.469000 -7.259300 -33.642200
N -13.760500 -6.592400 -31.464600
N -13.318000 -7.858200 -33.832300
N -12.609500 -7.191300 -31.654600
C -12.425700 -7.804800 -32.829100
H -11.984500 -7.190000 -31.035400
H -11.286300 -8.952100 -35.025900
C -11.159000 -8.479600 -33.073900
N -10.809700 -8.983900 -34.286900
N -10.224800 -8.674700 -32.174600
C -9.590200 -9.542500 -34.139600
N -9.252500 -9.348800 -32.860900
N -9.011000 -10.147200 -35.189600
H -8.599900 -9.457900 -32.467800
N -7.823900 -10.724500 -34.949300
O -7.300800 -11.323500 -35.898200
O -7.266700 -10.670300 -33.829400
