16
Fragment
N -25.933000 -17.415800 -25.136700
C -25.256400 -17.858800 -25.954900
N -24.493900 -20.996500 -24.651400
C -24.401000 -18.421400 -26.965400
H -24.357900 -16.760400 -28.163600
C -24.225400 -20.459900 -25.624900
C -24.049900 -17.657300 -28.070100
C -23.889300 -19.720800 -26.814500
C -23.193500 -18.192500 -29.026600
C -23.065700 -20.276900 -27.791500
C -22.749400 -17.370500 -30.129300
H -22.740300 -21.162200 -27.661700
C -22.721900 -19.508900 -28.899000
N -22.382500 -16.713200 -30.991200
C -21.897000 -20.059100 -29.938800
N -21.273100 -20.460900 -30.813100
48
Fragment
H -21.356800 -7.404000 -37.498200
H -21.099000 -9.477100 -36.319300
H -20.625100 -16.634000 -33.627900
N -20.515900 -7.408400 -37.825800
H -20.445700 -6.932700 -38.595400
C -20.387000 -9.688200 -36.987700
H -20.158800 -11.614100 -36.386000
H -20.110200 -15.000400 -35.275400
C -19.978600 -8.702200 -37.881800
H -19.964700 -18.593900 -32.490700
C -19.876000 -16.766000 -34.244400
C -19.809500 -10.948500 -36.999200
C -19.546900 -15.811400 -35.192200
N -19.494300 -18.932400 -33.206700
C -19.137300 -17.945500 -34.131000
H -19.077200 -13.373900 -36.180900
C -18.959700 -9.023500 -38.790600
C -18.798400 -11.297400 -37.911400
H -18.790700 -19.507600 -32.974300
H -18.658400 -8.336200 -39.409100
C -18.552900 -13.635000 -36.988200
C -18.470800 -15.989200 -36.070600
C -18.392400 -10.288900 -38.795300
C -18.254200 -12.686500 -37.972900
C -18.125300 -14.965900 -37.092600
C -18.067200 -18.141100 -35.008400
C -17.736500 -17.174500 -35.944900
H -17.683800 -10.453000 -39.429100
H -17.545100 -18.989200 -34.976900
C -17.441800 -13.081400 -39.044100
C -17.369100 -15.332800 -38.212800
H -17.218200 -12.420100 -39.705900
H -17.126800 -16.290500 -38.326900
C -16.978300 -14.396700 -39.171500
H -16.935200 -17.327300 -36.529400
H -16.436700 -13.137100 -41.521800
C -16.091500 -14.792300 -40.293200
C -15.918100 -13.976500 -41.414900
H -15.410100 -16.593800 -39.505800
C -15.350600 -15.986600 -40.257800
C -15.052400 -14.318100 -42.438700
H -14.950300 -13.716600 -43.192600
C -14.502200 -16.353200 -41.291500
C -14.345300 -15.524800 -42.405000
H -13.996300 -17.204100 -41.208300
N -13.573300 -15.911900 -43.496900
H -13.231300 -15.182400 -43.981300
H -13.006000 -16.542900 -43.230900
64
Fragment
N -25.933000 -17.415800 -25.136700
C -25.256400 -17.858800 -25.954900
N -24.493900 -20.996500 -24.651400
C -24.401000 -18.421400 -26.965400
H -24.357900 -16.760400 -28.163600
C -24.225400 -20.459900 -25.624900
C -24.049900 -17.657300 -28.070100
C -23.889300 -19.720800 -26.814500
C -23.193500 -18.192500 -29.026600
C -23.065700 -20.276900 -27.791500
C -22.749400 -17.370500 -30.129300
H -22.740300 -21.162200 -27.661700
C -22.721900 -19.508900 -28.899000
N -22.382500 -16.713200 -30.991200
C -21.897000 -20.059100 -29.938800
N -21.273100 -20.460900 -30.813100
H -21.356800 -7.404000 -37.498200
H -21.099000 -9.477100 -36.319300
H -20.625100 -16.634000 -33.627900
N -20.515900 -7.408400 -37.825800
H -20.445700 -6.932700 -38.595400
C -20.387000 -9.688200 -36.987700
H -20.158800 -11.614100 -36.386000
H -20.110200 -15.000400 -35.275400
C -19.978600 -8.702200 -37.881800
H -19.964700 -18.593900 -32.490700
C -19.876000 -16.766000 -34.244400
C -19.809500 -10.948500 -36.999200
C -19.546900 -15.811400 -35.192200
N -19.494300 -18.932400 -33.206700
C -19.137300 -17.945500 -34.131000
H -19.077200 -13.373900 -36.180900
C -18.959700 -9.023500 -38.790600
C -18.798400 -11.297400 -37.911400
H -18.790700 -19.507600 -32.974300
H -18.658400 -8.336200 -39.409100
C -18.552900 -13.635000 -36.988200
C -18.470800 -15.989200 -36.070600
C -18.392400 -10.288900 -38.795300
C -18.254200 -12.686500 -37.972900
C -18.125300 -14.965900 -37.092600
C -18.067200 -18.141100 -35.008400
C -17.736500 -17.174500 -35.944900
H -17.683800 -10.453000 -39.429100
H -17.545100 -18.989200 -34.976900
C -17.441800 -13.081400 -39.044100
C -17.369100 -15.332800 -38.212800
H -17.218200 -12.420100 -39.705900
H -17.126800 -16.290500 -38.326900
C -16.978300 -14.396700 -39.171500
H -16.935200 -17.327300 -36.529400
H -16.436700 -13.137100 -41.521800
C -16.091500 -14.792300 -40.293200
C -15.918100 -13.976500 -41.414900
H -15.410100 -16.593800 -39.505800
C -15.350600 -15.986600 -40.257800
C -15.052400 -14.318100 -42.438700
H -14.950300 -13.716600 -43.192600
C -14.502200 -16.353200 -41.291500
C -14.345300 -15.524800 -42.405000
H -13.996300 -17.204100 -41.208300
N -13.573300 -15.911900 -43.496900
H -13.231300 -15.182400 -43.981300
H -13.006000 -16.542900 -43.230900
