16
Fragment
N -25.933000 -17.415800 -25.136700
C -25.256400 -17.858800 -25.954900
N -24.493900 -20.996500 -24.651400
C -24.401000 -18.421400 -26.965400
H -24.357900 -16.760400 -28.163600
C -24.225400 -20.459900 -25.624900
C -24.049900 -17.657300 -28.070100
C -23.889300 -19.720800 -26.814500
C -23.193500 -18.192500 -29.026600
C -23.065700 -20.276900 -27.791500
C -22.749400 -17.370500 -30.129300
H -22.740300 -21.162200 -27.661700
C -22.721900 -19.508900 -28.899000
N -22.382500 -16.713200 -30.991200
C -21.897000 -20.059100 -29.938800
N -21.273100 -20.460900 -30.813100
16
Fragment
N -21.715300 -23.534600 -28.943700
C -20.882800 -23.727800 -29.709700
H -19.868300 -22.161200 -31.635300
C -19.844500 -24.012900 -30.666300
N -19.752200 -26.844700 -28.665000
C -19.517200 -26.174700 -29.558000
C -19.472900 -23.060500 -31.612600
C -19.203100 -25.261400 -30.625000
C -18.486200 -23.382400 -32.535400
C -18.238700 -25.596000 -31.569800
C -18.043200 -22.391300 -33.479000
C -17.894400 -24.659800 -32.531600
H -17.809800 -26.471100 -31.538600
N -17.683200 -21.590300 -34.216600
C -16.927100 -24.980400 -33.545400
N -16.170100 -25.201200 -34.374600
32
Fragment
N -25.933000 -17.415800 -25.136700
C -25.256400 -17.858800 -25.954900
N -24.493900 -20.996500 -24.651400
C -24.401000 -18.421400 -26.965400
H -24.357900 -16.760400 -28.163600
C -24.225400 -20.459900 -25.624900
C -24.049900 -17.657300 -28.070100
C -23.889300 -19.720800 -26.814500
C -23.193500 -18.192500 -29.026600
C -23.065700 -20.276900 -27.791500
C -22.749400 -17.370500 -30.129300
H -22.740300 -21.162200 -27.661700
C -22.721900 -19.508900 -28.899000
N -22.382500 -16.713200 -30.991200
C -21.897000 -20.059100 -29.938800
N -21.273100 -20.460900 -30.813100
N -21.715300 -23.534600 -28.943700
C -20.882800 -23.727800 -29.709700
H -19.868300 -22.161200 -31.635300
C -19.844500 -24.012900 -30.666300
N -19.752200 -26.844700 -28.665000
C -19.517200 -26.174700 -29.558000
C -19.472900 -23.060500 -31.612600
C -19.203100 -25.261400 -30.625000
C -18.486200 -23.382400 -32.535400
C -18.238700 -25.596000 -31.569800
C -18.043200 -22.391300 -33.479000
C -17.894400 -24.659800 -32.531600
H -17.809800 -26.471100 -31.538600
N -17.683200 -21.590300 -34.216600
C -16.927100 -24.980400 -33.545400
N -16.170100 -25.201200 -34.374600
