16
Fragment
N -25.933000 -17.415800 -25.136700
C -25.256400 -17.858800 -25.954900
N -24.493900 -20.996500 -24.651400
C -24.401000 -18.421400 -26.965400
H -24.357900 -16.760400 -28.163600
C -24.225400 -20.459900 -25.624900
C -24.049900 -17.657300 -28.070100
C -23.889300 -19.720800 -26.814500
C -23.193500 -18.192500 -29.026600
C -23.065700 -20.276900 -27.791500
C -22.749400 -17.370500 -30.129300
H -22.740300 -21.162200 -27.661700
C -22.721900 -19.508900 -28.899000
N -22.382500 -16.713200 -30.991200
C -21.897000 -20.059100 -29.938800
N -21.273100 -20.460900 -30.813100
48
Fragment
H -34.822900 -5.462600 -20.823400
H -34.565200 -7.535800 -19.644500
H -34.091300 -14.692600 -16.953200
N -33.982000 -5.467100 -21.151100
H -33.911800 -4.991300 -21.920600
C -33.853100 -7.746800 -20.313000
H -33.625000 -9.672800 -19.711200
H -33.576300 -13.059000 -18.600700
C -33.444700 -6.760800 -21.207100
H -33.430800 -16.652600 -15.816000
C -33.342100 -14.824700 -17.569700
C -33.275700 -9.007100 -20.324500
C -33.013000 -13.870000 -18.517500
N -32.960500 -16.991100 -16.532000
C -32.603500 -16.004100 -17.456300
H -32.543400 -11.432500 -19.506100
C -32.425800 -7.082200 -22.115900
C -32.264600 -9.356000 -21.236600
H -32.256800 -17.566200 -16.299600
H -32.124600 -6.394800 -22.734300
C -32.019000 -11.693700 -20.313500
C -31.937000 -14.047800 -19.395900
C -31.858600 -8.347600 -22.120500
C -31.720300 -10.745200 -21.298100
C -31.591400 -13.024600 -20.417900
C -31.533400 -16.199800 -18.333700
C -31.202600 -15.233100 -19.270200
H -31.149900 -8.511700 -22.754400
H -31.011200 -17.047800 -18.302200
C -30.908000 -11.140000 -22.369300
C -30.835200 -13.391400 -21.538100
H -30.684300 -10.478800 -23.031200
H -30.592900 -14.349100 -21.652100
C -30.444500 -12.455400 -22.496700
H -30.401400 -15.385900 -19.854600
H -29.902800 -11.195700 -24.847000
C -29.557700 -12.850900 -23.618400
C -29.384300 -12.035100 -24.740100
H -28.876200 -14.652500 -22.831100
C -28.816800 -14.045300 -23.583100
C -28.518600 -12.376700 -25.764000
H -28.416400 -11.775300 -26.517800
C -27.968300 -14.411900 -24.616800
C -27.811400 -13.583400 -25.730300
H -27.462500 -15.262700 -24.533500
N -27.039500 -13.970600 -26.822200
H -26.697400 -13.241100 -27.306600
H -26.472200 -14.601500 -26.556200
64
Fragment
N -25.933000 -17.415800 -25.136700
C -25.256400 -17.858800 -25.954900
N -24.493900 -20.996500 -24.651400
C -24.401000 -18.421400 -26.965400
H -24.357900 -16.760400 -28.163600
C -24.225400 -20.459900 -25.624900
C -24.049900 -17.657300 -28.070100
C -23.889300 -19.720800 -26.814500
C -23.193500 -18.192500 -29.026600
C -23.065700 -20.276900 -27.791500
C -22.749400 -17.370500 -30.129300
H -22.740300 -21.162200 -27.661700
C -22.721900 -19.508900 -28.899000
N -22.382500 -16.713200 -30.991200
C -21.897000 -20.059100 -29.938800
N -21.273100 -20.460900 -30.813100
H -34.822900 -5.462600 -20.823400
H -34.565200 -7.535800 -19.644500
H -34.091300 -14.692600 -16.953200
N -33.982000 -5.467100 -21.151100
H -33.911800 -4.991300 -21.920600
C -33.853100 -7.746800 -20.313000
H -33.625000 -9.672800 -19.711200
H -33.576300 -13.059000 -18.600700
C -33.444700 -6.760800 -21.207100
H -33.430800 -16.652600 -15.816000
C -33.342100 -14.824700 -17.569700
C -33.275700 -9.007100 -20.324500
C -33.013000 -13.870000 -18.517500
N -32.960500 -16.991100 -16.532000
C -32.603500 -16.004100 -17.456300
H -32.543400 -11.432500 -19.506100
C -32.425800 -7.082200 -22.115900
C -32.264600 -9.356000 -21.236600
H -32.256800 -17.566200 -16.299600
H -32.124600 -6.394800 -22.734300
C -32.019000 -11.693700 -20.313500
C -31.937000 -14.047800 -19.395900
C -31.858600 -8.347600 -22.120500
C -31.720300 -10.745200 -21.298100
C -31.591400 -13.024600 -20.417900
C -31.533400 -16.199800 -18.333700
C -31.202600 -15.233100 -19.270200
H -31.149900 -8.511700 -22.754400
H -31.011200 -17.047800 -18.302200
C -30.908000 -11.140000 -22.369300
C -30.835200 -13.391400 -21.538100
H -30.684300 -10.478800 -23.031200
H -30.592900 -14.349100 -21.652100
C -30.444500 -12.455400 -22.496700
H -30.401400 -15.385900 -19.854600
H -29.902800 -11.195700 -24.847000
C -29.557700 -12.850900 -23.618400
C -29.384300 -12.035100 -24.740100
H -28.876200 -14.652500 -22.831100
C -28.816800 -14.045300 -23.583100
C -28.518600 -12.376700 -25.764000
H -28.416400 -11.775300 -26.517800
C -27.968300 -14.411900 -24.616800
C -27.811400 -13.583400 -25.730300
H -27.462500 -15.262700 -24.533500
N -27.039500 -13.970600 -26.822200
H -26.697400 -13.241100 -27.306600
H -26.472200 -14.601500 -26.556200
