17
Fragment
N -49.657500 -10.277500 -27.668500
C -48.707500 -10.657400 -28.155500
H -48.301000 -11.603300 -30.585100
C -47.494300 -11.575700 -30.084400
C -47.485800 -11.126900 -28.769400
O -47.352500 -12.489500 -32.638100
C -46.300900 -11.979000 -30.643000
C -46.298200 -11.073100 -28.031600
H -46.293200 -10.780100 -27.128000
N -46.290900 -12.470000 -32.023700
O -45.214300 -12.834800 -32.496000
C -45.138000 -11.460100 -28.661700
C -45.099600 -11.925200 -29.958900
H -44.284600 -12.196300 -30.364900
O -43.914300 -10.989600 -26.754800
N -43.870600 -11.333800 -27.929300
O -42.832900 -11.569000 -28.541400
17
Fragment
O -41.078400 -9.114200 -29.370700
N -40.040700 -9.349400 -29.982800
O -39.997000 -9.693600 -31.157300
H -39.626700 -8.486900 -27.547200
C -38.811700 -8.758000 -27.953200
C -38.773300 -9.223100 -29.250400
O -38.697000 -7.848400 -25.416100
N -37.620400 -8.213200 -25.888400
H -37.618100 -9.903100 -30.784100
C -37.613100 -9.610100 -29.880500
C -37.610400 -8.704200 -27.269100
O -36.558800 -8.193700 -25.274000
C -36.425500 -9.556300 -29.142700
C -36.417000 -9.107500 -27.827700
H -35.610300 -9.079900 -27.327000
C -35.203800 -10.025800 -29.756600
N -34.253800 -10.405700 -30.243600
34
Fragment
N -49.657500 -10.277500 -27.668500
C -48.707500 -10.657400 -28.155500
H -48.301000 -11.603300 -30.585100
C -47.494300 -11.575700 -30.084400
C -47.485800 -11.126900 -28.769400
O -47.352500 -12.489500 -32.638100
C -46.300900 -11.979000 -30.643000
C -46.298200 -11.073100 -28.031600
H -46.293200 -10.780100 -27.128000
N -46.290900 -12.470000 -32.023700
O -45.214300 -12.834800 -32.496000
C -45.138000 -11.460100 -28.661700
C -45.099600 -11.925200 -29.958900
H -44.284600 -12.196300 -30.364900
O -43.914300 -10.989600 -26.754800
N -43.870600 -11.333800 -27.929300
O -42.832900 -11.569000 -28.541400
O -41.078400 -9.114200 -29.370700
N -40.040700 -9.349400 -29.982800
O -39.997000 -9.693600 -31.157300
H -39.626700 -8.486900 -27.547200
C -38.811700 -8.758000 -27.953200
C -38.773300 -9.223100 -29.250400
O -38.697000 -7.848400 -25.416100
N -37.620400 -8.213200 -25.888400
H -37.618100 -9.903100 -30.784100
C -37.613100 -9.610100 -29.880500
C -37.610400 -8.704200 -27.269100
O -36.558800 -8.193700 -25.274000
C -36.425500 -9.556300 -29.142700
C -36.417000 -9.107500 -27.827700
H -35.610300 -9.079900 -27.327000
C -35.203800 -10.025800 -29.756600
N -34.253800 -10.405700 -30.243600
