17
Fragment
N -49.657500 -10.277500 -27.668500
C -48.707500 -10.657400 -28.155500
H -48.301000 -11.603300 -30.585100
C -47.494300 -11.575700 -30.084400
C -47.485800 -11.126900 -28.769400
O -47.352500 -12.489500 -32.638100
C -46.300900 -11.979000 -30.643000
C -46.298200 -11.073100 -28.031600
H -46.293200 -10.780100 -27.128000
N -46.290900 -12.470000 -32.023700
O -45.214300 -12.834800 -32.496000
C -45.138000 -11.460100 -28.661700
C -45.099600 -11.925200 -29.958900
H -44.284600 -12.196300 -30.364900
O -43.914300 -10.989600 -26.754800
N -43.870600 -11.333800 -27.929300
O -42.832900 -11.569000 -28.541400
38
Fragment
H -57.512200 -9.671900 -30.875100
H -57.201100 -7.110100 -25.467600
H -56.898600 -10.820200 -31.805700
H -56.835400 -9.291400 -32.274400
C -56.793300 -9.894200 -31.502800
H -56.616200 -7.448000 -24.016900
C -56.435500 -6.995100 -24.866900
H -56.289700 -6.039600 -24.703200
H -56.196400 -9.146000 -29.032300
H -56.081300 -8.133700 -27.239100
C -55.462300 -9.739000 -30.816600
C -55.387500 -9.321900 -29.498500
C -55.250100 -8.123700 -26.778900
C -55.206000 -7.588700 -25.501000
H -55.155400 -10.589600 -33.156000
H -54.527200 -6.370800 -23.386800
N -54.338500 -10.457400 -32.828200
C -54.278400 -10.025100 -31.514200
C -54.175100 -9.148500 -28.821300
C -54.119100 -8.652300 -27.423100
C -53.976700 -7.561800 -24.812600
N -53.909000 -7.000400 -23.528700
H -53.555500 -10.562000 -33.244800
H -53.071700 -6.729500 -23.321200
C -53.036700 -9.879700 -30.860600
C -53.013000 -9.439800 -29.548700
C -52.929100 -8.650400 -26.686300
C -52.838800 -8.125100 -25.407000
H -52.171100 -9.330000 -29.122100
H -52.149900 -9.025700 -27.079700
H -51.783500 -11.169100 -31.856300
C -51.756700 -10.229200 -31.580000
H -51.660200 -9.658900 -32.371100
H -51.628500 -8.576300 -23.811500
C -51.521100 -8.128500 -24.676500
H -51.225400 -7.205400 -24.532100
H -50.995100 -10.086700 -30.979900
H -50.852500 -8.605900 -25.210900
55
Fragment
N -49.657500 -10.277500 -27.668500
C -48.707500 -10.657400 -28.155500
H -48.301000 -11.603300 -30.585100
C -47.494300 -11.575700 -30.084400
C -47.485800 -11.126900 -28.769400
O -47.352500 -12.489500 -32.638100
C -46.300900 -11.979000 -30.643000
C -46.298200 -11.073100 -28.031600
H -46.293200 -10.780100 -27.128000
N -46.290900 -12.470000 -32.023700
O -45.214300 -12.834800 -32.496000
C -45.138000 -11.460100 -28.661700
C -45.099600 -11.925200 -29.958900
H -44.284600 -12.196300 -30.364900
O -43.914300 -10.989600 -26.754800
N -43.870600 -11.333800 -27.929300
O -42.832900 -11.569000 -28.541400
H -57.512200 -9.671900 -30.875100
H -57.201100 -7.110100 -25.467600
H -56.898600 -10.820200 -31.805700
H -56.835400 -9.291400 -32.274400
C -56.793300 -9.894200 -31.502800
H -56.616200 -7.448000 -24.016900
C -56.435500 -6.995100 -24.866900
H -56.289700 -6.039600 -24.703200
H -56.196400 -9.146000 -29.032300
H -56.081300 -8.133700 -27.239100
C -55.462300 -9.739000 -30.816600
C -55.387500 -9.321900 -29.498500
C -55.250100 -8.123700 -26.778900
C -55.206000 -7.588700 -25.501000
H -55.155400 -10.589600 -33.156000
H -54.527200 -6.370800 -23.386800
N -54.338500 -10.457400 -32.828200
C -54.278400 -10.025100 -31.514200
C -54.175100 -9.148500 -28.821300
C -54.119100 -8.652300 -27.423100
C -53.976700 -7.561800 -24.812600
N -53.909000 -7.000400 -23.528700
H -53.555500 -10.562000 -33.244800
H -53.071700 -6.729500 -23.321200
C -53.036700 -9.879700 -30.860600
C -53.013000 -9.439800 -29.548700
C -52.929100 -8.650400 -26.686300
C -52.838800 -8.125100 -25.407000
H -52.171100 -9.330000 -29.122100
H -52.149900 -9.025700 -27.079700
H -51.783500 -11.169100 -31.856300
C -51.756700 -10.229200 -31.580000
H -51.660200 -9.658900 -32.371100
H -51.628500 -8.576300 -23.811500
C -51.521100 -8.128500 -24.676500
H -51.225400 -7.205400 -24.532100
H -50.995100 -10.086700 -30.979900
H -50.852500 -8.605900 -25.210900
