34
Fragment
H -20.584700 -50.845400 -8.737100
H -20.497600 -50.917200 -6.432200
C -19.962800 -51.391500 -8.312800
C -19.923200 -51.442900 -6.941900
H -19.634500 -51.578100 -10.670400
O -19.436000 -51.405900 -4.242100
C -19.077900 -52.152100 -9.071500
O -19.060000 -52.100700 -10.409000
C -19.017100 -52.289500 -6.329800
N -18.933900 -52.326900 -4.885200
O -18.345900 -53.264200 -4.377100
C -18.153500 -53.067500 -7.069900
C -18.138400 -52.988200 -8.449300
H -17.574300 -53.651300 -6.636200
H -17.138300 -53.647500 -10.159200
C -17.117700 -53.681500 -9.229800
N -16.198500 -54.334500 -8.637800
N -15.222500 -54.889600 -9.435300
H -15.139000 -54.731400 -10.341500
H -14.977000 -55.494200 -6.960500
C -14.248800 -55.803500 -7.447700
C -14.221500 -55.582600 -8.830200
O -13.774300 -55.327700 -11.603700
H -13.288600 -56.566700 -5.867400
C -13.251300 -56.451900 -6.789900
C -13.117900 -56.127100 -9.533100
N -12.963800 -56.002500 -10.961400
C -12.178800 -56.939800 -7.516800
C -12.107200 -56.808400 -8.866700
O -12.026400 -56.580700 -11.518400
H -11.391800 -57.170900 -9.338400
O -11.151400 -57.658500 -5.588100
N -11.105100 -57.624800 -6.800700
O -10.194900 -58.111600 -7.457800
34
Fragment
H -24.988100 -47.046400 -6.882900
O -24.796100 -49.437200 -7.128100
H -24.320600 -44.863600 -6.908600
C -24.104900 -46.826200 -7.076100
C -23.707400 -45.529000 -7.116500
N -23.603300 -49.193300 -7.296500
C -23.170500 -47.818300 -7.328300
O -22.760600 -50.079600 -7.422100
H -22.711100 -43.451300 -7.726200
C -22.387700 -45.163100 -7.466400
O -22.044300 -43.903700 -7.575000
C -21.865200 -47.509400 -7.629300
C -21.452700 -46.191000 -7.702200
H -21.254100 -48.194400 -7.784400
C -20.074100 -45.874600 -8.051300
H -19.807200 -44.984500 -8.113400
N -19.234500 -46.802100 -8.271600
H -18.189100 -48.945900 -8.552500
N -17.962800 -46.401400 -8.618400
H -17.800000 -45.664200 -8.564900
C -17.322500 -48.694400 -8.775900
C -17.015400 -47.331100 -8.858200
H -16.632100 -50.562200 -8.935700
C -16.398000 -49.663800 -9.010200
O -16.000500 -44.723100 -9.128900
C -15.673500 -47.010100 -9.197200
N -15.201100 -45.644600 -9.332900
C -15.101200 -49.309600 -9.361600
C -14.740100 -47.996900 -9.450100
O -14.386600 -51.494600 -9.377200
N -14.115100 -50.339800 -9.652600
O -14.049800 -45.455800 -9.670400
H -13.868700 -47.767700 -9.680500
O -13.057300 -49.990900 -10.169300
68
Fragment
H -20.584700 -50.845400 -8.737100
H -20.497600 -50.917200 -6.432200
C -19.962800 -51.391500 -8.312800
C -19.923200 -51.442900 -6.941900
H -19.634500 -51.578100 -10.670400
O -19.436000 -51.405900 -4.242100
C -19.077900 -52.152100 -9.071500
O -19.060000 -52.100700 -10.409000
C -19.017100 -52.289500 -6.329800
N -18.933900 -52.326900 -4.885200
O -18.345900 -53.264200 -4.377100
C -18.153500 -53.067500 -7.069900
C -18.138400 -52.988200 -8.449300
H -17.574300 -53.651300 -6.636200
H -17.138300 -53.647500 -10.159200
C -17.117700 -53.681500 -9.229800
N -16.198500 -54.334500 -8.637800
N -15.222500 -54.889600 -9.435300
H -15.139000 -54.731400 -10.341500
H -14.977000 -55.494200 -6.960500
C -14.248800 -55.803500 -7.447700
C -14.221500 -55.582600 -8.830200
O -13.774300 -55.327700 -11.603700
H -13.288600 -56.566700 -5.867400
C -13.251300 -56.451900 -6.789900
C -13.117900 -56.127100 -9.533100
N -12.963800 -56.002500 -10.961400
C -12.178800 -56.939800 -7.516800
C -12.107200 -56.808400 -8.866700
O -12.026400 -56.580700 -11.518400
H -11.391800 -57.170900 -9.338400
O -11.151400 -57.658500 -5.588100
N -11.105100 -57.624800 -6.800700
O -10.194900 -58.111600 -7.457800
H -24.988100 -47.046400 -6.882900
O -24.796100 -49.437200 -7.128100
H -24.320600 -44.863600 -6.908600
C -24.104900 -46.826200 -7.076100
C -23.707400 -45.529000 -7.116500
N -23.603300 -49.193300 -7.296500
C -23.170500 -47.818300 -7.328300
O -22.760600 -50.079600 -7.422100
H -22.711100 -43.451300 -7.726200
C -22.387700 -45.163100 -7.466400
O -22.044300 -43.903700 -7.575000
C -21.865200 -47.509400 -7.629300
C -21.452700 -46.191000 -7.702200
H -21.254100 -48.194400 -7.784400
C -20.074100 -45.874600 -8.051300
H -19.807200 -44.984500 -8.113400
N -19.234500 -46.802100 -8.271600
H -18.189100 -48.945900 -8.552500
N -17.962800 -46.401400 -8.618400
H -17.800000 -45.664200 -8.564900
C -17.322500 -48.694400 -8.775900
C -17.015400 -47.331100 -8.858200
H -16.632100 -50.562200 -8.935700
C -16.398000 -49.663800 -9.010200
O -16.000500 -44.723100 -9.128900
C -15.673500 -47.010100 -9.197200
N -15.201100 -45.644600 -9.332900
C -15.101200 -49.309600 -9.361600
C -14.740100 -47.996900 -9.450100
O -14.386600 -51.494600 -9.377200
N -14.115100 -50.339800 -9.652600
O -14.049800 -45.455800 -9.670400
H -13.868700 -47.767700 -9.680500
O -13.057300 -49.990900 -10.169300
