34
Fragment
H -20.584700 -50.845400 -8.737100
H -20.497600 -50.917200 -6.432200
C -19.962800 -51.391500 -8.312800
C -19.923200 -51.442900 -6.941900
H -19.634500 -51.578100 -10.670400
O -19.436000 -51.405900 -4.242100
C -19.077900 -52.152100 -9.071500
O -19.060000 -52.100700 -10.409000
C -19.017100 -52.289500 -6.329800
N -18.933900 -52.326900 -4.885200
O -18.345900 -53.264200 -4.377100
C -18.153500 -53.067500 -7.069900
C -18.138400 -52.988200 -8.449300
H -17.574300 -53.651300 -6.636200
H -17.138300 -53.647500 -10.159200
C -17.117700 -53.681500 -9.229800
N -16.198500 -54.334500 -8.637800
N -15.222500 -54.889600 -9.435300
H -15.139000 -54.731400 -10.341500
H -14.977000 -55.494200 -6.960500
C -14.248800 -55.803500 -7.447700
C -14.221500 -55.582600 -8.830200
O -13.774300 -55.327700 -11.603700
H -13.288600 -56.566700 -5.867400
C -13.251300 -56.451900 -6.789900
C -13.117900 -56.127100 -9.533100
N -12.963800 -56.002500 -10.961400
C -12.178800 -56.939800 -7.516800
C -12.107200 -56.808400 -8.866700
O -12.026400 -56.580700 -11.518400
H -11.391800 -57.170900 -9.338400
O -11.151400 -57.658500 -5.588100
N -11.105100 -57.624800 -6.800700
O -10.194900 -58.111600 -7.457800
22
Fragment
H -9.199000 -60.641400 -10.277100
H -9.126500 -59.652000 -9.062200
C -8.695500 -59.930700 -9.874500
H -8.648700 -59.187500 -10.481100
H -7.370900 -61.124800 -8.917100
C -7.321000 -60.407700 -9.568800
H -7.225400 -59.414100 -12.013400
H -6.811700 -59.682200 -9.175500
N -6.593900 -60.911800 -10.813200
C -6.372400 -59.817400 -11.786800
H -6.196700 -61.045500 -13.434600
H -5.819500 -59.134600 -11.377200
C -5.693200 -60.314400 -13.067700
H -5.652500 -59.599100 -13.706900
H -5.603200 -62.378600 -9.817800
C -5.344500 -61.639900 -10.391900
H -4.932800 -62.019800 -11.184000
H -4.803100 -60.611200 -12.862900
H -4.663000 -60.539500 -8.822500
C -4.311200 -60.823800 -9.669600
H -4.084600 -60.056100 -10.197200
H -3.525500 -61.355200 -9.526900
56
Fragment
H -20.584700 -50.845400 -8.737100
H -20.497600 -50.917200 -6.432200
C -19.962800 -51.391500 -8.312800
C -19.923200 -51.442900 -6.941900
H -19.634500 -51.578100 -10.670400
O -19.436000 -51.405900 -4.242100
C -19.077900 -52.152100 -9.071500
O -19.060000 -52.100700 -10.409000
C -19.017100 -52.289500 -6.329800
N -18.933900 -52.326900 -4.885200
O -18.345900 -53.264200 -4.377100
C -18.153500 -53.067500 -7.069900
C -18.138400 -52.988200 -8.449300
H -17.574300 -53.651300 -6.636200
H -17.138300 -53.647500 -10.159200
C -17.117700 -53.681500 -9.229800
N -16.198500 -54.334500 -8.637800
N -15.222500 -54.889600 -9.435300
H -15.139000 -54.731400 -10.341500
H -14.977000 -55.494200 -6.960500
C -14.248800 -55.803500 -7.447700
C -14.221500 -55.582600 -8.830200
O -13.774300 -55.327700 -11.603700
H -13.288600 -56.566700 -5.867400
C -13.251300 -56.451900 -6.789900
C -13.117900 -56.127100 -9.533100
N -12.963800 -56.002500 -10.961400
C -12.178800 -56.939800 -7.516800
C -12.107200 -56.808400 -8.866700
O -12.026400 -56.580700 -11.518400
H -11.391800 -57.170900 -9.338400
O -11.151400 -57.658500 -5.588100
N -11.105100 -57.624800 -6.800700
O -10.194900 -58.111600 -7.457800
H -9.199000 -60.641400 -10.277100
H -9.126500 -59.652000 -9.062200
C -8.695500 -59.930700 -9.874500
H -8.648700 -59.187500 -10.481100
H -7.370900 -61.124800 -8.917100
C -7.321000 -60.407700 -9.568800
H -7.225400 -59.414100 -12.013400
H -6.811700 -59.682200 -9.175500
N -6.593900 -60.911800 -10.813200
C -6.372400 -59.817400 -11.786800
H -6.196700 -61.045500 -13.434600
H -5.819500 -59.134600 -11.377200
C -5.693200 -60.314400 -13.067700
H -5.652500 -59.599100 -13.706900
H -5.603200 -62.378600 -9.817800
C -5.344500 -61.639900 -10.391900
H -4.932800 -62.019800 -11.184000
H -4.803100 -60.611200 -12.862900
H -4.663000 -60.539500 -8.822500
C -4.311200 -60.823800 -9.669600
H -4.084600 -60.056100 -10.197200
H -3.525500 -61.355200 -9.526900
