34
Fragment
H -20.584700 -50.845400 -8.737100
H -20.497600 -50.917200 -6.432200
C -19.962800 -51.391500 -8.312800
C -19.923200 -51.442900 -6.941900
H -19.634500 -51.578100 -10.670400
O -19.436000 -51.405900 -4.242100
C -19.077900 -52.152100 -9.071500
O -19.060000 -52.100700 -10.409000
C -19.017100 -52.289500 -6.329800
N -18.933900 -52.326900 -4.885200
O -18.345900 -53.264200 -4.377100
C -18.153500 -53.067500 -7.069900
C -18.138400 -52.988200 -8.449300
H -17.574300 -53.651300 -6.636200
H -17.138300 -53.647500 -10.159200
C -17.117700 -53.681500 -9.229800
N -16.198500 -54.334500 -8.637800
N -15.222500 -54.889600 -9.435300
H -15.139000 -54.731400 -10.341500
H -14.977000 -55.494200 -6.960500
C -14.248800 -55.803500 -7.447700
C -14.221500 -55.582600 -8.830200
O -13.774300 -55.327700 -11.603700
H -13.288600 -56.566700 -5.867400
C -13.251300 -56.451900 -6.789900
C -13.117900 -56.127100 -9.533100
N -12.963800 -56.002500 -10.961400
C -12.178800 -56.939800 -7.516800
C -12.107200 -56.808400 -8.866700
O -12.026400 -56.580700 -11.518400
H -11.391800 -57.170900 -9.338400
O -11.151400 -57.658500 -5.588100
N -11.105100 -57.624800 -6.800700
O -10.194900 -58.111600 -7.457800
22
Fragment
H -11.878300 -60.641400 -2.519000
H -11.805800 -59.652000 -1.304100
C -11.374800 -59.930700 -2.116400
H -11.328100 -59.187500 -2.723100
H -10.050200 -61.124800 -1.159100
C -10.000300 -60.407700 -1.810700
H -9.904700 -59.414100 -4.255300
H -9.491100 -59.682200 -1.417400
N -9.273300 -60.911800 -3.055100
C -9.051700 -59.817400 -4.028800
H -8.876100 -61.045500 -5.676600
H -8.498800 -59.134600 -3.619100
C -8.372600 -60.314400 -5.309600
H -8.331900 -59.599100 -5.948900
H -8.282500 -62.378600 -2.059800
C -8.023800 -61.639900 -2.633900
H -7.612100 -62.019800 -3.426000
H -7.482500 -60.611200 -5.104800
H -7.342300 -60.539500 -1.064400
C -6.990500 -60.823800 -1.911600
H -6.763900 -60.056100 -2.439100
H -6.204800 -61.355200 -1.768800
56
Fragment
H -20.584700 -50.845400 -8.737100
H -20.497600 -50.917200 -6.432200
C -19.962800 -51.391500 -8.312800
C -19.923200 -51.442900 -6.941900
H -19.634500 -51.578100 -10.670400
O -19.436000 -51.405900 -4.242100
C -19.077900 -52.152100 -9.071500
O -19.060000 -52.100700 -10.409000
C -19.017100 -52.289500 -6.329800
N -18.933900 -52.326900 -4.885200
O -18.345900 -53.264200 -4.377100
C -18.153500 -53.067500 -7.069900
C -18.138400 -52.988200 -8.449300
H -17.574300 -53.651300 -6.636200
H -17.138300 -53.647500 -10.159200
C -17.117700 -53.681500 -9.229800
N -16.198500 -54.334500 -8.637800
N -15.222500 -54.889600 -9.435300
H -15.139000 -54.731400 -10.341500
H -14.977000 -55.494200 -6.960500
C -14.248800 -55.803500 -7.447700
C -14.221500 -55.582600 -8.830200
O -13.774300 -55.327700 -11.603700
H -13.288600 -56.566700 -5.867400
C -13.251300 -56.451900 -6.789900
C -13.117900 -56.127100 -9.533100
N -12.963800 -56.002500 -10.961400
C -12.178800 -56.939800 -7.516800
C -12.107200 -56.808400 -8.866700
O -12.026400 -56.580700 -11.518400
H -11.391800 -57.170900 -9.338400
O -11.151400 -57.658500 -5.588100
N -11.105100 -57.624800 -6.800700
O -10.194900 -58.111600 -7.457800
H -11.878300 -60.641400 -2.519000
H -11.805800 -59.652000 -1.304100
C -11.374800 -59.930700 -2.116400
H -11.328100 -59.187500 -2.723100
H -10.050200 -61.124800 -1.159100
C -10.000300 -60.407700 -1.810700
H -9.904700 -59.414100 -4.255300
H -9.491100 -59.682200 -1.417400
N -9.273300 -60.911800 -3.055100
C -9.051700 -59.817400 -4.028800
H -8.876100 -61.045500 -5.676600
H -8.498800 -59.134600 -3.619100
C -8.372600 -60.314400 -5.309600
H -8.331900 -59.599100 -5.948900
H -8.282500 -62.378600 -2.059800
C -8.023800 -61.639900 -2.633900
H -7.612100 -62.019800 -3.426000
H -7.482500 -60.611200 -5.104800
H -7.342300 -60.539500 -1.064400
C -6.990500 -60.823800 -1.911600
H -6.763900 -60.056100 -2.439100
H -6.204800 -61.355200 -1.768800
