34
Fragment
H -20.584700 -50.845400 -8.737100
H -20.497600 -50.917200 -6.432200
C -19.962800 -51.391500 -8.312800
C -19.923200 -51.442900 -6.941900
H -19.634500 -51.578100 -10.670400
O -19.436000 -51.405900 -4.242100
C -19.077900 -52.152100 -9.071500
O -19.060000 -52.100700 -10.409000
C -19.017100 -52.289500 -6.329800
N -18.933900 -52.326900 -4.885200
O -18.345900 -53.264200 -4.377100
C -18.153500 -53.067500 -7.069900
C -18.138400 -52.988200 -8.449300
H -17.574300 -53.651300 -6.636200
H -17.138300 -53.647500 -10.159200
C -17.117700 -53.681500 -9.229800
N -16.198500 -54.334500 -8.637800
N -15.222500 -54.889600 -9.435300
H -15.139000 -54.731400 -10.341500
H -14.977000 -55.494200 -6.960500
C -14.248800 -55.803500 -7.447700
C -14.221500 -55.582600 -8.830200
O -13.774300 -55.327700 -11.603700
H -13.288600 -56.566700 -5.867400
C -13.251300 -56.451900 -6.789900
C -13.117900 -56.127100 -9.533100
N -12.963800 -56.002500 -10.961400
C -12.178800 -56.939800 -7.516800
C -12.107200 -56.808400 -8.866700
O -12.026400 -56.580700 -11.518400
H -11.391800 -57.170900 -9.338400
O -11.151400 -57.658500 -5.588100
N -11.105100 -57.624800 -6.800700
O -10.194900 -58.111600 -7.457800
22
Fragment
H -13.104300 -51.936800 -13.747300
H -12.545200 -53.235900 -13.077000
C -12.318600 -52.468200 -13.604500
H -11.966800 -52.752500 -14.451700
H -11.826600 -52.680800 -10.411300
H -11.697000 -51.272200 -12.090200
C -11.285300 -51.652100 -12.882300
H -11.026600 -50.913400 -13.456400
H -10.977300 -53.692900 -9.567200
C -10.936600 -52.977600 -10.206500
H -10.810300 -54.157400 -11.897000
H -10.433000 -52.246500 -9.839500
C -10.257400 -53.474600 -11.487400
N -10.035800 -52.380200 -12.461000
H -9.818000 -53.609800 -14.098700
H -9.404400 -53.877900 -11.260800
C -9.308800 -52.884300 -13.705400
H -9.258900 -52.167200 -14.357100
H -7.981000 -54.104500 -12.793000
C -7.934300 -53.361300 -13.399700
H -7.503300 -53.640000 -14.212000
H -7.430800 -52.650600 -12.997100
56
Fragment
H -20.584700 -50.845400 -8.737100
H -20.497600 -50.917200 -6.432200
C -19.962800 -51.391500 -8.312800
C -19.923200 -51.442900 -6.941900
H -19.634500 -51.578100 -10.670400
O -19.436000 -51.405900 -4.242100
C -19.077900 -52.152100 -9.071500
O -19.060000 -52.100700 -10.409000
C -19.017100 -52.289500 -6.329800
N -18.933900 -52.326900 -4.885200
O -18.345900 -53.264200 -4.377100
C -18.153500 -53.067500 -7.069900
C -18.138400 -52.988200 -8.449300
H -17.574300 -53.651300 -6.636200
H -17.138300 -53.647500 -10.159200
C -17.117700 -53.681500 -9.229800
N -16.198500 -54.334500 -8.637800
N -15.222500 -54.889600 -9.435300
H -15.139000 -54.731400 -10.341500
H -14.977000 -55.494200 -6.960500
C -14.248800 -55.803500 -7.447700
C -14.221500 -55.582600 -8.830200
O -13.774300 -55.327700 -11.603700
H -13.288600 -56.566700 -5.867400
C -13.251300 -56.451900 -6.789900
C -13.117900 -56.127100 -9.533100
N -12.963800 -56.002500 -10.961400
C -12.178800 -56.939800 -7.516800
C -12.107200 -56.808400 -8.866700
O -12.026400 -56.580700 -11.518400
H -11.391800 -57.170900 -9.338400
O -11.151400 -57.658500 -5.588100
N -11.105100 -57.624800 -6.800700
O -10.194900 -58.111600 -7.457800
H -13.104300 -51.936800 -13.747300
H -12.545200 -53.235900 -13.077000
C -12.318600 -52.468200 -13.604500
H -11.966800 -52.752500 -14.451700
H -11.826600 -52.680800 -10.411300
H -11.697000 -51.272200 -12.090200
C -11.285300 -51.652100 -12.882300
H -11.026600 -50.913400 -13.456400
H -10.977300 -53.692900 -9.567200
C -10.936600 -52.977600 -10.206500
H -10.810300 -54.157400 -11.897000
H -10.433000 -52.246500 -9.839500
C -10.257400 -53.474600 -11.487400
N -10.035800 -52.380200 -12.461000
H -9.818000 -53.609800 -14.098700
H -9.404400 -53.877900 -11.260800
C -9.308800 -52.884300 -13.705400
H -9.258900 -52.167200 -14.357100
H -7.981000 -54.104500 -12.793000
C -7.934300 -53.361300 -13.399700
H -7.503300 -53.640000 -14.212000
H -7.430800 -52.650600 -12.997100
