34
Fragment
H -20.584700 -50.845400 -8.737100
H -20.497600 -50.917200 -6.432200
C -19.962800 -51.391500 -8.312800
C -19.923200 -51.442900 -6.941900
H -19.634500 -51.578100 -10.670400
O -19.436000 -51.405900 -4.242100
C -19.077900 -52.152100 -9.071500
O -19.060000 -52.100700 -10.409000
C -19.017100 -52.289500 -6.329800
N -18.933900 -52.326900 -4.885200
O -18.345900 -53.264200 -4.377100
C -18.153500 -53.067500 -7.069900
C -18.138400 -52.988200 -8.449300
H -17.574300 -53.651300 -6.636200
H -17.138300 -53.647500 -10.159200
C -17.117700 -53.681500 -9.229800
N -16.198500 -54.334500 -8.637800
N -15.222500 -54.889600 -9.435300
H -15.139000 -54.731400 -10.341500
H -14.977000 -55.494200 -6.960500
C -14.248800 -55.803500 -7.447700
C -14.221500 -55.582600 -8.830200
O -13.774300 -55.327700 -11.603700
H -13.288600 -56.566700 -5.867400
C -13.251300 -56.451900 -6.789900
C -13.117900 -56.127100 -9.533100
N -12.963800 -56.002500 -10.961400
C -12.178800 -56.939800 -7.516800
C -12.107200 -56.808400 -8.866700
O -12.026400 -56.580700 -11.518400
H -11.391800 -57.170900 -9.338400
O -11.151400 -57.658500 -5.588100
N -11.105100 -57.624800 -6.800700
O -10.194900 -58.111600 -7.457800
34
Fragment
O -21.448100 -55.180400 -8.058300
N -20.537900 -55.667200 -8.715400
O -20.491600 -55.633500 -9.928000
H -20.251200 -56.121100 -6.177700
O -19.616600 -56.711300 -3.997700
C -19.535800 -56.483600 -6.649400
C -19.464300 -56.352200 -7.999300
N -18.679200 -57.289500 -4.554800
C -18.525100 -57.164900 -5.983000
C -18.391800 -56.840100 -8.726300
H -18.354400 -56.725300 -9.648700
O -17.868700 -57.964300 -3.912400
C -17.421500 -57.709400 -6.685900
C -17.394200 -57.488500 -8.068400
H -16.666000 -57.797800 -8.555600
H -16.504100 -58.560600 -5.174600
N -16.420500 -58.402400 -6.080800
N -15.444500 -58.957500 -6.878300
C -14.525300 -59.610500 -6.286400
H -14.504700 -59.644500 -5.356900
H -14.068700 -59.640700 -8.879900
C -13.504700 -60.303800 -7.066800
C -13.489600 -60.224500 -8.446200
O -13.297100 -60.027800 -11.139000
N -12.709100 -60.965100 -10.630900
C -12.625900 -61.002500 -9.186300
O -12.583000 -61.191300 -5.107100
C -12.565100 -61.139900 -6.444600
O -12.207100 -61.886100 -11.274000
H -12.008500 -61.713900 -4.845700
C -11.719800 -61.849100 -8.574200
C -11.680200 -61.900500 -7.203400
H -11.145400 -62.374800 -9.083900
H -11.058300 -62.446600 -6.779000
68
Fragment
H -20.584700 -50.845400 -8.737100
H -20.497600 -50.917200 -6.432200
C -19.962800 -51.391500 -8.312800
C -19.923200 -51.442900 -6.941900
H -19.634500 -51.578100 -10.670400
O -19.436000 -51.405900 -4.242100
C -19.077900 -52.152100 -9.071500
O -19.060000 -52.100700 -10.409000
C -19.017100 -52.289500 -6.329800
N -18.933900 -52.326900 -4.885200
O -18.345900 -53.264200 -4.377100
C -18.153500 -53.067500 -7.069900
C -18.138400 -52.988200 -8.449300
H -17.574300 -53.651300 -6.636200
H -17.138300 -53.647500 -10.159200
C -17.117700 -53.681500 -9.229800
N -16.198500 -54.334500 -8.637800
N -15.222500 -54.889600 -9.435300
H -15.139000 -54.731400 -10.341500
H -14.977000 -55.494200 -6.960500
C -14.248800 -55.803500 -7.447700
C -14.221500 -55.582600 -8.830200
O -13.774300 -55.327700 -11.603700
H -13.288600 -56.566700 -5.867400
C -13.251300 -56.451900 -6.789900
C -13.117900 -56.127100 -9.533100
N -12.963800 -56.002500 -10.961400
C -12.178800 -56.939800 -7.516800
C -12.107200 -56.808400 -8.866700
O -12.026400 -56.580700 -11.518400
H -11.391800 -57.170900 -9.338400
O -11.151400 -57.658500 -5.588100
N -11.105100 -57.624800 -6.800700
O -10.194900 -58.111600 -7.457800
O -21.448100 -55.180400 -8.058300
N -20.537900 -55.667200 -8.715400
O -20.491600 -55.633500 -9.928000
H -20.251200 -56.121100 -6.177700
O -19.616600 -56.711300 -3.997700
C -19.535800 -56.483600 -6.649400
C -19.464300 -56.352200 -7.999300
N -18.679200 -57.289500 -4.554800
C -18.525100 -57.164900 -5.983000
C -18.391800 -56.840100 -8.726300
H -18.354400 -56.725300 -9.648700
O -17.868700 -57.964300 -3.912400
C -17.421500 -57.709400 -6.685900
C -17.394200 -57.488500 -8.068400
H -16.666000 -57.797800 -8.555600
H -16.504100 -58.560600 -5.174600
N -16.420500 -58.402400 -6.080800
N -15.444500 -58.957500 -6.878300
C -14.525300 -59.610500 -6.286400
H -14.504700 -59.644500 -5.356900
H -14.068700 -59.640700 -8.879900
C -13.504700 -60.303800 -7.066800
C -13.489600 -60.224500 -8.446200
O -13.297100 -60.027800 -11.139000
N -12.709100 -60.965100 -10.630900
C -12.625900 -61.002500 -9.186300
O -12.583000 -61.191300 -5.107100
C -12.565100 -61.139900 -6.444600
O -12.207100 -61.886100 -11.274000
H -12.008500 -61.713900 -4.845700
C -11.719800 -61.849100 -8.574200
C -11.680200 -61.900500 -7.203400
H -11.145400 -62.374800 -9.083900
H -11.058300 -62.446600 -6.779000
