34
Fragment
H -20.584700 -50.845400 -8.737100
H -20.497600 -50.917200 -6.432200
C -19.962800 -51.391500 -8.312800
C -19.923200 -51.442900 -6.941900
H -19.634500 -51.578100 -10.670400
O -19.436000 -51.405900 -4.242100
C -19.077900 -52.152100 -9.071500
O -19.060000 -52.100700 -10.409000
C -19.017100 -52.289500 -6.329800
N -18.933900 -52.326900 -4.885200
O -18.345900 -53.264200 -4.377100
C -18.153500 -53.067500 -7.069900
C -18.138400 -52.988200 -8.449300
H -17.574300 -53.651300 -6.636200
H -17.138300 -53.647500 -10.159200
C -17.117700 -53.681500 -9.229800
N -16.198500 -54.334500 -8.637800
N -15.222500 -54.889600 -9.435300
H -15.139000 -54.731400 -10.341500
H -14.977000 -55.494200 -6.960500
C -14.248800 -55.803500 -7.447700
C -14.221500 -55.582600 -8.830200
O -13.774300 -55.327700 -11.603700
H -13.288600 -56.566700 -5.867400
C -13.251300 -56.451900 -6.789900
C -13.117900 -56.127100 -9.533100
N -12.963800 -56.002500 -10.961400
C -12.178800 -56.939800 -7.516800
C -12.107200 -56.808400 -8.866700
O -12.026400 -56.580700 -11.518400
H -11.391800 -57.170900 -9.338400
O -11.151400 -57.658500 -5.588100
N -11.105100 -57.624800 -6.800700
O -10.194900 -58.111600 -7.457800
34
Fragment
H -26.327800 -47.363600 -3.003900
O -26.135800 -44.972800 -3.249100
H -25.660300 -49.546400 -3.029500
C -25.444600 -47.583800 -3.197100
C -25.047000 -48.881000 -3.237400
N -24.942900 -45.216700 -3.417400
C -24.510100 -46.591700 -3.449200
O -24.100300 -44.330400 -3.543100
H -24.050800 -50.958700 -3.847200
C -23.727400 -49.246900 -3.587300
O -23.384000 -50.506300 -3.695900
C -23.204900 -46.900600 -3.750200
C -22.792400 -48.219000 -3.823200
H -22.593800 -46.215600 -3.905400
C -21.413800 -48.535400 -4.172300
H -21.146900 -49.425500 -4.234300
N -20.574200 -47.607900 -4.392600
H -19.528700 -45.464100 -4.673500
N -19.302500 -48.008600 -4.739400
H -19.139600 -48.745800 -4.685900
C -18.662200 -45.715600 -4.896900
C -18.355100 -47.078900 -4.979100
H -17.971800 -43.847800 -5.056700
C -17.737600 -44.746200 -5.131200
O -17.340200 -49.686900 -5.249900
C -17.013200 -47.399900 -5.318100
N -16.540800 -48.765400 -5.453900
C -16.440900 -45.100400 -5.482600
C -16.079800 -46.413100 -5.571100
O -15.726300 -42.915400 -5.498100
N -15.454800 -44.070200 -5.773500
O -15.389400 -48.954200 -5.791400
H -15.208300 -46.642300 -5.801500
O -14.396900 -44.419100 -6.290200
68
Fragment
H -20.584700 -50.845400 -8.737100
H -20.497600 -50.917200 -6.432200
C -19.962800 -51.391500 -8.312800
C -19.923200 -51.442900 -6.941900
H -19.634500 -51.578100 -10.670400
O -19.436000 -51.405900 -4.242100
C -19.077900 -52.152100 -9.071500
O -19.060000 -52.100700 -10.409000
C -19.017100 -52.289500 -6.329800
N -18.933900 -52.326900 -4.885200
O -18.345900 -53.264200 -4.377100
C -18.153500 -53.067500 -7.069900
C -18.138400 -52.988200 -8.449300
H -17.574300 -53.651300 -6.636200
H -17.138300 -53.647500 -10.159200
C -17.117700 -53.681500 -9.229800
N -16.198500 -54.334500 -8.637800
N -15.222500 -54.889600 -9.435300
H -15.139000 -54.731400 -10.341500
H -14.977000 -55.494200 -6.960500
C -14.248800 -55.803500 -7.447700
C -14.221500 -55.582600 -8.830200
O -13.774300 -55.327700 -11.603700
H -13.288600 -56.566700 -5.867400
C -13.251300 -56.451900 -6.789900
C -13.117900 -56.127100 -9.533100
N -12.963800 -56.002500 -10.961400
C -12.178800 -56.939800 -7.516800
C -12.107200 -56.808400 -8.866700
O -12.026400 -56.580700 -11.518400
H -11.391800 -57.170900 -9.338400
O -11.151400 -57.658500 -5.588100
N -11.105100 -57.624800 -6.800700
O -10.194900 -58.111600 -7.457800
H -26.327800 -47.363600 -3.003900
O -26.135800 -44.972800 -3.249100
H -25.660300 -49.546400 -3.029500
C -25.444600 -47.583800 -3.197100
C -25.047000 -48.881000 -3.237400
N -24.942900 -45.216700 -3.417400
C -24.510100 -46.591700 -3.449200
O -24.100300 -44.330400 -3.543100
H -24.050800 -50.958700 -3.847200
C -23.727400 -49.246900 -3.587300
O -23.384000 -50.506300 -3.695900
C -23.204900 -46.900600 -3.750200
C -22.792400 -48.219000 -3.823200
H -22.593800 -46.215600 -3.905400
C -21.413800 -48.535400 -4.172300
H -21.146900 -49.425500 -4.234300
N -20.574200 -47.607900 -4.392600
H -19.528700 -45.464100 -4.673500
N -19.302500 -48.008600 -4.739400
H -19.139600 -48.745800 -4.685900
C -18.662200 -45.715600 -4.896900
C -18.355100 -47.078900 -4.979100
H -17.971800 -43.847800 -5.056700
C -17.737600 -44.746200 -5.131200
O -17.340200 -49.686900 -5.249900
C -17.013200 -47.399900 -5.318100
N -16.540800 -48.765400 -5.453900
C -16.440900 -45.100400 -5.482600
C -16.079800 -46.413100 -5.571100
O -15.726300 -42.915400 -5.498100
N -15.454800 -44.070200 -5.773500
O -15.389400 -48.954200 -5.791400
H -15.208300 -46.642300 -5.801500
O -14.396900 -44.419100 -6.290200
