42
Fragment
N -42.572800 -8.149400 -33.352300
H -42.283900 -8.411600 -31.383600
H -42.126000 -8.585700 -35.302500
C -42.030800 -8.641600 -32.248800
C -41.947200 -8.739700 -34.404900
N -41.094600 -9.492300 -32.547900
C -41.018200 -9.588700 -33.916800
H -40.744200 -10.303100 -30.735800
H -40.442300 -10.129500 -34.407200
C -40.256500 -10.220800 -31.568700
H -40.086900 -11.115200 -31.904100
H -39.569100 -8.366600 -29.766500
C -38.932700 -9.529600 -31.302600
C -38.821200 -8.589300 -30.268500
H -38.600600 -7.175900 -26.328800
H -38.273200 -6.537400 -28.725500
H -37.892300 -10.459400 -32.743900
C -37.827300 -7.678600 -26.442200
C -37.818000 -9.850000 -32.045200
C -37.606600 -7.989900 -29.990900
C -37.451000 -7.037300 -28.841200
N -37.288500 -8.410200 -25.512200
N -37.128200 -7.735800 -27.585000
H -36.742700 -6.405200 -29.044700
C -36.584800 -9.281000 -31.767600
C -36.498800 -8.322100 -30.765900
C -36.176000 -8.969200 -26.083600
C -36.085500 -8.551600 -27.362900
H -35.686000 -7.895300 -30.610900
H -35.614000 -10.416200 -33.148700
H -35.581500 -9.542800 -25.657900
H -35.423600 -8.784700 -27.973600
H -35.393400 -8.497000 -35.004100
C -35.346900 -9.769100 -32.475500
H -34.787200 -10.230800 -31.832400
C -34.733800 -8.248000 -34.400300
N -34.552700 -8.740600 -33.120500
C -33.758400 -7.333200 -34.594600
H -33.626000 -6.846900 -35.376500
C -33.500600 -8.095800 -32.618900
H -33.161500 -8.242500 -31.765300
N -32.996000 -7.234500 -33.463300
42
Fragment
N -42.572800 -12.694000 -33.352300
H -42.283900 -12.956200 -31.383600
H -42.126000 -13.130300 -35.302500
C -42.030800 -13.186200 -32.248800
C -41.947200 -13.284300 -34.404900
N -41.094600 -14.036900 -32.547900
C -41.018200 -14.133300 -33.916800
H -40.744200 -14.847700 -30.735800
H -40.442300 -14.674100 -34.407200
C -40.256500 -14.765400 -31.568700
H -40.086900 -15.659800 -31.904100
H -39.569100 -12.911200 -29.766500
C -38.932700 -14.074200 -31.302600
C -38.821200 -13.133900 -30.268500
H -38.600600 -11.720500 -26.328800
H -38.273200 -11.082000 -28.725500
H -37.892300 -15.004000 -32.743900
C -37.827300 -12.223200 -26.442200
C -37.818000 -14.394600 -32.045200
C -37.606600 -12.534500 -29.990900
C -37.451000 -11.581900 -28.841200
N -37.288500 -12.954800 -25.512200
N -37.128200 -12.280400 -27.585000
H -36.742700 -10.949800 -29.044700
C -36.584800 -13.825600 -31.767600
C -36.498800 -12.866700 -30.765900
C -36.176000 -13.513800 -26.083600
C -36.085500 -13.096200 -27.362900
H -35.686000 -12.439900 -30.610900
H -35.614000 -14.960800 -33.148700
H -35.581500 -14.087400 -25.657900
H -35.423600 -13.329300 -27.973600
H -35.393400 -13.041600 -35.004100
C -35.346900 -14.313700 -32.475500
H -34.787200 -14.775400 -31.832400
C -34.733800 -12.792600 -34.400300
N -34.552700 -13.285200 -33.120500
C -33.758400 -11.877800 -34.594600
H -33.626000 -11.391500 -35.376500
C -33.500600 -12.640400 -32.618900
H -33.161500 -12.787100 -31.765300
N -32.996000 -11.779100 -33.463300
84
Fragment
N -42.572800 -8.149400 -33.352300
H -42.283900 -8.411600 -31.383600
H -42.126000 -8.585700 -35.302500
C -42.030800 -8.641600 -32.248800
C -41.947200 -8.739700 -34.404900
N -41.094600 -9.492300 -32.547900
C -41.018200 -9.588700 -33.916800
H -40.744200 -10.303100 -30.735800
H -40.442300 -10.129500 -34.407200
C -40.256500 -10.220800 -31.568700
H -40.086900 -11.115200 -31.904100
H -39.569100 -8.366600 -29.766500
C -38.932700 -9.529600 -31.302600
C -38.821200 -8.589300 -30.268500
H -38.600600 -7.175900 -26.328800
H -38.273200 -6.537400 -28.725500
H -37.892300 -10.459400 -32.743900
C -37.827300 -7.678600 -26.442200
C -37.818000 -9.850000 -32.045200
C -37.606600 -7.989900 -29.990900
C -37.451000 -7.037300 -28.841200
N -37.288500 -8.410200 -25.512200
N -37.128200 -7.735800 -27.585000
H -36.742700 -6.405200 -29.044700
C -36.584800 -9.281000 -31.767600
C -36.498800 -8.322100 -30.765900
C -36.176000 -8.969200 -26.083600
C -36.085500 -8.551600 -27.362900
H -35.686000 -7.895300 -30.610900
H -35.614000 -10.416200 -33.148700
H -35.581500 -9.542800 -25.657900
H -35.423600 -8.784700 -27.973600
H -35.393400 -8.497000 -35.004100
C -35.346900 -9.769100 -32.475500
H -34.787200 -10.230800 -31.832400
C -34.733800 -8.248000 -34.400300
N -34.552700 -8.740600 -33.120500
C -33.758400 -7.333200 -34.594600
H -33.626000 -6.846900 -35.376500
C -33.500600 -8.095800 -32.618900
H -33.161500 -8.242500 -31.765300
N -32.996000 -7.234500 -33.463300
N -42.572800 -12.694000 -33.352300
H -42.283900 -12.956200 -31.383600
H -42.126000 -13.130300 -35.302500
C -42.030800 -13.186200 -32.248800
C -41.947200 -13.284300 -34.404900
N -41.094600 -14.036900 -32.547900
C -41.018200 -14.133300 -33.916800
H -40.744200 -14.847700 -30.735800
H -40.442300 -14.674100 -34.407200
C -40.256500 -14.765400 -31.568700
H -40.086900 -15.659800 -31.904100
H -39.569100 -12.911200 -29.766500
C -38.932700 -14.074200 -31.302600
C -38.821200 -13.133900 -30.268500
H -38.600600 -11.720500 -26.328800
H -38.273200 -11.082000 -28.725500
H -37.892300 -15.004000 -32.743900
C -37.827300 -12.223200 -26.442200
C -37.818000 -14.394600 -32.045200
C -37.606600 -12.534500 -29.990900
C -37.451000 -11.581900 -28.841200
N -37.288500 -12.954800 -25.512200
N -37.128200 -12.280400 -27.585000
H -36.742700 -10.949800 -29.044700
C -36.584800 -13.825600 -31.767600
C -36.498800 -12.866700 -30.765900
C -36.176000 -13.513800 -26.083600
C -36.085500 -13.096200 -27.362900
H -35.686000 -12.439900 -30.610900
H -35.614000 -14.960800 -33.148700
H -35.581500 -14.087400 -25.657900
H -35.423600 -13.329300 -27.973600
H -35.393400 -13.041600 -35.004100
C -35.346900 -14.313700 -32.475500
H -34.787200 -14.775400 -31.832400
C -34.733800 -12.792600 -34.400300
N -34.552700 -13.285200 -33.120500
C -33.758400 -11.877800 -34.594600
H -33.626000 -11.391500 -35.376500
C -33.500600 -12.640400 -32.618900
H -33.161500 -12.787100 -31.765300
N -32.996000 -11.779100 -33.463300
