42
Fragment
N -42.572800 -8.149400 -33.352300
H -42.283900 -8.411600 -31.383600
H -42.126000 -8.585700 -35.302500
C -42.030800 -8.641600 -32.248800
C -41.947200 -8.739700 -34.404900
N -41.094600 -9.492300 -32.547900
C -41.018200 -9.588700 -33.916800
H -40.744200 -10.303100 -30.735800
H -40.442300 -10.129500 -34.407200
C -40.256500 -10.220800 -31.568700
H -40.086900 -11.115200 -31.904100
H -39.569100 -8.366600 -29.766500
C -38.932700 -9.529600 -31.302600
C -38.821200 -8.589300 -30.268500
H -38.600600 -7.175900 -26.328800
H -38.273200 -6.537400 -28.725500
H -37.892300 -10.459400 -32.743900
C -37.827300 -7.678600 -26.442200
C -37.818000 -9.850000 -32.045200
C -37.606600 -7.989900 -29.990900
C -37.451000 -7.037300 -28.841200
N -37.288500 -8.410200 -25.512200
N -37.128200 -7.735800 -27.585000
H -36.742700 -6.405200 -29.044700
C -36.584800 -9.281000 -31.767600
C -36.498800 -8.322100 -30.765900
C -36.176000 -8.969200 -26.083600
C -36.085500 -8.551600 -27.362900
H -35.686000 -7.895300 -30.610900
H -35.614000 -10.416200 -33.148700
H -35.581500 -9.542800 -25.657900
H -35.423600 -8.784700 -27.973600
H -35.393400 -8.497000 -35.004100
C -35.346900 -9.769100 -32.475500
H -34.787200 -10.230800 -31.832400
C -34.733800 -8.248000 -34.400300
N -34.552700 -8.740600 -33.120500
C -33.758400 -7.333200 -34.594600
H -33.626000 -6.846900 -35.376500
C -33.500600 -8.095800 -32.618900
H -33.161500 -8.242500 -31.765300
N -32.996000 -7.234500 -33.463300
42
Fragment
N -36.676000 -10.943900 -21.896300
H -36.510500 -9.935900 -20.198300
C -36.171400 -10.082600 -21.051900
H -36.046000 -11.331500 -23.809500
C -35.913600 -10.845200 -23.027600
N -35.119300 -9.437800 -21.553500
C -34.938200 -9.930400 -22.833300
H -34.884800 -7.947600 -20.265400
C -34.325100 -8.409300 -20.908500
H -34.278600 -9.681400 -23.437100
H -34.248400 -9.393700 -16.406600
H -34.090500 -8.635600 -14.090900
H -34.058000 -7.762200 -21.581700
H -33.986000 -10.283100 -19.043900
C -33.586500 -9.626800 -15.795900
C -33.496000 -9.209200 -14.516600
C -33.173200 -9.856300 -19.198900
C -33.087200 -8.897400 -20.200600
H -32.929300 -11.773200 -17.477700
N -32.543800 -10.442600 -16.018000
N -32.383500 -9.768200 -13.945200
C -32.221000 -11.141100 -17.274200
C -32.065400 -10.188500 -18.423900
C -31.854000 -8.328400 -20.478200
C -31.844700 -10.499800 -14.875200
H -31.779700 -7.719000 -21.176900
H -31.398800 -11.641000 -17.158500
H -31.071400 -11.002500 -14.761800
C -30.850800 -9.589100 -18.701500
C -30.739300 -8.648800 -19.735600
H -30.102900 -9.811800 -18.199500
H -29.585100 -7.063200 -20.337100
C -29.415500 -7.957600 -20.001700
H -29.229700 -8.048900 -22.840200
H -28.927800 -7.875300 -19.168800
C -28.653800 -8.589700 -22.349800
N -28.577400 -8.686100 -20.980900
C -27.724800 -9.438700 -22.837900
C -27.641200 -9.536800 -20.681800
H -27.546000 -9.592700 -23.735500
H -27.388100 -9.766800 -19.816600
N -27.099200 -10.029000 -21.785300
84
Fragment
N -42.572800 -8.149400 -33.352300
H -42.283900 -8.411600 -31.383600
H -42.126000 -8.585700 -35.302500
C -42.030800 -8.641600 -32.248800
C -41.947200 -8.739700 -34.404900
N -41.094600 -9.492300 -32.547900
C -41.018200 -9.588700 -33.916800
H -40.744200 -10.303100 -30.735800
H -40.442300 -10.129500 -34.407200
C -40.256500 -10.220800 -31.568700
H -40.086900 -11.115200 -31.904100
H -39.569100 -8.366600 -29.766500
C -38.932700 -9.529600 -31.302600
C -38.821200 -8.589300 -30.268500
H -38.600600 -7.175900 -26.328800
H -38.273200 -6.537400 -28.725500
H -37.892300 -10.459400 -32.743900
C -37.827300 -7.678600 -26.442200
C -37.818000 -9.850000 -32.045200
C -37.606600 -7.989900 -29.990900
C -37.451000 -7.037300 -28.841200
N -37.288500 -8.410200 -25.512200
N -37.128200 -7.735800 -27.585000
H -36.742700 -6.405200 -29.044700
C -36.584800 -9.281000 -31.767600
C -36.498800 -8.322100 -30.765900
C -36.176000 -8.969200 -26.083600
C -36.085500 -8.551600 -27.362900
H -35.686000 -7.895300 -30.610900
H -35.614000 -10.416200 -33.148700
H -35.581500 -9.542800 -25.657900
H -35.423600 -8.784700 -27.973600
H -35.393400 -8.497000 -35.004100
C -35.346900 -9.769100 -32.475500
H -34.787200 -10.230800 -31.832400
C -34.733800 -8.248000 -34.400300
N -34.552700 -8.740600 -33.120500
C -33.758400 -7.333200 -34.594600
H -33.626000 -6.846900 -35.376500
C -33.500600 -8.095800 -32.618900
H -33.161500 -8.242500 -31.765300
N -32.996000 -7.234500 -33.463300
N -36.676000 -10.943900 -21.896300
H -36.510500 -9.935900 -20.198300
C -36.171400 -10.082600 -21.051900
H -36.046000 -11.331500 -23.809500
C -35.913600 -10.845200 -23.027600
N -35.119300 -9.437800 -21.553500
C -34.938200 -9.930400 -22.833300
H -34.884800 -7.947600 -20.265400
C -34.325100 -8.409300 -20.908500
H -34.278600 -9.681400 -23.437100
H -34.248400 -9.393700 -16.406600
H -34.090500 -8.635600 -14.090900
H -34.058000 -7.762200 -21.581700
H -33.986000 -10.283100 -19.043900
C -33.586500 -9.626800 -15.795900
C -33.496000 -9.209200 -14.516600
C -33.173200 -9.856300 -19.198900
C -33.087200 -8.897400 -20.200600
H -32.929300 -11.773200 -17.477700
N -32.543800 -10.442600 -16.018000
N -32.383500 -9.768200 -13.945200
C -32.221000 -11.141100 -17.274200
C -32.065400 -10.188500 -18.423900
C -31.854000 -8.328400 -20.478200
C -31.844700 -10.499800 -14.875200
H -31.779700 -7.719000 -21.176900
H -31.398800 -11.641000 -17.158500
H -31.071400 -11.002500 -14.761800
C -30.850800 -9.589100 -18.701500
C -30.739300 -8.648800 -19.735600
H -30.102900 -9.811800 -18.199500
H -29.585100 -7.063200 -20.337100
C -29.415500 -7.957600 -20.001700
H -29.229700 -8.048900 -22.840200
H -28.927800 -7.875300 -19.168800
C -28.653800 -8.589700 -22.349800
N -28.577400 -8.686100 -20.980900
C -27.724800 -9.438700 -22.837900
C -27.641200 -9.536800 -20.681800
H -27.546000 -9.592700 -23.735500
H -27.388100 -9.766800 -19.816600
N -27.099200 -10.029000 -21.785300
