42
Fragment
N -42.572800 -8.149400 -33.352300
H -42.283900 -8.411600 -31.383600
H -42.126000 -8.585700 -35.302500
C -42.030800 -8.641600 -32.248800
C -41.947200 -8.739700 -34.404900
N -41.094600 -9.492300 -32.547900
C -41.018200 -9.588700 -33.916800
H -40.744200 -10.303100 -30.735800
H -40.442300 -10.129500 -34.407200
C -40.256500 -10.220800 -31.568700
H -40.086900 -11.115200 -31.904100
H -39.569100 -8.366600 -29.766500
C -38.932700 -9.529600 -31.302600
C -38.821200 -8.589300 -30.268500
H -38.600600 -7.175900 -26.328800
H -38.273200 -6.537400 -28.725500
H -37.892300 -10.459400 -32.743900
C -37.827300 -7.678600 -26.442200
C -37.818000 -9.850000 -32.045200
C -37.606600 -7.989900 -29.990900
C -37.451000 -7.037300 -28.841200
N -37.288500 -8.410200 -25.512200
N -37.128200 -7.735800 -27.585000
H -36.742700 -6.405200 -29.044700
C -36.584800 -9.281000 -31.767600
C -36.498800 -8.322100 -30.765900
C -36.176000 -8.969200 -26.083600
C -36.085500 -8.551600 -27.362900
H -35.686000 -7.895300 -30.610900
H -35.614000 -10.416200 -33.148700
H -35.581500 -9.542800 -25.657900
H -35.423600 -8.784700 -27.973600
H -35.393400 -8.497000 -35.004100
C -35.346900 -9.769100 -32.475500
H -34.787200 -10.230800 -31.832400
C -34.733800 -8.248000 -34.400300
N -34.552700 -8.740600 -33.120500
C -33.758400 -7.333200 -34.594600
H -33.626000 -6.846900 -35.376500
C -33.500600 -8.095800 -32.618900
H -33.161500 -8.242500 -31.765300
N -32.996000 -7.234500 -33.463300
42
Fragment
N -42.572800 -3.604800 -33.352300
H -42.283900 -3.867000 -31.383600
H -42.126000 -4.041100 -35.302500
C -42.030800 -4.097000 -32.248800
C -41.947200 -4.195100 -34.404900
N -41.094600 -4.947700 -32.547900
C -41.018200 -5.044100 -33.916800
H -40.744200 -5.758500 -30.735800
H -40.442300 -5.584900 -34.407200
C -40.256500 -5.676200 -31.568700
H -40.086900 -6.570600 -31.904100
H -39.569100 -3.822000 -29.766500
C -38.932700 -4.985000 -31.302600
C -38.821200 -4.044700 -30.268500
H -38.600600 -2.631300 -26.328800
H -38.273200 -1.992800 -28.725500
H -37.892300 -5.914800 -32.743900
C -37.827300 -3.134000 -26.442200
C -37.818000 -5.305400 -32.045200
C -37.606600 -3.445300 -29.990900
C -37.451000 -2.492700 -28.841200
N -37.288500 -3.865600 -25.512200
N -37.128200 -3.191200 -27.585000
H -36.742700 -1.860600 -29.044700
C -36.584800 -4.736400 -31.767600
C -36.498800 -3.777500 -30.765900
C -36.176000 -4.424600 -26.083600
C -36.085500 -4.007000 -27.362900
H -35.686000 -3.350700 -30.610900
H -35.614000 -5.871600 -33.148700
H -35.581500 -4.998200 -25.657900
H -35.423600 -4.240100 -27.973600
H -35.393400 -3.952400 -35.004100
C -35.346900 -5.224500 -32.475500
H -34.787200 -5.686200 -31.832400
C -34.733800 -3.703400 -34.400300
N -34.552700 -4.196000 -33.120500
C -33.758400 -2.788600 -34.594600
H -33.626000 -2.302300 -35.376500
C -33.500600 -3.551200 -32.618900
H -33.161500 -3.697900 -31.765300
N -32.996000 -2.689900 -33.463300
84
Fragment
N -42.572800 -8.149400 -33.352300
H -42.283900 -8.411600 -31.383600
H -42.126000 -8.585700 -35.302500
C -42.030800 -8.641600 -32.248800
C -41.947200 -8.739700 -34.404900
N -41.094600 -9.492300 -32.547900
C -41.018200 -9.588700 -33.916800
H -40.744200 -10.303100 -30.735800
H -40.442300 -10.129500 -34.407200
C -40.256500 -10.220800 -31.568700
H -40.086900 -11.115200 -31.904100
H -39.569100 -8.366600 -29.766500
C -38.932700 -9.529600 -31.302600
C -38.821200 -8.589300 -30.268500
H -38.600600 -7.175900 -26.328800
H -38.273200 -6.537400 -28.725500
H -37.892300 -10.459400 -32.743900
C -37.827300 -7.678600 -26.442200
C -37.818000 -9.850000 -32.045200
C -37.606600 -7.989900 -29.990900
C -37.451000 -7.037300 -28.841200
N -37.288500 -8.410200 -25.512200
N -37.128200 -7.735800 -27.585000
H -36.742700 -6.405200 -29.044700
C -36.584800 -9.281000 -31.767600
C -36.498800 -8.322100 -30.765900
C -36.176000 -8.969200 -26.083600
C -36.085500 -8.551600 -27.362900
H -35.686000 -7.895300 -30.610900
H -35.614000 -10.416200 -33.148700
H -35.581500 -9.542800 -25.657900
H -35.423600 -8.784700 -27.973600
H -35.393400 -8.497000 -35.004100
C -35.346900 -9.769100 -32.475500
H -34.787200 -10.230800 -31.832400
C -34.733800 -8.248000 -34.400300
N -34.552700 -8.740600 -33.120500
C -33.758400 -7.333200 -34.594600
H -33.626000 -6.846900 -35.376500
C -33.500600 -8.095800 -32.618900
H -33.161500 -8.242500 -31.765300
N -32.996000 -7.234500 -33.463300
N -42.572800 -3.604800 -33.352300
H -42.283900 -3.867000 -31.383600
H -42.126000 -4.041100 -35.302500
C -42.030800 -4.097000 -32.248800
C -41.947200 -4.195100 -34.404900
N -41.094600 -4.947700 -32.547900
C -41.018200 -5.044100 -33.916800
H -40.744200 -5.758500 -30.735800
H -40.442300 -5.584900 -34.407200
C -40.256500 -5.676200 -31.568700
H -40.086900 -6.570600 -31.904100
H -39.569100 -3.822000 -29.766500
C -38.932700 -4.985000 -31.302600
C -38.821200 -4.044700 -30.268500
H -38.600600 -2.631300 -26.328800
H -38.273200 -1.992800 -28.725500
H -37.892300 -5.914800 -32.743900
C -37.827300 -3.134000 -26.442200
C -37.818000 -5.305400 -32.045200
C -37.606600 -3.445300 -29.990900
C -37.451000 -2.492700 -28.841200
N -37.288500 -3.865600 -25.512200
N -37.128200 -3.191200 -27.585000
H -36.742700 -1.860600 -29.044700
C -36.584800 -4.736400 -31.767600
C -36.498800 -3.777500 -30.765900
C -36.176000 -4.424600 -26.083600
C -36.085500 -4.007000 -27.362900
H -35.686000 -3.350700 -30.610900
H -35.614000 -5.871600 -33.148700
H -35.581500 -4.998200 -25.657900
H -35.423600 -4.240100 -27.973600
H -35.393400 -3.952400 -35.004100
C -35.346900 -5.224500 -32.475500
H -34.787200 -5.686200 -31.832400
C -34.733800 -3.703400 -34.400300
N -34.552700 -4.196000 -33.120500
C -33.758400 -2.788600 -34.594600
H -33.626000 -2.302300 -35.376500
C -33.500600 -3.551200 -32.618900
H -33.161500 -3.697900 -31.765300
N -32.996000 -2.689900 -33.463300
