3
Fragment
O -14.605000 -19.008600 -36.092200
C -14.534300 -19.815800 -35.272600
O -14.463500 -20.622900 -34.453100
36
Fragment
O -23.364300 -21.502700 -38.031200
O -23.010600 -23.637500 -38.316000
N -22.670500 -22.480300 -38.216700
H -21.486500 -20.267500 -37.904000
O -21.356600 -19.778800 -35.650800
O -21.278100 -20.788000 -41.072400
N -21.264600 -22.205500 -38.490700
H -20.845000 -24.084100 -37.704100
C -20.755900 -20.941300 -38.014500
N -20.626000 -20.745800 -35.576000
O -20.601800 -25.443400 -39.521800
N -20.364400 -21.603100 -41.041100
C -20.340200 -23.276900 -38.012200
O -20.245200 -21.274200 -34.532900
O -20.223000 -22.572800 -41.767100
N -20.138700 -21.267600 -36.751500
H -19.833400 -19.515900 -39.383100
H -19.692900 -23.101200 -35.966300
N -19.670700 -24.722100 -39.858100
C -19.627100 -20.426100 -39.025700
C -19.555300 -22.600500 -36.822300
N -19.404200 -23.609800 -39.050800
N -19.372200 -21.395700 -40.101700
O -18.904200 -24.922900 -40.767200
C -18.603800 -22.539800 -39.573600
N -18.337400 -20.467000 -38.359200
N -18.154200 -22.564900 -37.189800
H -17.963400 -22.881900 -40.260200
O -17.854800 -18.386400 -39.089900
C -17.837400 -21.847500 -38.402500
O -17.558300 -22.998200 -35.085200
N -17.414000 -19.428700 -38.666800
N -17.207600 -22.553000 -36.156800
H -16.852000 -21.860700 -38.571800
O -16.241500 -19.678400 -38.387000
O -16.100100 -22.150000 -36.450500
39
Fragment
O -14.605000 -19.008600 -36.092200
C -14.534300 -19.815800 -35.272600
O -14.463500 -20.622900 -34.453100
O -23.364300 -21.502700 -38.031200
O -23.010600 -23.637500 -38.316000
N -22.670500 -22.480300 -38.216700
H -21.486500 -20.267500 -37.904000
O -21.356600 -19.778800 -35.650800
O -21.278100 -20.788000 -41.072400
N -21.264600 -22.205500 -38.490700
H -20.845000 -24.084100 -37.704100
C -20.755900 -20.941300 -38.014500
N -20.626000 -20.745800 -35.576000
O -20.601800 -25.443400 -39.521800
N -20.364400 -21.603100 -41.041100
C -20.340200 -23.276900 -38.012200
O -20.245200 -21.274200 -34.532900
O -20.223000 -22.572800 -41.767100
N -20.138700 -21.267600 -36.751500
H -19.833400 -19.515900 -39.383100
H -19.692900 -23.101200 -35.966300
N -19.670700 -24.722100 -39.858100
C -19.627100 -20.426100 -39.025700
C -19.555300 -22.600500 -36.822300
N -19.404200 -23.609800 -39.050800
N -19.372200 -21.395700 -40.101700
O -18.904200 -24.922900 -40.767200
C -18.603800 -22.539800 -39.573600
N -18.337400 -20.467000 -38.359200
N -18.154200 -22.564900 -37.189800
H -17.963400 -22.881900 -40.260200
O -17.854800 -18.386400 -39.089900
C -17.837400 -21.847500 -38.402500
O -17.558300 -22.998200 -35.085200
N -17.414000 -19.428700 -38.666800
N -17.207600 -22.553000 -36.156800
H -16.852000 -21.860700 -38.571800
O -16.241500 -19.678400 -38.387000
O -16.100100 -22.150000 -36.450500
