3
Fragment
O -14.605000 -19.008600 -36.092200
C -14.534300 -19.815800 -35.272600
O -14.463500 -20.622900 -34.453100
36
Fragment
O -13.674800 -21.502700 -38.031200
O -13.321100 -23.637500 -38.316000
N -12.981000 -22.480300 -38.216700
H -11.797000 -20.267500 -37.904000
O -11.667100 -19.778800 -35.650800
O -11.588600 -20.788000 -41.072400
N -11.575100 -22.205500 -38.490700
H -11.155500 -24.084100 -37.704100
C -11.066400 -20.941300 -38.014500
N -10.936500 -20.745800 -35.576000
O -10.912300 -25.443400 -39.521800
N -10.674900 -21.603100 -41.041100
C -10.650700 -23.276900 -38.012200
O -10.555700 -21.274200 -34.532900
O -10.533500 -22.572800 -41.767100
N -10.449200 -21.267600 -36.751500
H -10.143900 -19.515900 -39.383100
H -10.003400 -23.101200 -35.966300
N -9.981200 -24.722100 -39.858100
C -9.937600 -20.426100 -39.025700
C -9.865800 -22.600500 -36.822300
N -9.714700 -23.609800 -39.050800
N -9.682700 -21.395700 -40.101700
O -9.214700 -24.922900 -40.767200
C -8.914300 -22.539800 -39.573600
N -8.647900 -20.467000 -38.359200
N -8.464700 -22.564900 -37.189800
H -8.273900 -22.881900 -40.260200
O -8.165300 -18.386400 -39.089900
C -8.147900 -21.847500 -38.402500
O -7.868800 -22.998200 -35.085200
N -7.724500 -19.428700 -38.666800
N -7.518100 -22.553000 -36.156800
H -7.162500 -21.860700 -38.571800
O -6.552000 -19.678400 -38.387000
O -6.410600 -22.150000 -36.450500
39
Fragment
O -14.605000 -19.008600 -36.092200
C -14.534300 -19.815800 -35.272600
O -14.463500 -20.622900 -34.453100
O -13.674800 -21.502700 -38.031200
O -13.321100 -23.637500 -38.316000
N -12.981000 -22.480300 -38.216700
H -11.797000 -20.267500 -37.904000
O -11.667100 -19.778800 -35.650800
O -11.588600 -20.788000 -41.072400
N -11.575100 -22.205500 -38.490700
H -11.155500 -24.084100 -37.704100
C -11.066400 -20.941300 -38.014500
N -10.936500 -20.745800 -35.576000
O -10.912300 -25.443400 -39.521800
N -10.674900 -21.603100 -41.041100
C -10.650700 -23.276900 -38.012200
O -10.555700 -21.274200 -34.532900
O -10.533500 -22.572800 -41.767100
N -10.449200 -21.267600 -36.751500
H -10.143900 -19.515900 -39.383100
H -10.003400 -23.101200 -35.966300
N -9.981200 -24.722100 -39.858100
C -9.937600 -20.426100 -39.025700
C -9.865800 -22.600500 -36.822300
N -9.714700 -23.609800 -39.050800
N -9.682700 -21.395700 -40.101700
O -9.214700 -24.922900 -40.767200
C -8.914300 -22.539800 -39.573600
N -8.647900 -20.467000 -38.359200
N -8.464700 -22.564900 -37.189800
H -8.273900 -22.881900 -40.260200
O -8.165300 -18.386400 -39.089900
C -8.147900 -21.847500 -38.402500
O -7.868800 -22.998200 -35.085200
N -7.724500 -19.428700 -38.666800
N -7.518100 -22.553000 -36.156800
H -7.162500 -21.860700 -38.571800
O -6.552000 -19.678400 -38.387000
O -6.410600 -22.150000 -36.450500
