3
Fragment
O -14.605000 -19.008600 -36.092200
C -14.534300 -19.815800 -35.272600
O -14.463500 -20.622900 -34.453100
36
Fragment
O -17.813200 -15.544800 -36.450500
O -17.671700 -13.073100 -38.387000
H -17.061300 -15.255500 -38.571800
N -16.705700 -15.947700 -36.156800
N -16.499300 -12.823400 -38.666800
O -16.354900 -16.392900 -35.085200
C -16.075800 -15.242300 -38.402500
O -16.058400 -11.781100 -39.089900
H -15.949900 -16.276700 -40.260200
N -15.759000 -15.959600 -37.189800
N -15.575900 -13.861800 -38.359200
C -15.309400 -15.934500 -39.573600
O -15.009000 -18.317700 -40.767200
N -14.541000 -14.790500 -40.101700
N -14.509100 -17.004600 -39.050800
C -14.357900 -15.995300 -36.822300
C -14.286200 -13.820800 -39.025700
N -14.242600 -18.116900 -39.858100
H -14.220300 -16.496000 -35.966300
H -14.079800 -12.910600 -39.383100
N -13.774600 -14.662300 -36.751500
O -13.690300 -15.967500 -41.767100
O -13.668000 -14.668900 -34.532900
C -13.573100 -16.671700 -38.012200
N -13.548800 -14.997900 -41.041100
O -13.311400 -18.838200 -39.521800
N -13.287200 -14.140500 -35.576000
C -13.157400 -14.336000 -38.014500
H -13.068200 -17.478800 -37.704100
N -12.648700 -15.600300 -38.490700
O -12.635100 -14.182800 -41.072400
O -12.556600 -13.173500 -35.650800
H -12.426800 -13.662300 -37.904000
N -11.242700 -15.875100 -38.216700
O -10.902600 -17.032300 -38.316000
O -10.549000 -14.897500 -38.031200
39
Fragment
O -14.605000 -19.008600 -36.092200
C -14.534300 -19.815800 -35.272600
O -14.463500 -20.622900 -34.453100
O -17.813200 -15.544800 -36.450500
O -17.671700 -13.073100 -38.387000
H -17.061300 -15.255500 -38.571800
N -16.705700 -15.947700 -36.156800
N -16.499300 -12.823400 -38.666800
O -16.354900 -16.392900 -35.085200
C -16.075800 -15.242300 -38.402500
O -16.058400 -11.781100 -39.089900
H -15.949900 -16.276700 -40.260200
N -15.759000 -15.959600 -37.189800
N -15.575900 -13.861800 -38.359200
C -15.309400 -15.934500 -39.573600
O -15.009000 -18.317700 -40.767200
N -14.541000 -14.790500 -40.101700
N -14.509100 -17.004600 -39.050800
C -14.357900 -15.995300 -36.822300
C -14.286200 -13.820800 -39.025700
N -14.242600 -18.116900 -39.858100
H -14.220300 -16.496000 -35.966300
H -14.079800 -12.910600 -39.383100
N -13.774600 -14.662300 -36.751500
O -13.690300 -15.967500 -41.767100
O -13.668000 -14.668900 -34.532900
C -13.573100 -16.671700 -38.012200
N -13.548800 -14.997900 -41.041100
O -13.311400 -18.838200 -39.521800
N -13.287200 -14.140500 -35.576000
C -13.157400 -14.336000 -38.014500
H -13.068200 -17.478800 -37.704100
N -12.648700 -15.600300 -38.490700
O -12.635100 -14.182800 -41.072400
O -12.556600 -13.173500 -35.650800
H -12.426800 -13.662300 -37.904000
N -11.242700 -15.875100 -38.216700
O -10.902600 -17.032300 -38.316000
O -10.549000 -14.897500 -38.031200
