28
Fragment
H -20.263300 -19.817100 -14.622500
H -20.124400 -21.439000 -16.311700
C -19.799800 -19.662300 -15.433700
H -19.789600 -18.206100 -19.379400
H -19.786200 -16.703000 -21.414300
N -19.777500 -20.645800 -16.366500
C -19.425000 -17.596800 -21.358900
C -19.408500 -18.417200 -20.231400
C -19.108100 -18.597700 -15.918400
C -19.096300 -20.215600 -17.480600
H -18.959900 -17.806600 -15.445000
C -18.805000 -18.279100 -22.374400
N -18.797000 -22.443300 -18.136600
C -18.791700 -21.163200 -18.536400
C -18.761800 -19.599500 -20.572900
C -18.655900 -18.933000 -17.202300
H -18.613800 -18.049300 -23.290900
C -18.476100 -20.843000 -19.901100
N -18.447000 -25.837500 -18.194600
N -18.416500 -19.483000 -21.904500
C -18.394900 -24.749700 -18.534600
C -18.324800 -23.372400 -18.973600
H -18.147400 -18.439300 -17.745000
H -18.026800 -20.106800 -22.361700
N -17.898600 -21.774400 -20.678800
C -17.788900 -23.014600 -20.199100
C -17.131200 -23.989400 -21.039800
N -16.636300 -24.787400 -21.693500
28
Fragment
N -17.325500 -21.260300 -24.001700
C -16.830700 -22.058300 -24.655500
C -16.172900 -23.033100 -25.496100
N -16.063300 -24.273300 -25.016500
H -15.935100 -25.940900 -23.333500
H -15.814400 -27.608400 -27.950300
C -15.637100 -22.675300 -26.721700
C -15.567000 -21.298000 -27.160700
N -15.545400 -26.564700 -23.790800
N -15.514900 -20.210200 -27.500600
C -15.485800 -25.204700 -25.794200
H -15.348100 -27.998400 -22.404400
C -15.306000 -27.114700 -28.493000
C -15.200100 -26.448200 -25.122300
C -15.170200 -24.884500 -27.158800
N -15.164800 -23.604400 -27.558700
C -15.156900 -27.768600 -23.320900
H -15.002000 -28.241100 -30.250300
C -14.865600 -25.832000 -28.214700
C -14.853800 -27.450000 -29.776900
C -14.553400 -27.630500 -25.463800
C -14.536800 -28.450900 -24.336400
N -14.184400 -25.401900 -29.328800
H -14.175700 -29.344700 -24.280900
H -14.172300 -27.841600 -26.315900
C -14.162100 -26.385400 -30.261500
H -13.837500 -24.608700 -29.383600
H -13.698600 -26.230500 -31.072800
56
Fragment
H -20.263300 -19.817100 -14.622500
H -20.124400 -21.439000 -16.311700
C -19.799800 -19.662300 -15.433700
H -19.789600 -18.206100 -19.379400
H -19.786200 -16.703000 -21.414300
N -19.777500 -20.645800 -16.366500
C -19.425000 -17.596800 -21.358900
C -19.408500 -18.417200 -20.231400
C -19.108100 -18.597700 -15.918400
C -19.096300 -20.215600 -17.480600
H -18.959900 -17.806600 -15.445000
C -18.805000 -18.279100 -22.374400
N -18.797000 -22.443300 -18.136600
C -18.791700 -21.163200 -18.536400
C -18.761800 -19.599500 -20.572900
C -18.655900 -18.933000 -17.202300
H -18.613800 -18.049300 -23.290900
C -18.476100 -20.843000 -19.901100
N -18.447000 -25.837500 -18.194600
N -18.416500 -19.483000 -21.904500
C -18.394900 -24.749700 -18.534600
C -18.324800 -23.372400 -18.973600
H -18.147400 -18.439300 -17.745000
H -18.026800 -20.106800 -22.361700
N -17.898600 -21.774400 -20.678800
C -17.788900 -23.014600 -20.199100
C -17.131200 -23.989400 -21.039800
N -16.636300 -24.787400 -21.693500
N -17.325500 -21.260300 -24.001700
C -16.830700 -22.058300 -24.655500
C -16.172900 -23.033100 -25.496100
N -16.063300 -24.273300 -25.016500
H -15.935100 -25.940900 -23.333500
H -15.814400 -27.608400 -27.950300
C -15.637100 -22.675300 -26.721700
C -15.567000 -21.298000 -27.160700
N -15.545400 -26.564700 -23.790800
N -15.514900 -20.210200 -27.500600
C -15.485800 -25.204700 -25.794200
H -15.348100 -27.998400 -22.404400
C -15.306000 -27.114700 -28.493000
C -15.200100 -26.448200 -25.122300
C -15.170200 -24.884500 -27.158800
N -15.164800 -23.604400 -27.558700
C -15.156900 -27.768600 -23.320900
H -15.002000 -28.241100 -30.250300
C -14.865600 -25.832000 -28.214700
C -14.853800 -27.450000 -29.776900
C -14.553400 -27.630500 -25.463800
C -14.536800 -28.450900 -24.336400
N -14.184400 -25.401900 -29.328800
H -14.175700 -29.344700 -24.280900
H -14.172300 -27.841600 -26.315900
C -14.162100 -26.385400 -30.261500
H -13.837500 -24.608700 -29.383600
H -13.698600 -26.230500 -31.072800
