28
Fragment
H -20.263300 -19.817100 -14.622500
H -20.124400 -21.439000 -16.311700
C -19.799800 -19.662300 -15.433700
H -19.789600 -18.206100 -19.379400
H -19.786200 -16.703000 -21.414300
N -19.777500 -20.645800 -16.366500
C -19.425000 -17.596800 -21.358900
C -19.408500 -18.417200 -20.231400
C -19.108100 -18.597700 -15.918400
C -19.096300 -20.215600 -17.480600
H -18.959900 -17.806600 -15.445000
C -18.805000 -18.279100 -22.374400
N -18.797000 -22.443300 -18.136600
C -18.791700 -21.163200 -18.536400
C -18.761800 -19.599500 -20.572900
C -18.655900 -18.933000 -17.202300
H -18.613800 -18.049300 -23.290900
C -18.476100 -20.843000 -19.901100
N -18.447000 -25.837500 -18.194600
N -18.416500 -19.483000 -21.904500
C -18.394900 -24.749700 -18.534600
C -18.324800 -23.372400 -18.973600
H -18.147400 -18.439300 -17.745000
H -18.026800 -20.106800 -22.361700
N -17.898600 -21.774400 -20.678800
C -17.788900 -23.014600 -20.199100
C -17.131200 -23.989400 -21.039800
N -16.636300 -24.787400 -21.693500
28
Fragment
H -17.708600 -28.323000 -17.845500
H -17.676500 -29.633200 -19.764700
N -17.386900 -29.905600 -19.037700
H -17.375400 -33.498700 -17.182900
C -17.320900 -29.188800 -17.891100
H -17.011500 -35.788300 -16.074100
C -16.897000 -34.253000 -17.573800
N -16.826200 -30.854700 -24.555400
C -16.785900 -31.135000 -18.860700
N -16.752300 -31.395600 -21.188000
C -16.727100 -35.505200 -16.974400
C -16.655800 -29.938500 -16.959500
C -16.625700 -31.378300 -23.558500
C -16.593300 -32.000900 -20.005200
H -16.461100 -29.714800 -16.093900
C -16.382600 -32.045100 -22.295500
C -16.324700 -34.305300 -18.839700
C -16.315200 -31.156100 -17.558600
C -16.217200 -33.397800 -19.967800
C -16.068500 -36.308000 -17.870700
N -15.838100 -35.591800 -18.992500
H -15.783500 -31.892400 -17.166200
C -15.782200 -33.293100 -22.231200
H -15.746600 -37.215800 -17.775500
N -15.742700 -33.977600 -21.079700
H -15.464800 -35.870300 -19.709900
C -15.220200 -33.935600 -23.398700
N -14.796900 -34.431900 -24.341100
56
Fragment
H -20.263300 -19.817100 -14.622500
H -20.124400 -21.439000 -16.311700
C -19.799800 -19.662300 -15.433700
H -19.789600 -18.206100 -19.379400
H -19.786200 -16.703000 -21.414300
N -19.777500 -20.645800 -16.366500
C -19.425000 -17.596800 -21.358900
C -19.408500 -18.417200 -20.231400
C -19.108100 -18.597700 -15.918400
C -19.096300 -20.215600 -17.480600
H -18.959900 -17.806600 -15.445000
C -18.805000 -18.279100 -22.374400
N -18.797000 -22.443300 -18.136600
C -18.791700 -21.163200 -18.536400
C -18.761800 -19.599500 -20.572900
C -18.655900 -18.933000 -17.202300
H -18.613800 -18.049300 -23.290900
C -18.476100 -20.843000 -19.901100
N -18.447000 -25.837500 -18.194600
N -18.416500 -19.483000 -21.904500
C -18.394900 -24.749700 -18.534600
C -18.324800 -23.372400 -18.973600
H -18.147400 -18.439300 -17.745000
H -18.026800 -20.106800 -22.361700
N -17.898600 -21.774400 -20.678800
C -17.788900 -23.014600 -20.199100
C -17.131200 -23.989400 -21.039800
N -16.636300 -24.787400 -21.693500
H -17.708600 -28.323000 -17.845500
H -17.676500 -29.633200 -19.764700
N -17.386900 -29.905600 -19.037700
H -17.375400 -33.498700 -17.182900
C -17.320900 -29.188800 -17.891100
H -17.011500 -35.788300 -16.074100
C -16.897000 -34.253000 -17.573800
N -16.826200 -30.854700 -24.555400
C -16.785900 -31.135000 -18.860700
N -16.752300 -31.395600 -21.188000
C -16.727100 -35.505200 -16.974400
C -16.655800 -29.938500 -16.959500
C -16.625700 -31.378300 -23.558500
C -16.593300 -32.000900 -20.005200
H -16.461100 -29.714800 -16.093900
C -16.382600 -32.045100 -22.295500
C -16.324700 -34.305300 -18.839700
C -16.315200 -31.156100 -17.558600
C -16.217200 -33.397800 -19.967800
C -16.068500 -36.308000 -17.870700
N -15.838100 -35.591800 -18.992500
H -15.783500 -31.892400 -17.166200
C -15.782200 -33.293100 -22.231200
H -15.746600 -37.215800 -17.775500
N -15.742700 -33.977600 -21.079700
H -15.464800 -35.870300 -19.709900
C -15.220200 -33.935600 -23.398700
N -14.796900 -34.431900 -24.341100
