28
Fragment
H -20.263300 -19.817100 -14.622500
H -20.124400 -21.439000 -16.311700
C -19.799800 -19.662300 -15.433700
H -19.789600 -18.206100 -19.379400
H -19.786200 -16.703000 -21.414300
N -19.777500 -20.645800 -16.366500
C -19.425000 -17.596800 -21.358900
C -19.408500 -18.417200 -20.231400
C -19.108100 -18.597700 -15.918400
C -19.096300 -20.215600 -17.480600
H -18.959900 -17.806600 -15.445000
C -18.805000 -18.279100 -22.374400
N -18.797000 -22.443300 -18.136600
C -18.791700 -21.163200 -18.536400
C -18.761800 -19.599500 -20.572900
C -18.655900 -18.933000 -17.202300
H -18.613800 -18.049300 -23.290900
C -18.476100 -20.843000 -19.901100
N -18.447000 -25.837500 -18.194600
N -18.416500 -19.483000 -21.904500
C -18.394900 -24.749700 -18.534600
C -18.324800 -23.372400 -18.973600
H -18.147400 -18.439300 -17.745000
H -18.026800 -20.106800 -22.361700
N -17.898600 -21.774400 -20.678800
C -17.788900 -23.014600 -20.199100
C -17.131200 -23.989400 -21.039800
N -16.636300 -24.787400 -21.693500
5
Fragment
Cl -22.121000 -27.032800 -19.518100
H -21.710200 -28.910800 -18.316200
Cl -21.428000 -27.312300 -16.709200
C -21.266100 -27.985400 -18.320100
H -20.358100 -27.998200 -18.575100
33
Fragment
H -20.263300 -19.817100 -14.622500
H -20.124400 -21.439000 -16.311700
C -19.799800 -19.662300 -15.433700
H -19.789600 -18.206100 -19.379400
H -19.786200 -16.703000 -21.414300
N -19.777500 -20.645800 -16.366500
C -19.425000 -17.596800 -21.358900
C -19.408500 -18.417200 -20.231400
C -19.108100 -18.597700 -15.918400
C -19.096300 -20.215600 -17.480600
H -18.959900 -17.806600 -15.445000
C -18.805000 -18.279100 -22.374400
N -18.797000 -22.443300 -18.136600
C -18.791700 -21.163200 -18.536400
C -18.761800 -19.599500 -20.572900
C -18.655900 -18.933000 -17.202300
H -18.613800 -18.049300 -23.290900
C -18.476100 -20.843000 -19.901100
N -18.447000 -25.837500 -18.194600
N -18.416500 -19.483000 -21.904500
C -18.394900 -24.749700 -18.534600
C -18.324800 -23.372400 -18.973600
H -18.147400 -18.439300 -17.745000
H -18.026800 -20.106800 -22.361700
N -17.898600 -21.774400 -20.678800
C -17.788900 -23.014600 -20.199100
C -17.131200 -23.989400 -21.039800
N -16.636300 -24.787400 -21.693500
Cl -22.121000 -27.032800 -19.518100
H -21.710200 -28.910800 -18.316200
Cl -21.428000 -27.312300 -16.709200
C -21.266100 -27.985400 -18.320100
H -20.358100 -27.998200 -18.575100
