8
Fragment
O -33.027100 -34.402400 -14.539300
H -32.159200 -33.100400 -16.354400
C -31.839200 -34.171500 -14.846300
N -31.536100 -33.298300 -15.826100
H -31.111300 -35.323700 -13.601900
N -30.828100 -34.759300 -14.195200
H -30.696500 -33.245000 -16.078200
H -30.050500 -34.648200 -14.457000
52
Fragment
H -35.778000 -32.858600 -9.130300
H -35.274600 -32.548100 -7.678400
C -35.077000 -32.454300 -8.613600
H -35.011100 -31.521800 -8.834600
H -34.213800 -33.247400 -10.839700
O -33.836200 -33.101300 -8.906500
C -33.485700 -32.944200 -10.275800
H -33.319400 -32.007700 -10.468200
H -33.038500 -42.323000 -13.549400
H -32.362300 -34.657600 -10.229500
C -32.273300 -41.804600 -13.649100
C -32.249900 -33.752500 -10.556400
H -32.085700 -33.790100 -11.512200
C -31.294800 -41.140500 -13.775600
O -31.143300 -33.116500 -9.887000
H -30.703000 -38.969100 -12.498300
H -30.556100 -27.978300 -7.820000
H -30.376800 -35.259700 -11.216400
C -30.112800 -40.311900 -13.889600
H -30.048400 -27.336000 -9.156100
C -30.024400 -39.162500 -13.104000
C -29.907900 -33.647000 -10.120800
H -29.888500 -36.968600 -12.132200
C -29.783500 -27.804800 -8.361600
H -29.696200 -30.078300 -7.129600
C -29.664500 -34.761500 -10.885100
O -29.214600 -31.898900 -8.740000
O -29.167300 -29.039500 -8.722700
H -29.160400 -27.269600 -7.866300
H -29.117200 -41.379600 -15.309500
C -29.078100 -40.611900 -14.785700
N -28.991500 -37.121300 -12.420800
C -28.926400 -38.296000 -13.214400
C -28.877200 -29.851800 -7.598200
C -28.817500 -32.936400 -9.525800
C -28.337900 -35.159200 -11.171200
H -28.291900 -29.376800 -6.986200
C -28.203500 -31.100400 -8.094300
C -27.998300 -39.756000 -14.881000
C -27.992200 -36.286500 -11.999400
C -27.904700 -38.598400 -14.111400
H -27.812200 -31.588200 -7.353200
C -27.520600 -33.315400 -9.788600
H -27.499000 -30.877100 -8.722300
H -27.313200 -39.957500 -15.476100
C -27.254200 -34.411900 -10.649000
H -27.170600 -38.035200 -14.196000
H -26.814100 -32.851500 -9.399300
N -26.730900 -36.528000 -12.344300
N -25.945100 -34.709800 -10.968700
C -25.793000 -35.713800 -11.802600
H -24.917200 -35.890200 -12.057300
60
Fragment
O -33.027100 -34.402400 -14.539300
H -32.159200 -33.100400 -16.354400
C -31.839200 -34.171500 -14.846300
N -31.536100 -33.298300 -15.826100
H -31.111300 -35.323700 -13.601900
N -30.828100 -34.759300 -14.195200
H -30.696500 -33.245000 -16.078200
H -30.050500 -34.648200 -14.457000
H -35.778000 -32.858600 -9.130300
H -35.274600 -32.548100 -7.678400
C -35.077000 -32.454300 -8.613600
H -35.011100 -31.521800 -8.834600
H -34.213800 -33.247400 -10.839700
O -33.836200 -33.101300 -8.906500
C -33.485700 -32.944200 -10.275800
H -33.319400 -32.007700 -10.468200
H -33.038500 -42.323000 -13.549400
H -32.362300 -34.657600 -10.229500
C -32.273300 -41.804600 -13.649100
C -32.249900 -33.752500 -10.556400
H -32.085700 -33.790100 -11.512200
C -31.294800 -41.140500 -13.775600
O -31.143300 -33.116500 -9.887000
H -30.703000 -38.969100 -12.498300
H -30.556100 -27.978300 -7.820000
H -30.376800 -35.259700 -11.216400
C -30.112800 -40.311900 -13.889600
H -30.048400 -27.336000 -9.156100
C -30.024400 -39.162500 -13.104000
C -29.907900 -33.647000 -10.120800
H -29.888500 -36.968600 -12.132200
C -29.783500 -27.804800 -8.361600
H -29.696200 -30.078300 -7.129600
C -29.664500 -34.761500 -10.885100
O -29.214600 -31.898900 -8.740000
O -29.167300 -29.039500 -8.722700
H -29.160400 -27.269600 -7.866300
H -29.117200 -41.379600 -15.309500
C -29.078100 -40.611900 -14.785700
N -28.991500 -37.121300 -12.420800
C -28.926400 -38.296000 -13.214400
C -28.877200 -29.851800 -7.598200
C -28.817500 -32.936400 -9.525800
C -28.337900 -35.159200 -11.171200
H -28.291900 -29.376800 -6.986200
C -28.203500 -31.100400 -8.094300
C -27.998300 -39.756000 -14.881000
C -27.992200 -36.286500 -11.999400
C -27.904700 -38.598400 -14.111400
H -27.812200 -31.588200 -7.353200
C -27.520600 -33.315400 -9.788600
H -27.499000 -30.877100 -8.722300
H -27.313200 -39.957500 -15.476100
C -27.254200 -34.411900 -10.649000
H -27.170600 -38.035200 -14.196000
H -26.814100 -32.851500 -9.399300
N -26.730900 -36.528000 -12.344300
N -25.945100 -34.709800 -10.968700
C -25.793000 -35.713800 -11.802600
H -24.917200 -35.890200 -12.057300
