8
Fragment
O -33.027100 -34.402400 -14.539300
H -32.159200 -33.100400 -16.354400
C -31.839200 -34.171500 -14.846300
N -31.536100 -33.298300 -15.826100
H -31.111300 -35.323700 -13.601900
N -30.828100 -34.759300 -14.195200
H -30.696500 -33.245000 -16.078200
H -30.050500 -34.648200 -14.457000
52
Fragment
H -29.095600 -35.890200 -16.511100
C -28.219700 -35.713800 -16.256400
N -28.067600 -34.709800 -15.422500
N -27.281800 -36.528000 -16.798100
H -27.198700 -32.851500 -13.853100
H -26.842200 -38.035200 -18.649800
C -26.758600 -34.411900 -15.102800
H -26.699600 -39.957500 -19.929900
H -26.513800 -30.877100 -13.176100
C -26.492200 -33.315400 -14.242400
H -26.200500 -31.588200 -11.807000
C -26.108000 -38.598400 -18.565200
C -26.020500 -36.286500 -16.453200
C -26.014500 -39.756000 -19.334800
C -25.809200 -31.100400 -12.548100
H -25.720900 -29.376800 -11.440000
C -25.674900 -35.159200 -15.625000
C -25.195200 -32.936400 -13.979600
C -25.135600 -29.851800 -12.052000
C -25.086300 -38.296000 -17.668200
N -25.021300 -37.121300 -16.874600
C -24.934700 -40.611900 -19.239500
H -24.895600 -41.379600 -19.763300
H -24.852300 -27.269600 -12.320100
O -24.845400 -29.039500 -13.176500
O -24.798100 -31.898900 -13.193800
C -24.348300 -34.761500 -15.338900
H -24.316500 -30.078300 -11.583400
C -24.229300 -27.804800 -12.815400
H -24.124300 -36.968600 -16.586000
C -24.104800 -33.647000 -14.574600
C -23.988400 -39.162500 -17.557800
H -23.964400 -27.336000 -13.609900
C -23.900000 -40.311900 -18.343400
H -23.636000 -35.259700 -15.670200
H -23.456700 -27.978300 -12.273800
H -23.309700 -38.969100 -16.952100
O -22.869400 -33.116500 -14.340800
C -22.718000 -41.140500 -18.229400
H -21.927000 -33.790100 -15.966000
C -21.762800 -33.752500 -15.010200
C -21.739500 -41.804600 -18.102900
H -21.650500 -34.657600 -14.683300
H -20.974200 -42.323000 -18.003200
H -20.693400 -32.007700 -14.922000
C -20.527000 -32.944200 -14.729600
O -20.176600 -33.101300 -13.360300
H -19.798900 -33.247400 -15.293500
H -19.001700 -31.521800 -13.288400
C -18.935800 -32.454300 -13.067400
H -18.738100 -32.548100 -12.132200
H -18.234700 -32.858600 -13.584100
60
Fragment
O -33.027100 -34.402400 -14.539300
H -32.159200 -33.100400 -16.354400
C -31.839200 -34.171500 -14.846300
N -31.536100 -33.298300 -15.826100
H -31.111300 -35.323700 -13.601900
N -30.828100 -34.759300 -14.195200
H -30.696500 -33.245000 -16.078200
H -30.050500 -34.648200 -14.457000
H -29.095600 -35.890200 -16.511100
C -28.219700 -35.713800 -16.256400
N -28.067600 -34.709800 -15.422500
N -27.281800 -36.528000 -16.798100
H -27.198700 -32.851500 -13.853100
H -26.842200 -38.035200 -18.649800
C -26.758600 -34.411900 -15.102800
H -26.699600 -39.957500 -19.929900
H -26.513800 -30.877100 -13.176100
C -26.492200 -33.315400 -14.242400
H -26.200500 -31.588200 -11.807000
C -26.108000 -38.598400 -18.565200
C -26.020500 -36.286500 -16.453200
C -26.014500 -39.756000 -19.334800
C -25.809200 -31.100400 -12.548100
H -25.720900 -29.376800 -11.440000
C -25.674900 -35.159200 -15.625000
C -25.195200 -32.936400 -13.979600
C -25.135600 -29.851800 -12.052000
C -25.086300 -38.296000 -17.668200
N -25.021300 -37.121300 -16.874600
C -24.934700 -40.611900 -19.239500
H -24.895600 -41.379600 -19.763300
H -24.852300 -27.269600 -12.320100
O -24.845400 -29.039500 -13.176500
O -24.798100 -31.898900 -13.193800
C -24.348300 -34.761500 -15.338900
H -24.316500 -30.078300 -11.583400
C -24.229300 -27.804800 -12.815400
H -24.124300 -36.968600 -16.586000
C -24.104800 -33.647000 -14.574600
C -23.988400 -39.162500 -17.557800
H -23.964400 -27.336000 -13.609900
C -23.900000 -40.311900 -18.343400
H -23.636000 -35.259700 -15.670200
H -23.456700 -27.978300 -12.273800
H -23.309700 -38.969100 -16.952100
O -22.869400 -33.116500 -14.340800
C -22.718000 -41.140500 -18.229400
H -21.927000 -33.790100 -15.966000
C -21.762800 -33.752500 -15.010200
C -21.739500 -41.804600 -18.102900
H -21.650500 -34.657600 -14.683300
H -20.974200 -42.323000 -18.003200
H -20.693400 -32.007700 -14.922000
C -20.527000 -32.944200 -14.729600
O -20.176600 -33.101300 -13.360300
H -19.798900 -33.247400 -15.293500
H -19.001700 -31.521800 -13.288400
C -18.935800 -32.454300 -13.067400
H -18.738100 -32.548100 -12.132200
H -18.234700 -32.858600 -13.584100
