8
Fragment
O -33.027100 -34.402400 -14.539300
H -32.159200 -33.100400 -16.354400
C -31.839200 -34.171500 -14.846300
N -31.536100 -33.298300 -15.826100
H -31.111300 -35.323700 -13.601900
N -30.828100 -34.759300 -14.195200
H -30.696500 -33.245000 -16.078200
H -30.050500 -34.648200 -14.457000
52
Fragment
H -35.778000 -26.397400 -13.584100
H -35.274600 -26.707900 -12.132200
C -35.077000 -26.801700 -13.067400
H -35.011100 -27.734200 -13.288400
H -34.213800 -26.008600 -15.293500
O -33.836200 -26.154700 -13.360300
C -33.485700 -26.311800 -14.729600
H -33.319400 -27.248300 -14.922000
H -33.038500 -16.933000 -18.003200
H -32.362300 -24.598400 -14.683300
C -32.273300 -17.451400 -18.102900
C -32.249900 -25.503500 -15.010200
H -32.085700 -25.465900 -15.966000
C -31.294800 -18.115500 -18.229400
O -31.143300 -26.139500 -14.340800
H -30.703000 -20.286900 -16.952100
H -30.556100 -31.277700 -12.273800
H -30.376800 -23.996300 -15.670200
C -30.112800 -18.944100 -18.343400
H -30.048400 -31.920000 -13.609900
C -30.024400 -20.093500 -17.557800
C -29.907900 -25.609000 -14.574600
H -29.888500 -22.287400 -16.586000
C -29.783500 -31.451200 -12.815400
H -29.696200 -29.177700 -11.583400
C -29.664500 -24.494500 -15.338900
O -29.214600 -27.357100 -13.193800
O -29.167300 -30.216500 -13.176500
H -29.160400 -31.986400 -12.320100
H -29.117200 -17.876400 -19.763300
C -29.078100 -18.644100 -19.239500
N -28.991500 -22.134700 -16.874600
C -28.926400 -20.960000 -17.668200
C -28.877200 -29.404200 -12.052000
C -28.817500 -26.319600 -13.979600
C -28.337900 -24.096800 -15.625000
H -28.291900 -29.879200 -11.440000
C -28.203500 -28.155600 -12.548100
C -27.998300 -19.500000 -19.334800
C -27.992200 -22.969500 -16.453200
C -27.904700 -20.657600 -18.565200
H -27.812200 -27.667800 -11.807000
C -27.520600 -25.940600 -14.242400
H -27.499000 -28.378900 -13.176100
H -27.313200 -19.298500 -19.929900
C -27.254200 -24.844100 -15.102800
H -27.170600 -21.220800 -18.649800
H -26.814100 -26.404500 -13.853100
N -26.730900 -22.728000 -16.798100
N -25.945100 -24.546200 -15.422500
C -25.793000 -23.542200 -16.256400
H -24.917200 -23.365800 -16.511100
60
Fragment
O -33.027100 -34.402400 -14.539300
H -32.159200 -33.100400 -16.354400
C -31.839200 -34.171500 -14.846300
N -31.536100 -33.298300 -15.826100
H -31.111300 -35.323700 -13.601900
N -30.828100 -34.759300 -14.195200
H -30.696500 -33.245000 -16.078200
H -30.050500 -34.648200 -14.457000
H -35.778000 -26.397400 -13.584100
H -35.274600 -26.707900 -12.132200
C -35.077000 -26.801700 -13.067400
H -35.011100 -27.734200 -13.288400
H -34.213800 -26.008600 -15.293500
O -33.836200 -26.154700 -13.360300
C -33.485700 -26.311800 -14.729600
H -33.319400 -27.248300 -14.922000
H -33.038500 -16.933000 -18.003200
H -32.362300 -24.598400 -14.683300
C -32.273300 -17.451400 -18.102900
C -32.249900 -25.503500 -15.010200
H -32.085700 -25.465900 -15.966000
C -31.294800 -18.115500 -18.229400
O -31.143300 -26.139500 -14.340800
H -30.703000 -20.286900 -16.952100
H -30.556100 -31.277700 -12.273800
H -30.376800 -23.996300 -15.670200
C -30.112800 -18.944100 -18.343400
H -30.048400 -31.920000 -13.609900
C -30.024400 -20.093500 -17.557800
C -29.907900 -25.609000 -14.574600
H -29.888500 -22.287400 -16.586000
C -29.783500 -31.451200 -12.815400
H -29.696200 -29.177700 -11.583400
C -29.664500 -24.494500 -15.338900
O -29.214600 -27.357100 -13.193800
O -29.167300 -30.216500 -13.176500
H -29.160400 -31.986400 -12.320100
H -29.117200 -17.876400 -19.763300
C -29.078100 -18.644100 -19.239500
N -28.991500 -22.134700 -16.874600
C -28.926400 -20.960000 -17.668200
C -28.877200 -29.404200 -12.052000
C -28.817500 -26.319600 -13.979600
C -28.337900 -24.096800 -15.625000
H -28.291900 -29.879200 -11.440000
C -28.203500 -28.155600 -12.548100
C -27.998300 -19.500000 -19.334800
C -27.992200 -22.969500 -16.453200
C -27.904700 -20.657600 -18.565200
H -27.812200 -27.667800 -11.807000
C -27.520600 -25.940600 -14.242400
H -27.499000 -28.378900 -13.176100
H -27.313200 -19.298500 -19.929900
C -27.254200 -24.844100 -15.102800
H -27.170600 -21.220800 -18.649800
H -26.814100 -26.404500 -13.853100
N -26.730900 -22.728000 -16.798100
N -25.945100 -24.546200 -15.422500
C -25.793000 -23.542200 -16.256400
H -24.917200 -23.365800 -16.511100
