8
Fragment
O -33.027100 -34.402400 -14.539300
H -32.159200 -33.100400 -16.354400
C -31.839200 -34.171500 -14.846300
N -31.536100 -33.298300 -15.826100
H -31.111300 -35.323700 -13.601900
N -30.828100 -34.759300 -14.195200
H -30.696500 -33.245000 -16.078200
H -30.050500 -34.648200 -14.457000
8
Fragment
H -34.764800 -36.459000 -12.265800
H -34.118800 -37.862200 -10.644600
N -33.987200 -36.347900 -12.527600
H -33.704000 -35.783500 -13.120900
N -33.279200 -37.808900 -10.896700
C -32.976100 -36.935700 -11.876500
H -32.656100 -38.006800 -10.368400
O -31.788200 -36.704800 -12.183500
16
Fragment
O -33.027100 -34.402400 -14.539300
H -32.159200 -33.100400 -16.354400
C -31.839200 -34.171500 -14.846300
N -31.536100 -33.298300 -15.826100
H -31.111300 -35.323700 -13.601900
N -30.828100 -34.759300 -14.195200
H -30.696500 -33.245000 -16.078200
H -30.050500 -34.648200 -14.457000
H -34.764800 -36.459000 -12.265800
H -34.118800 -37.862200 -10.644600
N -33.987200 -36.347900 -12.527600
H -33.704000 -35.783500 -13.120900
N -33.279200 -37.808900 -10.896700
C -32.976100 -36.935700 -11.876500
H -32.656100 -38.006800 -10.368400
O -31.788200 -36.704800 -12.183500
