8
Fragment
O -33.027100 -34.402400 -14.539300
H -32.159200 -33.100400 -16.354400
C -31.839200 -34.171500 -14.846300
N -31.536100 -33.298300 -15.826100
H -31.111300 -35.323700 -13.601900
N -30.828100 -34.759300 -14.195200
H -30.696500 -33.245000 -16.078200
H -30.050500 -34.648200 -14.457000
52
Fragment
H -35.778000 -32.858600 -18.037900
H -35.274600 -32.548100 -16.586000
C -35.077000 -32.454300 -17.521200
H -35.011100 -31.521800 -17.742200
H -34.213800 -33.247400 -19.747300
O -33.836200 -33.101300 -17.814100
C -33.485700 -32.944200 -19.183400
H -33.319400 -32.007700 -19.375800
H -33.038500 -42.323000 -22.457000
H -32.362300 -34.657600 -19.137100
C -32.273300 -41.804600 -22.556700
C -32.249900 -33.752500 -19.464000
H -32.085700 -33.790100 -20.419800
C -31.294800 -41.140500 -22.683200
O -31.143300 -33.116500 -18.794600
H -30.703000 -38.969100 -21.405900
H -30.556100 -27.978300 -16.727600
H -30.376800 -35.259700 -20.124000
C -30.112800 -40.311900 -22.797200
H -30.048400 -27.336000 -18.063700
C -30.024400 -39.162500 -22.011600
C -29.907900 -33.647000 -19.028400
H -29.888500 -36.968600 -21.039800
C -29.783500 -27.804800 -17.269200
H -29.696200 -30.078300 -16.037200
C -29.664500 -34.761500 -19.792700
O -29.214600 -31.898900 -17.647600
O -29.167300 -29.039500 -17.630300
H -29.160400 -27.269600 -16.773900
H -29.117200 -41.379600 -24.217100
C -29.078100 -40.611900 -23.693300
N -28.991500 -37.121300 -21.328400
C -28.926400 -38.296000 -22.122000
C -28.877200 -29.851800 -16.505800
C -28.817500 -32.936400 -18.433400
C -28.337900 -35.159200 -20.078800
H -28.291900 -29.376800 -15.893800
C -28.203500 -31.100400 -17.001900
C -27.998300 -39.756000 -23.788600
C -27.992200 -36.286500 -20.907000
C -27.904700 -38.598400 -23.019000
H -27.812200 -31.588200 -16.260800
C -27.520600 -33.315400 -18.696200
H -27.499000 -30.877100 -17.629900
H -27.313200 -39.957500 -24.383700
C -27.254200 -34.411900 -19.556600
H -27.170600 -38.035200 -23.103600
H -26.814100 -32.851500 -18.306900
N -26.730900 -36.528000 -21.251900
N -25.945100 -34.709800 -19.876300
C -25.793000 -35.713800 -20.710200
H -24.917200 -35.890200 -20.964900
60
Fragment
O -33.027100 -34.402400 -14.539300
H -32.159200 -33.100400 -16.354400
C -31.839200 -34.171500 -14.846300
N -31.536100 -33.298300 -15.826100
H -31.111300 -35.323700 -13.601900
N -30.828100 -34.759300 -14.195200
H -30.696500 -33.245000 -16.078200
H -30.050500 -34.648200 -14.457000
H -35.778000 -32.858600 -18.037900
H -35.274600 -32.548100 -16.586000
C -35.077000 -32.454300 -17.521200
H -35.011100 -31.521800 -17.742200
H -34.213800 -33.247400 -19.747300
O -33.836200 -33.101300 -17.814100
C -33.485700 -32.944200 -19.183400
H -33.319400 -32.007700 -19.375800
H -33.038500 -42.323000 -22.457000
H -32.362300 -34.657600 -19.137100
C -32.273300 -41.804600 -22.556700
C -32.249900 -33.752500 -19.464000
H -32.085700 -33.790100 -20.419800
C -31.294800 -41.140500 -22.683200
O -31.143300 -33.116500 -18.794600
H -30.703000 -38.969100 -21.405900
H -30.556100 -27.978300 -16.727600
H -30.376800 -35.259700 -20.124000
C -30.112800 -40.311900 -22.797200
H -30.048400 -27.336000 -18.063700
C -30.024400 -39.162500 -22.011600
C -29.907900 -33.647000 -19.028400
H -29.888500 -36.968600 -21.039800
C -29.783500 -27.804800 -17.269200
H -29.696200 -30.078300 -16.037200
C -29.664500 -34.761500 -19.792700
O -29.214600 -31.898900 -17.647600
O -29.167300 -29.039500 -17.630300
H -29.160400 -27.269600 -16.773900
H -29.117200 -41.379600 -24.217100
C -29.078100 -40.611900 -23.693300
N -28.991500 -37.121300 -21.328400
C -28.926400 -38.296000 -22.122000
C -28.877200 -29.851800 -16.505800
C -28.817500 -32.936400 -18.433400
C -28.337900 -35.159200 -20.078800
H -28.291900 -29.376800 -15.893800
C -28.203500 -31.100400 -17.001900
C -27.998300 -39.756000 -23.788600
C -27.992200 -36.286500 -20.907000
C -27.904700 -38.598400 -23.019000
H -27.812200 -31.588200 -16.260800
C -27.520600 -33.315400 -18.696200
H -27.499000 -30.877100 -17.629900
H -27.313200 -39.957500 -24.383700
C -27.254200 -34.411900 -19.556600
H -27.170600 -38.035200 -23.103600
H -26.814100 -32.851500 -18.306900
N -26.730900 -36.528000 -21.251900
N -25.945100 -34.709800 -19.876300
C -25.793000 -35.713800 -20.710200
H -24.917200 -35.890200 -20.964900
