8
Fragment
O -33.027100 -34.402400 -14.539300
H -32.159200 -33.100400 -16.354400
C -31.839200 -34.171500 -14.846300
N -31.536100 -33.298300 -15.826100
H -31.111300 -35.323700 -13.601900
N -30.828100 -34.759300 -14.195200
H -30.696500 -33.245000 -16.078200
H -30.050500 -34.648200 -14.457000
52
Fragment
H -39.898100 -35.217000 -14.665500
C -39.022300 -35.393400 -14.920200
N -38.870200 -36.397400 -15.754100
N -38.084400 -34.579200 -14.378500
H -38.001200 -38.255700 -17.323500
H -37.644700 -33.072000 -12.526800
C -37.561100 -36.695300 -16.073800
H -37.502100 -31.149700 -11.246700
H -37.316300 -40.230100 -18.000500
C -37.294700 -37.791800 -16.934200
H -37.003100 -39.519000 -19.369600
C -36.910600 -32.508800 -12.611400
C -36.823100 -34.820700 -14.723400
C -36.817000 -31.351200 -11.841800
C -36.611800 -40.006800 -18.628500
H -36.523400 -41.730400 -19.736600
C -36.477400 -35.948000 -15.551600
C -35.997800 -38.170800 -17.197000
C -35.938100 -41.255400 -19.124600
C -35.888900 -32.811200 -13.508400
N -35.823800 -33.985900 -14.302000
C -35.737200 -30.495300 -11.937100
H -35.698100 -29.727600 -11.413300
H -35.654900 -43.837600 -18.856500
O -35.648000 -42.067700 -18.000100
O -35.600700 -39.208300 -17.982800
C -35.150800 -36.345700 -15.837700
H -35.119100 -41.028900 -19.593200
C -35.031800 -43.302400 -18.361200
H -34.926800 -34.138600 -14.590600
C -34.907400 -37.460200 -16.602000
C -34.790900 -31.944700 -13.618800
H -34.766900 -43.771200 -17.566700
C -34.702500 -30.795300 -12.833200
H -34.438500 -35.847500 -15.506400
H -34.259200 -43.128900 -18.902800
H -34.112300 -32.138100 -14.224500
O -33.672000 -37.990700 -16.835800
C -33.520500 -29.966700 -12.947200
H -32.729600 -37.317100 -15.210600
C -32.565400 -37.354700 -16.166400
C -32.542000 -29.302600 -13.073700
H -32.453000 -36.449600 -16.493300
H -31.776800 -28.784200 -13.173400
H -31.495900 -39.099500 -16.254600
C -31.329600 -38.163000 -16.447000
O -30.979100 -38.005900 -17.816300
H -30.601500 -37.859800 -15.883100
H -29.804200 -39.585400 -17.888200
C -29.738300 -38.652900 -18.109200
H -29.540700 -38.559100 -19.044400
H -29.037300 -38.248600 -17.592500
60
Fragment
O -33.027100 -34.402400 -14.539300
H -32.159200 -33.100400 -16.354400
C -31.839200 -34.171500 -14.846300
N -31.536100 -33.298300 -15.826100
H -31.111300 -35.323700 -13.601900
N -30.828100 -34.759300 -14.195200
H -30.696500 -33.245000 -16.078200
H -30.050500 -34.648200 -14.457000
H -39.898100 -35.217000 -14.665500
C -39.022300 -35.393400 -14.920200
N -38.870200 -36.397400 -15.754100
N -38.084400 -34.579200 -14.378500
H -38.001200 -38.255700 -17.323500
H -37.644700 -33.072000 -12.526800
C -37.561100 -36.695300 -16.073800
H -37.502100 -31.149700 -11.246700
H -37.316300 -40.230100 -18.000500
C -37.294700 -37.791800 -16.934200
H -37.003100 -39.519000 -19.369600
C -36.910600 -32.508800 -12.611400
C -36.823100 -34.820700 -14.723400
C -36.817000 -31.351200 -11.841800
C -36.611800 -40.006800 -18.628500
H -36.523400 -41.730400 -19.736600
C -36.477400 -35.948000 -15.551600
C -35.997800 -38.170800 -17.197000
C -35.938100 -41.255400 -19.124600
C -35.888900 -32.811200 -13.508400
N -35.823800 -33.985900 -14.302000
C -35.737200 -30.495300 -11.937100
H -35.698100 -29.727600 -11.413300
H -35.654900 -43.837600 -18.856500
O -35.648000 -42.067700 -18.000100
O -35.600700 -39.208300 -17.982800
C -35.150800 -36.345700 -15.837700
H -35.119100 -41.028900 -19.593200
C -35.031800 -43.302400 -18.361200
H -34.926800 -34.138600 -14.590600
C -34.907400 -37.460200 -16.602000
C -34.790900 -31.944700 -13.618800
H -34.766900 -43.771200 -17.566700
C -34.702500 -30.795300 -12.833200
H -34.438500 -35.847500 -15.506400
H -34.259200 -43.128900 -18.902800
H -34.112300 -32.138100 -14.224500
O -33.672000 -37.990700 -16.835800
C -33.520500 -29.966700 -12.947200
H -32.729600 -37.317100 -15.210600
C -32.565400 -37.354700 -16.166400
C -32.542000 -29.302600 -13.073700
H -32.453000 -36.449600 -16.493300
H -31.776800 -28.784200 -13.173400
H -31.495900 -39.099500 -16.254600
C -31.329600 -38.163000 -16.447000
O -30.979100 -38.005900 -17.816300
H -30.601500 -37.859800 -15.883100
H -29.804200 -39.585400 -17.888200
C -29.738300 -38.652900 -18.109200
H -29.540700 -38.559100 -19.044400
H -29.037300 -38.248600 -17.592500
