15
Fragment
H -10.670700 -9.657900 -20.748400
O -10.270900 -10.279200 -21.022400
H -10.021700 -7.978000 -22.237000
C -9.615300 -9.974400 -22.174800
C -9.588100 -8.683700 -22.680900
H -9.348800 -6.682200 -23.960600
H -8.981900 -11.897700 -22.485100
C -8.969500 -11.006200 -22.838300
C -8.920900 -8.437000 -23.876000
O -8.868400 -7.173800 -24.408500
C -8.323700 -10.741000 -24.038400
C -8.279400 -9.453700 -24.566500
H -7.791400 -9.341700 -25.383900
O -7.772900 -11.816100 -24.664100
H -7.259900 -11.596700 -25.253300
17
Fragment
H -7.907400 -11.779900 -27.807300
H -7.565300 -13.243800 -28.248700
C -7.292400 -12.325100 -28.302200
H -7.286000 -12.046500 -29.221500
C -5.924200 -12.178500 -27.728600
N -5.772100 -11.681000 -26.531400
H -5.128600 -10.402800 -24.523400
H -5.043300 -12.889700 -29.379500
N -4.881300 -12.590400 -28.479700
C -4.491200 -11.595200 -26.034400
H -4.397800 -11.691300 -24.011500
C -4.386200 -10.993400 -24.670500
C -3.570100 -12.547600 -28.045800
H -3.565900 -10.500300 -24.600400
C -3.409200 -12.012500 -26.734100
O -2.663200 -12.947500 -28.795000
H -2.531000 -11.968500 -26.389300
32
Fragment
H -10.670700 -9.657900 -20.748400
O -10.270900 -10.279200 -21.022400
H -10.021700 -7.978000 -22.237000
C -9.615300 -9.974400 -22.174800
C -9.588100 -8.683700 -22.680900
H -9.348800 -6.682200 -23.960600
H -8.981900 -11.897700 -22.485100
C -8.969500 -11.006200 -22.838300
C -8.920900 -8.437000 -23.876000
O -8.868400 -7.173800 -24.408500
C -8.323700 -10.741000 -24.038400
C -8.279400 -9.453700 -24.566500
H -7.791400 -9.341700 -25.383900
O -7.772900 -11.816100 -24.664100
H -7.259900 -11.596700 -25.253300
H -7.907400 -11.779900 -27.807300
H -7.565300 -13.243800 -28.248700
C -7.292400 -12.325100 -28.302200
H -7.286000 -12.046500 -29.221500
C -5.924200 -12.178500 -27.728600
N -5.772100 -11.681000 -26.531400
H -5.128600 -10.402800 -24.523400
H -5.043300 -12.889700 -29.379500
N -4.881300 -12.590400 -28.479700
C -4.491200 -11.595200 -26.034400
H -4.397800 -11.691300 -24.011500
C -4.386200 -10.993400 -24.670500
C -3.570100 -12.547600 -28.045800
H -3.565900 -10.500300 -24.600400
C -3.409200 -12.012500 -26.734100
O -2.663200 -12.947500 -28.795000
H -2.531000 -11.968500 -26.389300
