15
Fragment
H -10.670700 -9.657900 -20.748400
O -10.270900 -10.279200 -21.022400
H -10.021700 -7.978000 -22.237000
C -9.615300 -9.974400 -22.174800
C -9.588100 -8.683700 -22.680900
H -9.348800 -6.682200 -23.960600
H -8.981900 -11.897700 -22.485100
C -8.969500 -11.006200 -22.838300
C -8.920900 -8.437000 -23.876000
O -8.868400 -7.173800 -24.408500
C -8.323700 -10.741000 -24.038400
C -8.279400 -9.453700 -24.566500
H -7.791400 -9.341700 -25.383900
O -7.772900 -11.816100 -24.664100
H -7.259900 -11.596700 -25.253300
15
Fragment
H -8.066800 -3.355300 -26.976900
O -7.553800 -3.136000 -27.566000
H -7.535300 -5.610400 -26.846300
C -7.047200 -5.498300 -27.663700
C -7.003000 -4.211000 -28.191800
O -6.458300 -7.778300 -27.821700
C -6.405800 -6.515100 -28.354200
C -6.357200 -3.945900 -29.391900
H -6.344700 -3.054400 -29.745100
H -5.977900 -8.269800 -28.269600
C -5.738600 -6.268300 -29.549200
C -5.711400 -4.977600 -30.055300
H -5.305000 -6.974100 -29.993200
O -5.055800 -4.672800 -31.207800
H -4.656000 -5.294200 -31.481700
30
Fragment
H -10.670700 -9.657900 -20.748400
O -10.270900 -10.279200 -21.022400
H -10.021700 -7.978000 -22.237000
C -9.615300 -9.974400 -22.174800
C -9.588100 -8.683700 -22.680900
H -9.348800 -6.682200 -23.960600
H -8.981900 -11.897700 -22.485100
C -8.969500 -11.006200 -22.838300
C -8.920900 -8.437000 -23.876000
O -8.868400 -7.173800 -24.408500
C -8.323700 -10.741000 -24.038400
C -8.279400 -9.453700 -24.566500
H -7.791400 -9.341700 -25.383900
O -7.772900 -11.816100 -24.664100
H -7.259900 -11.596700 -25.253300
H -8.066800 -3.355300 -26.976900
O -7.553800 -3.136000 -27.566000
H -7.535300 -5.610400 -26.846300
C -7.047200 -5.498300 -27.663700
C -7.003000 -4.211000 -28.191800
O -6.458300 -7.778300 -27.821700
C -6.405800 -6.515100 -28.354200
C -6.357200 -3.945900 -29.391900
H -6.344700 -3.054400 -29.745100
H -5.977900 -8.269800 -28.269600
C -5.738600 -6.268300 -29.549200
C -5.711400 -4.977600 -30.055300
H -5.305000 -6.974100 -29.993200
O -5.055800 -4.672800 -31.207800
H -4.656000 -5.294200 -31.481700
