15
Fragment
H -10.670700 -9.657900 -20.748400
O -10.270900 -10.279200 -21.022400
H -10.021700 -7.978000 -22.237000
C -9.615300 -9.974400 -22.174800
C -9.588100 -8.683700 -22.680900
H -9.348800 -6.682200 -23.960600
H -8.981900 -11.897700 -22.485100
C -8.969500 -11.006200 -22.838300
C -8.920900 -8.437000 -23.876000
O -8.868400 -7.173800 -24.408500
C -8.323700 -10.741000 -24.038400
C -8.279400 -9.453700 -24.566500
H -7.791400 -9.341700 -25.383900
O -7.772900 -11.816100 -24.664100
H -7.259900 -11.596700 -25.253300
17
Fragment
H -15.211300 -7.643600 -20.461200
O -15.095700 -6.460900 -18.133000
C -14.357200 -7.672500 -20.051600
H -14.225300 -8.754300 -22.385800
C -14.206000 -7.024000 -18.790300
H -13.481200 -9.980400 -21.752600
C -13.429800 -9.038200 -21.928100
C -13.307500 -8.295700 -20.632600
N -12.914900 -7.073600 -18.295400
H -12.806300 -6.734700 -17.471000
H -12.663000 -8.854900 -22.475900
N -12.050400 -8.316100 -20.069000
C -11.899200 -7.707700 -18.923300
H -10.647000 -7.216900 -17.407000
C -10.567600 -7.673600 -18.248400
H -10.261800 -8.570400 -18.097800
H -9.938900 -7.209300 -18.805500
32
Fragment
H -10.670700 -9.657900 -20.748400
O -10.270900 -10.279200 -21.022400
H -10.021700 -7.978000 -22.237000
C -9.615300 -9.974400 -22.174800
C -9.588100 -8.683700 -22.680900
H -9.348800 -6.682200 -23.960600
H -8.981900 -11.897700 -22.485100
C -8.969500 -11.006200 -22.838300
C -8.920900 -8.437000 -23.876000
O -8.868400 -7.173800 -24.408500
C -8.323700 -10.741000 -24.038400
C -8.279400 -9.453700 -24.566500
H -7.791400 -9.341700 -25.383900
O -7.772900 -11.816100 -24.664100
H -7.259900 -11.596700 -25.253300
H -15.211300 -7.643600 -20.461200
O -15.095700 -6.460900 -18.133000
C -14.357200 -7.672500 -20.051600
H -14.225300 -8.754300 -22.385800
C -14.206000 -7.024000 -18.790300
H -13.481200 -9.980400 -21.752600
C -13.429800 -9.038200 -21.928100
C -13.307500 -8.295700 -20.632600
N -12.914900 -7.073600 -18.295400
H -12.806300 -6.734700 -17.471000
H -12.663000 -8.854900 -22.475900
N -12.050400 -8.316100 -20.069000
C -11.899200 -7.707700 -18.923300
H -10.647000 -7.216900 -17.407000
C -10.567600 -7.673600 -18.248400
H -10.261800 -8.570400 -18.097800
H -9.938900 -7.209300 -18.805500
