16
Fragment
O -15.037800 -17.298700 -11.366900
O -14.744100 -17.086100 -9.212500
N -14.454800 -16.814100 -10.386000
H -13.649100 -14.888300 -8.932800
N -13.459300 -15.967400 -10.610700
H -13.329400 -15.718100 -11.524200
C -12.894900 -15.217200 -9.507700
H -12.511200 -14.421300 -9.928300
H -12.248200 -16.834500 -8.320600
C -11.864500 -16.038600 -8.741200
H -11.430000 -15.537700 -6.724700
N -11.300100 -15.288400 -7.638200
H -11.110300 -16.367400 -9.316100
N -10.304600 -14.441700 -7.862900
O -10.015300 -14.169700 -9.036400
O -9.721600 -13.957000 -6.882000
17
Fragment
H -10.210000 -13.760400 -12.345400
H -9.502100 -13.448000 -10.985800
N -9.425400 -13.549400 -11.881000
N -8.785100 -12.230900 -13.781900
C -8.650700 -12.634700 -12.535200
N -7.686600 -11.372800 -14.113300
N -7.525400 -12.061400 -12.008900
C -6.993500 -11.339400 -13.005600
N -6.759800 -12.032900 -10.824300
N -5.829600 -10.821100 -12.491300
C -5.745400 -11.251400 -11.185100
H -5.326100 -9.203900 -13.340000
N -4.900900 -9.961100 -13.090400
H -4.787000 -11.061500 -9.525900
N -4.709300 -10.899300 -10.421700
H -4.537900 -10.400200 -13.860000
H -4.073700 -10.325700 -10.739500
33
Fragment
O -15.037800 -17.298700 -11.366900
O -14.744100 -17.086100 -9.212500
N -14.454800 -16.814100 -10.386000
H -13.649100 -14.888300 -8.932800
N -13.459300 -15.967400 -10.610700
H -13.329400 -15.718100 -11.524200
C -12.894900 -15.217200 -9.507700
H -12.511200 -14.421300 -9.928300
H -12.248200 -16.834500 -8.320600
C -11.864500 -16.038600 -8.741200
H -11.430000 -15.537700 -6.724700
N -11.300100 -15.288400 -7.638200
H -11.110300 -16.367400 -9.316100
N -10.304600 -14.441700 -7.862900
O -10.015300 -14.169700 -9.036400
O -9.721600 -13.957000 -6.882000
H -10.210000 -13.760400 -12.345400
H -9.502100 -13.448000 -10.985800
N -9.425400 -13.549400 -11.881000
N -8.785100 -12.230900 -13.781900
C -8.650700 -12.634700 -12.535200
N -7.686600 -11.372800 -14.113300
N -7.525400 -12.061400 -12.008900
C -6.993500 -11.339400 -13.005600
N -6.759800 -12.032900 -10.824300
N -5.829600 -10.821100 -12.491300
C -5.745400 -11.251400 -11.185100
H -5.326100 -9.203900 -13.340000
N -4.900900 -9.961100 -13.090400
H -4.787000 -11.061500 -9.525900
N -4.709300 -10.899300 -10.421700
H -4.537900 -10.400200 -13.860000
H -4.073700 -10.325700 -10.739500
