16
Fragment
O -15.037800 -17.298700 -11.366900
O -14.744100 -17.086100 -9.212500
N -14.454800 -16.814100 -10.386000
H -13.649100 -14.888300 -8.932800
N -13.459300 -15.967400 -10.610700
H -13.329400 -15.718100 -11.524200
C -12.894900 -15.217200 -9.507700
H -12.511200 -14.421300 -9.928300
H -12.248200 -16.834500 -8.320600
C -11.864500 -16.038600 -8.741200
H -11.430000 -15.537700 -6.724700
N -11.300100 -15.288400 -7.638200
H -11.110300 -16.367400 -9.316100
N -10.304600 -14.441700 -7.862900
O -10.015300 -14.169700 -9.036400
O -9.721600 -13.957000 -6.882000
17
Fragment
H -20.685700 -20.930100 -7.509400
H -20.221500 -20.855600 -4.388900
N -20.050100 -20.356400 -7.827200
H -19.972400 -20.194300 -8.723000
N -19.858500 -21.294700 -5.158500
H -19.433300 -22.051900 -4.909000
C -19.014100 -20.004400 -7.063800
N -18.929800 -20.434700 -5.757600
N -17.999600 -19.222800 -7.424700
C -17.765900 -19.916400 -5.243300
N -17.234100 -19.194300 -6.240000
N -17.072800 -19.883000 -4.135700
C -16.108800 -18.621000 -5.713700
N -15.974300 -19.024900 -4.467100
N -15.334100 -17.706300 -6.368000
H -15.257300 -17.807800 -7.263100
H -14.549400 -17.495300 -5.903500
33
Fragment
O -15.037800 -17.298700 -11.366900
O -14.744100 -17.086100 -9.212500
N -14.454800 -16.814100 -10.386000
H -13.649100 -14.888300 -8.932800
N -13.459300 -15.967400 -10.610700
H -13.329400 -15.718100 -11.524200
C -12.894900 -15.217200 -9.507700
H -12.511200 -14.421300 -9.928300
H -12.248200 -16.834500 -8.320600
C -11.864500 -16.038600 -8.741200
H -11.430000 -15.537700 -6.724700
N -11.300100 -15.288400 -7.638200
H -11.110300 -16.367400 -9.316100
N -10.304600 -14.441700 -7.862900
O -10.015300 -14.169700 -9.036400
O -9.721600 -13.957000 -6.882000
H -20.685700 -20.930100 -7.509400
H -20.221500 -20.855600 -4.388900
N -20.050100 -20.356400 -7.827200
H -19.972400 -20.194300 -8.723000
N -19.858500 -21.294700 -5.158500
H -19.433300 -22.051900 -4.909000
C -19.014100 -20.004400 -7.063800
N -18.929800 -20.434700 -5.757600
N -17.999600 -19.222800 -7.424700
C -17.765900 -19.916400 -5.243300
N -17.234100 -19.194300 -6.240000
N -17.072800 -19.883000 -4.135700
C -16.108800 -18.621000 -5.713700
N -15.974300 -19.024900 -4.467100
N -15.334100 -17.706300 -6.368000
H -15.257300 -17.807800 -7.263100
H -14.549400 -17.495300 -5.903500
