16
Fragment
O -15.037800 -17.298700 -11.366900
O -14.744100 -17.086100 -9.212500
N -14.454800 -16.814100 -10.386000
H -13.649100 -14.888300 -8.932800
N -13.459300 -15.967400 -10.610700
H -13.329400 -15.718100 -11.524200
C -12.894900 -15.217200 -9.507700
H -12.511200 -14.421300 -9.928300
H -12.248200 -16.834500 -8.320600
C -11.864500 -16.038600 -8.741200
H -11.430000 -15.537700 -6.724700
N -11.300100 -15.288400 -7.638200
H -11.110300 -16.367400 -9.316100
N -10.304600 -14.441700 -7.862900
O -10.015300 -14.169700 -9.036400
O -9.721600 -13.957000 -6.882000
17
Fragment
H -16.846200 -21.906200 -12.345400
H -16.138400 -21.593700 -10.985800
N -16.061600 -21.695200 -11.881000
N -15.421400 -20.376600 -13.781900
C -15.286900 -20.780500 -12.535200
N -14.322800 -19.518500 -14.113300
N -14.161600 -20.207200 -12.008900
C -13.629700 -19.485100 -13.005600
N -13.396000 -20.178700 -10.824300
N -12.465900 -18.966800 -12.491300
C -12.381600 -19.397100 -11.185100
H -11.962300 -17.349600 -13.340000
N -11.537100 -18.106800 -13.090400
H -11.423300 -19.207200 -9.525900
N -11.345500 -19.045100 -10.421700
H -11.174200 -18.545900 -13.860000
H -10.709900 -18.471400 -10.739500
33
Fragment
O -15.037800 -17.298700 -11.366900
O -14.744100 -17.086100 -9.212500
N -14.454800 -16.814100 -10.386000
H -13.649100 -14.888300 -8.932800
N -13.459300 -15.967400 -10.610700
H -13.329400 -15.718100 -11.524200
C -12.894900 -15.217200 -9.507700
H -12.511200 -14.421300 -9.928300
H -12.248200 -16.834500 -8.320600
C -11.864500 -16.038600 -8.741200
H -11.430000 -15.537700 -6.724700
N -11.300100 -15.288400 -7.638200
H -11.110300 -16.367400 -9.316100
N -10.304600 -14.441700 -7.862900
O -10.015300 -14.169700 -9.036400
O -9.721600 -13.957000 -6.882000
H -16.846200 -21.906200 -12.345400
H -16.138400 -21.593700 -10.985800
N -16.061600 -21.695200 -11.881000
N -15.421400 -20.376600 -13.781900
C -15.286900 -20.780500 -12.535200
N -14.322800 -19.518500 -14.113300
N -14.161600 -20.207200 -12.008900
C -13.629700 -19.485100 -13.005600
N -13.396000 -20.178700 -10.824300
N -12.465900 -18.966800 -12.491300
C -12.381600 -19.397100 -11.185100
H -11.962300 -17.349600 -13.340000
N -11.537100 -18.106800 -13.090400
H -11.423300 -19.207200 -9.525900
N -11.345500 -19.045100 -10.421700
H -11.174200 -18.545900 -13.860000
H -10.709900 -18.471400 -10.739500
