29
Fragment
H -14.554500 -17.838100 -18.902900
H -14.508800 -16.803200 -17.763200
H -14.124900 -18.286200 -17.379700
C -14.083700 -17.578800 -18.084300
H -13.164900 -16.237800 -20.305500
H -13.146600 -15.170900 -19.045400
C -12.690400 -16.023300 -19.444200
C -12.645600 -17.153100 -18.424000
H -12.479200 -15.949700 -16.809900
O -12.443600 -19.781100 -23.221400
H -12.278100 -17.710000 -21.806800
O -12.153800 -19.748600 -17.172800
N -12.064200 -18.381100 -21.421000
C -11.945300 -16.649600 -17.157300
H -11.930700 -17.326000 -16.481100
N -11.899600 -18.312800 -18.978800
C -11.881300 -19.520500 -22.148700
H -11.875800 -15.757700 -19.702800
C -11.731400 -19.486400 -18.303500
C -11.199300 -18.332000 -20.256200
N -11.038400 -20.362300 -19.077100
N -10.990900 -20.305700 -21.514200
H -10.833600 -21.038700 -21.773900
H -10.678200 -21.092000 -18.727600
O -10.656300 -16.103300 -17.423500
H -10.605100 -17.614000 -20.305500
C -10.513600 -19.744600 -20.267200
H -10.065700 -16.717900 -17.664600
H -9.562800 -19.651700 -20.250800
29
Fragment
H -8.721800 -14.317400 -18.102900
H -8.218900 -11.383500 -20.689100
C -7.771000 -14.410200 -18.086500
H -7.679500 -12.279700 -18.048200
O -7.628300 -10.769000 -20.930200
H -7.606400 -15.757700 -19.626100
H -7.451000 -15.704300 -16.579800
N -7.293700 -14.971400 -16.839500
N -7.246200 -15.027900 -19.276600
C -7.085300 -12.997700 -18.097500
C -6.553200 -14.152000 -20.050200
H -6.408800 -10.423300 -18.650900
C -6.403300 -14.186200 -16.205000
N -6.385000 -12.978500 -19.374900
H -6.353900 -11.991600 -21.872600
C -6.339300 -11.315200 -21.196400
N -6.220400 -13.046800 -16.932700
O -6.130800 -14.414300 -21.180900
H -6.006500 -12.375700 -16.546900
O -5.841000 -14.446700 -15.132300
H -5.805400 -10.615400 -21.543800
C -5.639000 -11.818800 -19.929700
C -5.594200 -10.689000 -18.909500
H -5.138000 -9.836500 -19.308300
H -5.119700 -10.903400 -18.048200
C -4.200900 -12.244500 -20.269400
H -4.159700 -12.951800 -20.974000
H -3.775800 -11.468900 -20.590500
H -3.730100 -12.503700 -19.450800
58
Fragment
H -14.554500 -17.838100 -18.902900
H -14.508800 -16.803200 -17.763200
H -14.124900 -18.286200 -17.379700
C -14.083700 -17.578800 -18.084300
H -13.164900 -16.237800 -20.305500
H -13.146600 -15.170900 -19.045400
C -12.690400 -16.023300 -19.444200
C -12.645600 -17.153100 -18.424000
H -12.479200 -15.949700 -16.809900
O -12.443600 -19.781100 -23.221400
H -12.278100 -17.710000 -21.806800
O -12.153800 -19.748600 -17.172800
N -12.064200 -18.381100 -21.421000
C -11.945300 -16.649600 -17.157300
H -11.930700 -17.326000 -16.481100
N -11.899600 -18.312800 -18.978800
C -11.881300 -19.520500 -22.148700
H -11.875800 -15.757700 -19.702800
C -11.731400 -19.486400 -18.303500
C -11.199300 -18.332000 -20.256200
N -11.038400 -20.362300 -19.077100
N -10.990900 -20.305700 -21.514200
H -10.833600 -21.038700 -21.773900
H -10.678200 -21.092000 -18.727600
O -10.656300 -16.103300 -17.423500
H -10.605100 -17.614000 -20.305500
C -10.513600 -19.744600 -20.267200
H -10.065700 -16.717900 -17.664600
H -9.562800 -19.651700 -20.250800
H -8.721800 -14.317400 -18.102900
H -8.218900 -11.383500 -20.689100
C -7.771000 -14.410200 -18.086500
H -7.679500 -12.279700 -18.048200
O -7.628300 -10.769000 -20.930200
H -7.606400 -15.757700 -19.626100
H -7.451000 -15.704300 -16.579800
N -7.293700 -14.971400 -16.839500
N -7.246200 -15.027900 -19.276600
C -7.085300 -12.997700 -18.097500
C -6.553200 -14.152000 -20.050200
H -6.408800 -10.423300 -18.650900
C -6.403300 -14.186200 -16.205000
N -6.385000 -12.978500 -19.374900
H -6.353900 -11.991600 -21.872600
C -6.339300 -11.315200 -21.196400
N -6.220400 -13.046800 -16.932700
O -6.130800 -14.414300 -21.180900
H -6.006500 -12.375700 -16.546900
O -5.841000 -14.446700 -15.132300
H -5.805400 -10.615400 -21.543800
C -5.639000 -11.818800 -19.929700
C -5.594200 -10.689000 -18.909500
H -5.138000 -9.836500 -19.308300
H -5.119700 -10.903400 -18.048200
C -4.200900 -12.244500 -20.269400
H -4.159700 -12.951800 -20.974000
H -3.775800 -11.468900 -20.590500
H -3.730100 -12.503700 -19.450800
