29
Fragment
H -14.554500 -17.838100 -18.902900
H -14.508800 -16.803200 -17.763200
H -14.124900 -18.286200 -17.379700
C -14.083700 -17.578800 -18.084300
H -13.164900 -16.237800 -20.305500
H -13.146600 -15.170900 -19.045400
C -12.690400 -16.023300 -19.444200
C -12.645600 -17.153100 -18.424000
H -12.479200 -15.949700 -16.809900
O -12.443600 -19.781100 -23.221400
H -12.278100 -17.710000 -21.806800
O -12.153800 -19.748600 -17.172800
N -12.064200 -18.381100 -21.421000
C -11.945300 -16.649600 -17.157300
H -11.930700 -17.326000 -16.481100
N -11.899600 -18.312800 -18.978800
C -11.881300 -19.520500 -22.148700
H -11.875800 -15.757700 -19.702800
C -11.731400 -19.486400 -18.303500
C -11.199300 -18.332000 -20.256200
N -11.038400 -20.362300 -19.077100
N -10.990900 -20.305700 -21.514200
H -10.833600 -21.038700 -21.773900
H -10.678200 -21.092000 -18.727600
O -10.656300 -16.103300 -17.423500
H -10.605100 -17.614000 -20.305500
C -10.513600 -19.744600 -20.267200
H -10.065700 -16.717900 -17.664600
H -9.562800 -19.651700 -20.250800
29
Fragment
H -13.292900 -12.354400 -14.771700
H -12.790100 -15.288200 -12.185500
C -12.342100 -12.261500 -14.788100
H -12.250700 -14.392100 -14.826400
O -12.199500 -15.902800 -11.944400
H -12.177500 -10.914100 -13.248500
H -12.022100 -10.967400 -16.294800
N -11.864900 -11.700400 -16.035100
N -11.817300 -11.643800 -13.598000
C -11.656400 -13.674100 -14.777100
C -11.124400 -12.519700 -12.824400
H -10.979900 -16.248400 -14.223700
C -10.974400 -12.485600 -16.669600
N -10.956100 -13.693300 -13.499700
H -10.925000 -14.680100 -11.002000
C -10.910400 -15.356500 -11.678200
N -10.791600 -13.625000 -15.941900
O -10.702000 -12.257500 -11.693700
H -10.577600 -14.296100 -16.327700
O -10.412200 -12.225000 -17.742300
H -10.376500 -16.056400 -11.330800
C -10.210100 -14.853000 -12.944900
C -10.165300 -15.982800 -13.965100
H -9.709100 -16.835200 -13.566300
H -9.690800 -15.768300 -14.826400
C -8.772000 -14.427300 -12.605200
H -8.730900 -13.719900 -11.900600
H -8.346900 -15.202900 -12.284100
H -8.301200 -14.168000 -13.423800
58
Fragment
H -14.554500 -17.838100 -18.902900
H -14.508800 -16.803200 -17.763200
H -14.124900 -18.286200 -17.379700
C -14.083700 -17.578800 -18.084300
H -13.164900 -16.237800 -20.305500
H -13.146600 -15.170900 -19.045400
C -12.690400 -16.023300 -19.444200
C -12.645600 -17.153100 -18.424000
H -12.479200 -15.949700 -16.809900
O -12.443600 -19.781100 -23.221400
H -12.278100 -17.710000 -21.806800
O -12.153800 -19.748600 -17.172800
N -12.064200 -18.381100 -21.421000
C -11.945300 -16.649600 -17.157300
H -11.930700 -17.326000 -16.481100
N -11.899600 -18.312800 -18.978800
C -11.881300 -19.520500 -22.148700
H -11.875800 -15.757700 -19.702800
C -11.731400 -19.486400 -18.303500
C -11.199300 -18.332000 -20.256200
N -11.038400 -20.362300 -19.077100
N -10.990900 -20.305700 -21.514200
H -10.833600 -21.038700 -21.773900
H -10.678200 -21.092000 -18.727600
O -10.656300 -16.103300 -17.423500
H -10.605100 -17.614000 -20.305500
C -10.513600 -19.744600 -20.267200
H -10.065700 -16.717900 -17.664600
H -9.562800 -19.651700 -20.250800
H -13.292900 -12.354400 -14.771700
H -12.790100 -15.288200 -12.185500
C -12.342100 -12.261500 -14.788100
H -12.250700 -14.392100 -14.826400
O -12.199500 -15.902800 -11.944400
H -12.177500 -10.914100 -13.248500
H -12.022100 -10.967400 -16.294800
N -11.864900 -11.700400 -16.035100
N -11.817300 -11.643800 -13.598000
C -11.656400 -13.674100 -14.777100
C -11.124400 -12.519700 -12.824400
H -10.979900 -16.248400 -14.223700
C -10.974400 -12.485600 -16.669600
N -10.956100 -13.693300 -13.499700
H -10.925000 -14.680100 -11.002000
C -10.910400 -15.356500 -11.678200
N -10.791600 -13.625000 -15.941900
O -10.702000 -12.257500 -11.693700
H -10.577600 -14.296100 -16.327700
O -10.412200 -12.225000 -17.742300
H -10.376500 -16.056400 -11.330800
C -10.210100 -14.853000 -12.944900
C -10.165300 -15.982800 -13.965100
H -9.709100 -16.835200 -13.566300
H -9.690800 -15.768300 -14.826400
C -8.772000 -14.427300 -12.605200
H -8.730900 -13.719900 -11.900600
H -8.346900 -15.202900 -12.284100
H -8.301200 -14.168000 -13.423800
