29
Fragment
H -14.554500 -17.838100 -18.902900
H -14.508800 -16.803200 -17.763200
H -14.124900 -18.286200 -17.379700
C -14.083700 -17.578800 -18.084300
H -13.164900 -16.237800 -20.305500
H -13.146600 -15.170900 -19.045400
C -12.690400 -16.023300 -19.444200
C -12.645600 -17.153100 -18.424000
H -12.479200 -15.949700 -16.809900
O -12.443600 -19.781100 -23.221400
H -12.278100 -17.710000 -21.806800
O -12.153800 -19.748600 -17.172800
N -12.064200 -18.381100 -21.421000
C -11.945300 -16.649600 -17.157300
H -11.930700 -17.326000 -16.481100
N -11.899600 -18.312800 -18.978800
C -11.881300 -19.520500 -22.148700
H -11.875800 -15.757700 -19.702800
C -11.731400 -19.486400 -18.303500
C -11.199300 -18.332000 -20.256200
N -11.038400 -20.362300 -19.077100
N -10.990900 -20.305700 -21.514200
H -10.833600 -21.038700 -21.773900
H -10.678200 -21.092000 -18.727600
O -10.656300 -16.103300 -17.423500
H -10.605100 -17.614000 -20.305500
C -10.513600 -19.744600 -20.267200
H -10.065700 -16.717900 -17.664600
H -9.562800 -19.651700 -20.250800
29
Fragment
H -13.292900 -23.023100 -25.729900
H -12.790100 -25.956900 -23.143700
C -12.342100 -22.930200 -25.746300
H -12.250700 -25.060800 -25.784600
O -12.199500 -26.571500 -22.902600
H -12.177500 -21.582800 -24.206700
H -12.022100 -21.636100 -27.253000
N -11.864900 -22.369100 -26.993300
N -11.817300 -22.312500 -24.556200
C -11.656400 -24.342800 -25.735300
C -11.124400 -23.188400 -23.782600
H -10.979900 -26.917100 -25.181900
C -10.974400 -23.154300 -27.627800
N -10.956100 -24.362000 -24.457900
H -10.925000 -25.348800 -21.960200
C -10.910400 -26.025200 -22.636400
N -10.791600 -24.293700 -26.900100
O -10.702000 -22.926200 -22.651900
H -10.577600 -24.964800 -27.285900
O -10.412200 -22.893700 -28.700500
H -10.376500 -26.725100 -22.289000
C -10.210100 -25.521700 -23.903100
C -10.165300 -26.651500 -24.923300
H -9.709100 -27.503900 -24.524500
H -9.690800 -26.437000 -25.784600
C -8.772000 -25.096000 -23.563400
H -8.730900 -24.388600 -22.858800
H -8.346900 -25.871600 -23.242300
H -8.301200 -24.836700 -24.382000
58
Fragment
H -14.554500 -17.838100 -18.902900
H -14.508800 -16.803200 -17.763200
H -14.124900 -18.286200 -17.379700
C -14.083700 -17.578800 -18.084300
H -13.164900 -16.237800 -20.305500
H -13.146600 -15.170900 -19.045400
C -12.690400 -16.023300 -19.444200
C -12.645600 -17.153100 -18.424000
H -12.479200 -15.949700 -16.809900
O -12.443600 -19.781100 -23.221400
H -12.278100 -17.710000 -21.806800
O -12.153800 -19.748600 -17.172800
N -12.064200 -18.381100 -21.421000
C -11.945300 -16.649600 -17.157300
H -11.930700 -17.326000 -16.481100
N -11.899600 -18.312800 -18.978800
C -11.881300 -19.520500 -22.148700
H -11.875800 -15.757700 -19.702800
C -11.731400 -19.486400 -18.303500
C -11.199300 -18.332000 -20.256200
N -11.038400 -20.362300 -19.077100
N -10.990900 -20.305700 -21.514200
H -10.833600 -21.038700 -21.773900
H -10.678200 -21.092000 -18.727600
O -10.656300 -16.103300 -17.423500
H -10.605100 -17.614000 -20.305500
C -10.513600 -19.744600 -20.267200
H -10.065700 -16.717900 -17.664600
H -9.562800 -19.651700 -20.250800
H -13.292900 -23.023100 -25.729900
H -12.790100 -25.956900 -23.143700
C -12.342100 -22.930200 -25.746300
H -12.250700 -25.060800 -25.784600
O -12.199500 -26.571500 -22.902600
H -12.177500 -21.582800 -24.206700
H -12.022100 -21.636100 -27.253000
N -11.864900 -22.369100 -26.993300
N -11.817300 -22.312500 -24.556200
C -11.656400 -24.342800 -25.735300
C -11.124400 -23.188400 -23.782600
H -10.979900 -26.917100 -25.181900
C -10.974400 -23.154300 -27.627800
N -10.956100 -24.362000 -24.457900
H -10.925000 -25.348800 -21.960200
C -10.910400 -26.025200 -22.636400
N -10.791600 -24.293700 -26.900100
O -10.702000 -22.926200 -22.651900
H -10.577600 -24.964800 -27.285900
O -10.412200 -22.893700 -28.700500
H -10.376500 -26.725100 -22.289000
C -10.210100 -25.521700 -23.903100
C -10.165300 -26.651500 -24.923300
H -9.709100 -27.503900 -24.524500
H -9.690800 -26.437000 -25.784600
C -8.772000 -25.096000 -23.563400
H -8.730900 -24.388600 -22.858800
H -8.346900 -25.871600 -23.242300
H -8.301200 -24.836700 -24.382000
