21
Fragment
O -23.769100 -22.526800 -13.179600
H -23.702300 -24.100000 -14.850500
H -22.906300 -23.899100 -16.223500
C -22.813900 -24.040700 -15.258900
H -22.758300 -20.177500 -11.426100
C -22.647500 -22.230400 -13.610100
H -22.323900 -24.874000 -15.096000
N -22.077500 -22.919200 -14.667800
N -21.989700 -20.272900 -12.115000
C -21.812100 -21.196400 -13.133100
C -20.856500 -19.565400 -12.068400
C -20.794200 -22.727100 -15.194900
H -20.710800 -18.861100 -11.448200
C -20.566200 -20.975200 -13.619400
O -20.356500 -23.417100 -16.090800
N -20.036900 -21.712200 -14.638700
N -19.953700 -19.937100 -12.965500
C -18.686400 -21.491900 -15.141400
H -18.624000 -21.821200 -16.062900
H -18.482500 -20.533300 -15.122800
H -18.044700 -21.973500 -14.578200
21
Fragment
H -29.486900 -20.340900 -8.692900
H -29.049100 -21.781100 -8.148400
H -28.907600 -20.493300 -7.208200
C -28.845300 -20.822600 -8.129800
N -27.578000 -22.377300 -10.305600
N -27.494800 -20.602200 -8.632400
O -27.175200 -18.897300 -7.180300
C -26.965400 -21.339200 -9.651700
H -26.820800 -23.453300 -11.822900
C -26.737400 -19.587300 -8.076300
C -26.675100 -22.749000 -11.202700
C -25.719500 -21.118000 -10.138100
N -25.541900 -22.041500 -11.156200
N -25.454200 -19.395200 -8.603300
H -25.207800 -17.440400 -8.175200
C -24.884200 -20.084100 -9.661000
H -24.773400 -22.137000 -11.845000
C -24.717800 -18.273700 -8.012300
H -24.625300 -18.415300 -7.047700
H -23.829400 -18.214400 -8.420700
O -23.762600 -19.787600 -10.091500
42
Fragment
O -23.769100 -22.526800 -13.179600
H -23.702300 -24.100000 -14.850500
H -22.906300 -23.899100 -16.223500
C -22.813900 -24.040700 -15.258900
H -22.758300 -20.177500 -11.426100
C -22.647500 -22.230400 -13.610100
H -22.323900 -24.874000 -15.096000
N -22.077500 -22.919200 -14.667800
N -21.989700 -20.272900 -12.115000
C -21.812100 -21.196400 -13.133100
C -20.856500 -19.565400 -12.068400
C -20.794200 -22.727100 -15.194900
H -20.710800 -18.861100 -11.448200
C -20.566200 -20.975200 -13.619400
O -20.356500 -23.417100 -16.090800
N -20.036900 -21.712200 -14.638700
N -19.953700 -19.937100 -12.965500
C -18.686400 -21.491900 -15.141400
H -18.624000 -21.821200 -16.062900
H -18.482500 -20.533300 -15.122800
H -18.044700 -21.973500 -14.578200
H -29.486900 -20.340900 -8.692900
H -29.049100 -21.781100 -8.148400
H -28.907600 -20.493300 -7.208200
C -28.845300 -20.822600 -8.129800
N -27.578000 -22.377300 -10.305600
N -27.494800 -20.602200 -8.632400
O -27.175200 -18.897300 -7.180300
C -26.965400 -21.339200 -9.651700
H -26.820800 -23.453300 -11.822900
C -26.737400 -19.587300 -8.076300
C -26.675100 -22.749000 -11.202700
C -25.719500 -21.118000 -10.138100
N -25.541900 -22.041500 -11.156200
N -25.454200 -19.395200 -8.603300
H -25.207800 -17.440400 -8.175200
C -24.884200 -20.084100 -9.661000
H -24.773400 -22.137000 -11.845000
C -24.717800 -18.273700 -8.012300
H -24.625300 -18.415300 -7.047700
H -23.829400 -18.214400 -8.420700
O -23.762600 -19.787600 -10.091500
