21
Fragment
O -23.769100 -22.526800 -13.179600
H -23.702300 -24.100000 -14.850500
H -22.906300 -23.899100 -16.223500
C -22.813900 -24.040700 -15.258900
H -22.758300 -20.177500 -11.426100
C -22.647500 -22.230400 -13.610100
H -22.323900 -24.874000 -15.096000
N -22.077500 -22.919200 -14.667800
N -21.989700 -20.272900 -12.115000
C -21.812100 -21.196400 -13.133100
C -20.856500 -19.565400 -12.068400
C -20.794200 -22.727100 -15.194900
H -20.710800 -18.861100 -11.448200
C -20.566200 -20.975200 -13.619400
O -20.356500 -23.417100 -16.090800
N -20.036900 -21.712200 -14.638700
N -19.953700 -19.937100 -12.965500
C -18.686400 -21.491900 -15.141400
H -18.624000 -21.821200 -16.062900
H -18.482500 -20.533300 -15.122800
H -18.044700 -21.973500 -14.578200
30
Fragment
O -18.583100 -17.713100 -11.103800
H -18.446900 -19.038200 -12.950400
C -17.657400 -17.746600 -11.861300
O -17.587300 -18.599000 -12.893400
H -17.490900 -14.413300 -12.141700
H -17.430400 -12.967000 -13.966200
C -17.029500 -14.670300 -12.930600
C -16.995500 -13.809600 -14.016200
H -16.522600 -16.285100 -10.960700
C -16.466400 -16.827800 -11.786800
C -16.396400 -15.906200 -12.986500
C -16.336600 -14.171700 -15.162300
H -16.308000 -13.576900 -15.902300
Cl -15.961800 -19.764100 -16.033900
C -15.744000 -16.269200 -14.153500
C -15.714100 -15.400500 -15.240300
H -15.698300 -18.145800 -14.020900
H -15.637800 -17.367600 -11.741500
H -15.264600 -15.654900 -16.037300
N -15.134900 -17.559400 -14.215200
C -14.420200 -18.954000 -16.086200
C -14.200100 -17.904100 -15.179800
H -13.674400 -20.089300 -17.593000
C -13.484100 -19.372900 -16.998400
C -12.939900 -17.295100 -15.256600
Cl -12.531000 -16.033400 -14.147600
C -12.261100 -18.735500 -17.036800
C -11.984000 -17.695500 -16.166500
H -11.604000 -19.012800 -17.664000
H -11.140600 -17.259400 -16.196700
51
Fragment
O -23.769100 -22.526800 -13.179600
H -23.702300 -24.100000 -14.850500
H -22.906300 -23.899100 -16.223500
C -22.813900 -24.040700 -15.258900
H -22.758300 -20.177500 -11.426100
C -22.647500 -22.230400 -13.610100
H -22.323900 -24.874000 -15.096000
N -22.077500 -22.919200 -14.667800
N -21.989700 -20.272900 -12.115000
C -21.812100 -21.196400 -13.133100
C -20.856500 -19.565400 -12.068400
C -20.794200 -22.727100 -15.194900
H -20.710800 -18.861100 -11.448200
C -20.566200 -20.975200 -13.619400
O -20.356500 -23.417100 -16.090800
N -20.036900 -21.712200 -14.638700
N -19.953700 -19.937100 -12.965500
C -18.686400 -21.491900 -15.141400
H -18.624000 -21.821200 -16.062900
H -18.482500 -20.533300 -15.122800
H -18.044700 -21.973500 -14.578200
O -18.583100 -17.713100 -11.103800
H -18.446900 -19.038200 -12.950400
C -17.657400 -17.746600 -11.861300
O -17.587300 -18.599000 -12.893400
H -17.490900 -14.413300 -12.141700
H -17.430400 -12.967000 -13.966200
C -17.029500 -14.670300 -12.930600
C -16.995500 -13.809600 -14.016200
H -16.522600 -16.285100 -10.960700
C -16.466400 -16.827800 -11.786800
C -16.396400 -15.906200 -12.986500
C -16.336600 -14.171700 -15.162300
H -16.308000 -13.576900 -15.902300
Cl -15.961800 -19.764100 -16.033900
C -15.744000 -16.269200 -14.153500
C -15.714100 -15.400500 -15.240300
H -15.698300 -18.145800 -14.020900
H -15.637800 -17.367600 -11.741500
H -15.264600 -15.654900 -16.037300
N -15.134900 -17.559400 -14.215200
C -14.420200 -18.954000 -16.086200
C -14.200100 -17.904100 -15.179800
H -13.674400 -20.089300 -17.593000
C -13.484100 -19.372900 -16.998400
C -12.939900 -17.295100 -15.256600
Cl -12.531000 -16.033400 -14.147600
C -12.261100 -18.735500 -17.036800
C -11.984000 -17.695500 -16.166500
H -11.604000 -19.012800 -17.664000
H -11.140600 -17.259400 -16.196700
