21
Fragment
O -23.769100 -22.526800 -13.179600
H -23.702300 -24.100000 -14.850500
H -22.906300 -23.899100 -16.223500
C -22.813900 -24.040700 -15.258900
H -22.758300 -20.177500 -11.426100
C -22.647500 -22.230400 -13.610100
H -22.323900 -24.874000 -15.096000
N -22.077500 -22.919200 -14.667800
N -21.989700 -20.272900 -12.115000
C -21.812100 -21.196400 -13.133100
C -20.856500 -19.565400 -12.068400
C -20.794200 -22.727100 -15.194900
H -20.710800 -18.861100 -11.448200
C -20.566200 -20.975200 -13.619400
O -20.356500 -23.417100 -16.090800
N -20.036900 -21.712200 -14.638700
N -19.953700 -19.937100 -12.965500
C -18.686400 -21.491900 -15.141400
H -18.624000 -21.821200 -16.062900
H -18.482500 -20.533300 -15.122800
H -18.044700 -21.973500 -14.578200
30
Fragment
H -28.866100 -25.055000 -7.074400
H -28.402600 -23.301600 -5.607200
C -28.022600 -24.618900 -7.104700
C -27.745600 -23.579000 -6.234300
Cl -27.475700 -26.281000 -9.123600
C -27.066700 -25.019300 -8.014600
C -26.522500 -22.941500 -6.272700
H -26.332200 -22.225100 -5.678200
C -25.806600 -24.410300 -8.091400
C -25.586500 -23.360500 -7.185000
N -24.871800 -24.755000 -9.056000
H -24.742000 -26.659500 -7.233800
H -24.368800 -24.946800 -11.529700
H -24.308400 -24.168600 -9.250300
C -24.292500 -26.913900 -8.030900
C -24.262600 -26.045200 -9.117600
Cl -24.044800 -22.550300 -7.237200
H -23.698600 -28.737600 -7.368800
C -23.670100 -28.142700 -8.108800
C -23.610300 -26.408200 -10.284700
C -23.540200 -25.486600 -11.484300
H -23.484100 -26.029300 -12.310400
C -23.011200 -28.504800 -9.254900
C -22.977200 -27.644100 -10.340500
H -22.576200 -29.347400 -9.305000
H -22.515800 -27.901100 -11.129400
O -22.419300 -23.715400 -10.377800
C -22.349200 -24.567800 -11.409800
H -21.559700 -23.276200 -10.320800
O -21.423500 -24.601300 -12.167300
51
Fragment
O -23.769100 -22.526800 -13.179600
H -23.702300 -24.100000 -14.850500
H -22.906300 -23.899100 -16.223500
C -22.813900 -24.040700 -15.258900
H -22.758300 -20.177500 -11.426100
C -22.647500 -22.230400 -13.610100
H -22.323900 -24.874000 -15.096000
N -22.077500 -22.919200 -14.667800
N -21.989700 -20.272900 -12.115000
C -21.812100 -21.196400 -13.133100
C -20.856500 -19.565400 -12.068400
C -20.794200 -22.727100 -15.194900
H -20.710800 -18.861100 -11.448200
C -20.566200 -20.975200 -13.619400
O -20.356500 -23.417100 -16.090800
N -20.036900 -21.712200 -14.638700
N -19.953700 -19.937100 -12.965500
C -18.686400 -21.491900 -15.141400
H -18.624000 -21.821200 -16.062900
H -18.482500 -20.533300 -15.122800
H -18.044700 -21.973500 -14.578200
H -28.866100 -25.055000 -7.074400
H -28.402600 -23.301600 -5.607200
C -28.022600 -24.618900 -7.104700
C -27.745600 -23.579000 -6.234300
Cl -27.475700 -26.281000 -9.123600
C -27.066700 -25.019300 -8.014600
C -26.522500 -22.941500 -6.272700
H -26.332200 -22.225100 -5.678200
C -25.806600 -24.410300 -8.091400
C -25.586500 -23.360500 -7.185000
N -24.871800 -24.755000 -9.056000
H -24.742000 -26.659500 -7.233800
H -24.368800 -24.946800 -11.529700
H -24.308400 -24.168600 -9.250300
C -24.292500 -26.913900 -8.030900
C -24.262600 -26.045200 -9.117600
Cl -24.044800 -22.550300 -7.237200
H -23.698600 -28.737600 -7.368800
C -23.670100 -28.142700 -8.108800
C -23.610300 -26.408200 -10.284700
C -23.540200 -25.486600 -11.484300
H -23.484100 -26.029300 -12.310400
C -23.011200 -28.504800 -9.254900
C -22.977200 -27.644100 -10.340500
H -22.576200 -29.347400 -9.305000
H -22.515800 -27.901100 -11.129400
O -22.419300 -23.715400 -10.377800
C -22.349200 -24.567800 -11.409800
H -21.559700 -23.276200 -10.320800
O -21.423500 -24.601300 -12.167300
