21
Fragment
O -23.769100 -22.526800 -13.179600
H -23.702300 -24.100000 -14.850500
H -22.906300 -23.899100 -16.223500
C -22.813900 -24.040700 -15.258900
H -22.758300 -20.177500 -11.426100
C -22.647500 -22.230400 -13.610100
H -22.323900 -24.874000 -15.096000
N -22.077500 -22.919200 -14.667800
N -21.989700 -20.272900 -12.115000
C -21.812100 -21.196400 -13.133100
C -20.856500 -19.565400 -12.068400
C -20.794200 -22.727100 -15.194900
H -20.710800 -18.861100 -11.448200
C -20.566200 -20.975200 -13.619400
O -20.356500 -23.417100 -16.090800
N -20.036900 -21.712200 -14.638700
N -19.953700 -19.937100 -12.965500
C -18.686400 -21.491900 -15.141400
H -18.624000 -21.821200 -16.062900
H -18.482500 -20.533300 -15.122800
H -18.044700 -21.973500 -14.578200
30
Fragment
O -20.546100 -29.691300 -11.103800
H -20.409900 -31.016400 -12.950400
C -19.620400 -29.724800 -11.861300
O -19.550300 -30.577200 -12.893400
H -19.453900 -26.391500 -12.141700
H -19.393400 -24.945200 -13.966200
C -18.992500 -26.648500 -12.930600
C -18.958500 -25.787800 -14.016200
H -18.485600 -28.263300 -10.960700
C -18.429400 -28.806000 -11.786800
C -18.359400 -27.884400 -12.986500
C -18.299600 -26.149900 -15.162300
H -18.271000 -25.555100 -15.902300
Cl -17.924800 -31.742300 -16.033900
C -17.707100 -28.247500 -14.153500
C -17.677100 -27.378700 -15.240300
H -17.661300 -30.124000 -14.020900
H -17.600800 -29.345800 -11.741500
H -17.227700 -27.633200 -16.037300
N -17.097900 -29.537700 -14.215200
C -16.383200 -30.932200 -16.086200
C -16.163100 -29.882300 -15.179800
H -15.637500 -32.067600 -17.593000
C -15.447100 -31.351200 -16.998400
C -14.903000 -29.273300 -15.256600
Cl -14.494000 -28.011700 -14.147600
C -14.224100 -30.713700 -17.036800
C -13.947000 -29.673700 -16.166500
H -13.567000 -30.991000 -17.664000
H -13.103600 -29.237600 -16.196700
51
Fragment
O -23.769100 -22.526800 -13.179600
H -23.702300 -24.100000 -14.850500
H -22.906300 -23.899100 -16.223500
C -22.813900 -24.040700 -15.258900
H -22.758300 -20.177500 -11.426100
C -22.647500 -22.230400 -13.610100
H -22.323900 -24.874000 -15.096000
N -22.077500 -22.919200 -14.667800
N -21.989700 -20.272900 -12.115000
C -21.812100 -21.196400 -13.133100
C -20.856500 -19.565400 -12.068400
C -20.794200 -22.727100 -15.194900
H -20.710800 -18.861100 -11.448200
C -20.566200 -20.975200 -13.619400
O -20.356500 -23.417100 -16.090800
N -20.036900 -21.712200 -14.638700
N -19.953700 -19.937100 -12.965500
C -18.686400 -21.491900 -15.141400
H -18.624000 -21.821200 -16.062900
H -18.482500 -20.533300 -15.122800
H -18.044700 -21.973500 -14.578200
O -20.546100 -29.691300 -11.103800
H -20.409900 -31.016400 -12.950400
C -19.620400 -29.724800 -11.861300
O -19.550300 -30.577200 -12.893400
H -19.453900 -26.391500 -12.141700
H -19.393400 -24.945200 -13.966200
C -18.992500 -26.648500 -12.930600
C -18.958500 -25.787800 -14.016200
H -18.485600 -28.263300 -10.960700
C -18.429400 -28.806000 -11.786800
C -18.359400 -27.884400 -12.986500
C -18.299600 -26.149900 -15.162300
H -18.271000 -25.555100 -15.902300
Cl -17.924800 -31.742300 -16.033900
C -17.707100 -28.247500 -14.153500
C -17.677100 -27.378700 -15.240300
H -17.661300 -30.124000 -14.020900
H -17.600800 -29.345800 -11.741500
H -17.227700 -27.633200 -16.037300
N -17.097900 -29.537700 -14.215200
C -16.383200 -30.932200 -16.086200
C -16.163100 -29.882300 -15.179800
H -15.637500 -32.067600 -17.593000
C -15.447100 -31.351200 -16.998400
C -14.903000 -29.273300 -15.256600
Cl -14.494000 -28.011700 -14.147600
C -14.224100 -30.713700 -17.036800
C -13.947000 -29.673700 -16.166500
H -13.567000 -30.991000 -17.664000
H -13.103600 -29.237600 -16.196700
