26
Fragment
F -11.422200 -45.379500 -14.394300
H -10.989600 -42.906200 -14.101100
C -10.458600 -44.819300 -13.619500
C -10.408000 -43.441500 -13.602900
H -10.188800 -47.391400 -14.886200
H -10.034300 -49.747900 -14.954100
C -9.938600 -47.860600 -14.093600
C -9.855400 -49.236700 -14.129100
C -9.632100 -47.132300 -12.933300
C -9.588300 -45.643600 -12.911200
C -9.465800 -49.953800 -13.000300
C -9.415300 -42.865500 -12.846500
O -9.376600 -51.297300 -13.114900
F -9.324600 -41.509400 -12.823600
C -9.276400 -47.861000 -11.801500
C -9.190100 -49.257000 -11.812300
H -9.106100 -47.395000 -10.968400
H -9.078200 -51.617600 -12.334700
C -8.790300 -50.006300 -10.596800
O -8.635900 -51.219500 -10.584700
O -8.617500 -49.245400 -9.538000
C -8.601100 -44.981400 -12.170200
C -8.501800 -43.601500 -12.130900
H -8.323600 -49.733900 -8.809400
H -7.944600 -45.521700 -11.715700
H -7.788000 -43.179300 -11.610000
21
Fragment
H -11.131800 -56.750700 -20.532700
O -10.447300 -54.197500 -19.781100
C -10.180800 -56.794800 -20.342500
C -10.053800 -54.890400 -18.842500
H -9.989900 -52.433500 -17.294300
N -9.890900 -56.267500 -19.007400
H -9.883300 -57.664600 -20.366600
N -9.750800 -53.234900 -16.918700
C -9.719100 -54.468800 -17.527000
H -9.696900 -56.260500 -21.008300
H -9.626500 -57.664600 -15.052300
C -9.563000 -57.207600 -18.017400
O -9.550600 -58.397400 -18.259200
C -9.386600 -53.425400 -15.648600
C -9.339700 -55.349400 -16.551900
H -9.322500 -52.703100 -15.014500
N -9.241500 -56.696800 -16.773000
N -9.125900 -54.705200 -15.369900
C -8.880000 -57.609200 -15.690200
H -8.694600 -58.473400 -16.078900
H -8.116500 -57.272400 -15.218400
47
Fragment
F -11.422200 -45.379500 -14.394300
H -10.989600 -42.906200 -14.101100
C -10.458600 -44.819300 -13.619500
C -10.408000 -43.441500 -13.602900
H -10.188800 -47.391400 -14.886200
H -10.034300 -49.747900 -14.954100
C -9.938600 -47.860600 -14.093600
C -9.855400 -49.236700 -14.129100
C -9.632100 -47.132300 -12.933300
C -9.588300 -45.643600 -12.911200
C -9.465800 -49.953800 -13.000300
C -9.415300 -42.865500 -12.846500
O -9.376600 -51.297300 -13.114900
F -9.324600 -41.509400 -12.823600
C -9.276400 -47.861000 -11.801500
C -9.190100 -49.257000 -11.812300
H -9.106100 -47.395000 -10.968400
H -9.078200 -51.617600 -12.334700
C -8.790300 -50.006300 -10.596800
O -8.635900 -51.219500 -10.584700
O -8.617500 -49.245400 -9.538000
C -8.601100 -44.981400 -12.170200
C -8.501800 -43.601500 -12.130900
H -8.323600 -49.733900 -8.809400
H -7.944600 -45.521700 -11.715700
H -7.788000 -43.179300 -11.610000
H -11.131800 -56.750700 -20.532700
O -10.447300 -54.197500 -19.781100
C -10.180800 -56.794800 -20.342500
C -10.053800 -54.890400 -18.842500
H -9.989900 -52.433500 -17.294300
N -9.890900 -56.267500 -19.007400
H -9.883300 -57.664600 -20.366600
N -9.750800 -53.234900 -16.918700
C -9.719100 -54.468800 -17.527000
H -9.696900 -56.260500 -21.008300
H -9.626500 -57.664600 -15.052300
C -9.563000 -57.207600 -18.017400
O -9.550600 -58.397400 -18.259200
C -9.386600 -53.425400 -15.648600
C -9.339700 -55.349400 -16.551900
H -9.322500 -52.703100 -15.014500
N -9.241500 -56.696800 -16.773000
N -9.125900 -54.705200 -15.369900
C -8.880000 -57.609200 -15.690200
H -8.694600 -58.473400 -16.078900
H -8.116500 -57.272400 -15.218400
