26
Fragment
F -11.422200 -45.379500 -14.394300
H -10.989600 -42.906200 -14.101100
C -10.458600 -44.819300 -13.619500
C -10.408000 -43.441500 -13.602900
H -10.188800 -47.391400 -14.886200
H -10.034300 -49.747900 -14.954100
C -9.938600 -47.860600 -14.093600
C -9.855400 -49.236700 -14.129100
C -9.632100 -47.132300 -12.933300
C -9.588300 -45.643600 -12.911200
C -9.465800 -49.953800 -13.000300
C -9.415300 -42.865500 -12.846500
O -9.376600 -51.297300 -13.114900
F -9.324600 -41.509400 -12.823600
C -9.276400 -47.861000 -11.801500
C -9.190100 -49.257000 -11.812300
H -9.106100 -47.395000 -10.968400
H -9.078200 -51.617600 -12.334700
C -8.790300 -50.006300 -10.596800
O -8.635900 -51.219500 -10.584700
O -8.617500 -49.245400 -9.538000
C -8.601100 -44.981400 -12.170200
C -8.501800 -43.601500 -12.130900
H -8.323600 -49.733900 -8.809400
H -7.944600 -45.521700 -11.715700
H -7.788000 -43.179300 -11.610000
21
Fragment
H -8.771700 -47.769600 -7.428000
H -8.193600 -46.568600 -6.567400
C -8.008200 -47.432800 -6.956200
N -7.762300 -50.336800 -7.276500
N -7.646700 -48.345200 -5.873300
H -7.565700 -52.338900 -7.631800
C -7.548500 -49.692600 -6.094400
C -7.501700 -51.616600 -6.997700
O -7.337600 -46.644600 -4.387100
C -7.325200 -47.834400 -4.629000
H -7.261700 -47.377400 -7.594100
H -7.191300 -48.781500 -1.638100
C -7.169100 -50.573200 -5.119400
N -7.137400 -51.807100 -5.727600
H -7.004900 -47.377400 -2.279700
N -6.997300 -48.774500 -3.639000
H -6.898300 -52.608500 -5.352100
C -6.834400 -50.151600 -3.803800
C -6.707500 -48.247200 -2.303900
O -6.441000 -50.844500 -2.865200
H -5.756400 -48.291300 -2.113700
47
Fragment
F -11.422200 -45.379500 -14.394300
H -10.989600 -42.906200 -14.101100
C -10.458600 -44.819300 -13.619500
C -10.408000 -43.441500 -13.602900
H -10.188800 -47.391400 -14.886200
H -10.034300 -49.747900 -14.954100
C -9.938600 -47.860600 -14.093600
C -9.855400 -49.236700 -14.129100
C -9.632100 -47.132300 -12.933300
C -9.588300 -45.643600 -12.911200
C -9.465800 -49.953800 -13.000300
C -9.415300 -42.865500 -12.846500
O -9.376600 -51.297300 -13.114900
F -9.324600 -41.509400 -12.823600
C -9.276400 -47.861000 -11.801500
C -9.190100 -49.257000 -11.812300
H -9.106100 -47.395000 -10.968400
H -9.078200 -51.617600 -12.334700
C -8.790300 -50.006300 -10.596800
O -8.635900 -51.219500 -10.584700
O -8.617500 -49.245400 -9.538000
C -8.601100 -44.981400 -12.170200
C -8.501800 -43.601500 -12.130900
H -8.323600 -49.733900 -8.809400
H -7.944600 -45.521700 -11.715700
H -7.788000 -43.179300 -11.610000
H -8.771700 -47.769600 -7.428000
H -8.193600 -46.568600 -6.567400
C -8.008200 -47.432800 -6.956200
N -7.762300 -50.336800 -7.276500
N -7.646700 -48.345200 -5.873300
H -7.565700 -52.338900 -7.631800
C -7.548500 -49.692600 -6.094400
C -7.501700 -51.616600 -6.997700
O -7.337600 -46.644600 -4.387100
C -7.325200 -47.834400 -4.629000
H -7.261700 -47.377400 -7.594100
H -7.191300 -48.781500 -1.638100
C -7.169100 -50.573200 -5.119400
N -7.137400 -51.807100 -5.727600
H -7.004900 -47.377400 -2.279700
N -6.997300 -48.774500 -3.639000
H -6.898300 -52.608500 -5.352100
C -6.834400 -50.151600 -3.803800
C -6.707500 -48.247200 -2.303900
O -6.441000 -50.844500 -2.865200
H -5.756400 -48.291300 -2.113700
