26
Fragment
F -11.422200 -45.379500 -14.394300
H -10.989600 -42.906200 -14.101100
C -10.458600 -44.819300 -13.619500
C -10.408000 -43.441500 -13.602900
H -10.188800 -47.391400 -14.886200
H -10.034300 -49.747900 -14.954100
C -9.938600 -47.860600 -14.093600
C -9.855400 -49.236700 -14.129100
C -9.632100 -47.132300 -12.933300
C -9.588300 -45.643600 -12.911200
C -9.465800 -49.953800 -13.000300
C -9.415300 -42.865500 -12.846500
O -9.376600 -51.297300 -13.114900
F -9.324600 -41.509400 -12.823600
C -9.276400 -47.861000 -11.801500
C -9.190100 -49.257000 -11.812300
H -9.106100 -47.395000 -10.968400
H -9.078200 -51.617600 -12.334700
C -8.790300 -50.006300 -10.596800
O -8.635900 -51.219500 -10.584700
O -8.617500 -49.245400 -9.538000
C -8.601100 -44.981400 -12.170200
C -8.501800 -43.601500 -12.130900
H -8.323600 -49.733900 -8.809400
H -7.944600 -45.521700 -11.715700
H -7.788000 -43.179300 -11.610000
21
Fragment
H -8.049900 -39.765400 -11.202400
H -7.471800 -40.966400 -10.341800
C -7.286400 -40.102200 -10.730600
N -7.040500 -37.198200 -11.050900
N -6.924800 -39.189800 -9.647700
H -6.843900 -35.196100 -11.406200
C -6.826700 -37.842400 -9.868800
C -6.779800 -35.918400 -10.772100
O -6.615800 -40.890400 -8.161500
C -6.603300 -39.700600 -8.403400
H -6.539900 -40.157600 -11.368500
H -6.469400 -38.753500 -5.412500
C -6.447300 -36.961800 -8.893800
N -6.415600 -35.727900 -9.502000
H -6.283100 -40.157600 -6.054100
N -6.275500 -38.760500 -7.413400
H -6.176400 -34.926500 -9.126500
C -6.112500 -37.383400 -7.578200
C -5.985600 -39.287800 -6.078300
O -5.719100 -36.690500 -6.639600
H -5.034600 -39.243700 -5.888100
47
Fragment
F -11.422200 -45.379500 -14.394300
H -10.989600 -42.906200 -14.101100
C -10.458600 -44.819300 -13.619500
C -10.408000 -43.441500 -13.602900
H -10.188800 -47.391400 -14.886200
H -10.034300 -49.747900 -14.954100
C -9.938600 -47.860600 -14.093600
C -9.855400 -49.236700 -14.129100
C -9.632100 -47.132300 -12.933300
C -9.588300 -45.643600 -12.911200
C -9.465800 -49.953800 -13.000300
C -9.415300 -42.865500 -12.846500
O -9.376600 -51.297300 -13.114900
F -9.324600 -41.509400 -12.823600
C -9.276400 -47.861000 -11.801500
C -9.190100 -49.257000 -11.812300
H -9.106100 -47.395000 -10.968400
H -9.078200 -51.617600 -12.334700
C -8.790300 -50.006300 -10.596800
O -8.635900 -51.219500 -10.584700
O -8.617500 -49.245400 -9.538000
C -8.601100 -44.981400 -12.170200
C -8.501800 -43.601500 -12.130900
H -8.323600 -49.733900 -8.809400
H -7.944600 -45.521700 -11.715700
H -7.788000 -43.179300 -11.610000
H -8.049900 -39.765400 -11.202400
H -7.471800 -40.966400 -10.341800
C -7.286400 -40.102200 -10.730600
N -7.040500 -37.198200 -11.050900
N -6.924800 -39.189800 -9.647700
H -6.843900 -35.196100 -11.406200
C -6.826700 -37.842400 -9.868800
C -6.779800 -35.918400 -10.772100
O -6.615800 -40.890400 -8.161500
C -6.603300 -39.700600 -8.403400
H -6.539900 -40.157600 -11.368500
H -6.469400 -38.753500 -5.412500
C -6.447300 -36.961800 -8.893800
N -6.415600 -35.727900 -9.502000
H -6.283100 -40.157600 -6.054100
N -6.275500 -38.760500 -7.413400
H -6.176400 -34.926500 -9.126500
C -6.112500 -37.383400 -7.578200
C -5.985600 -39.287800 -6.078300
O -5.719100 -36.690500 -6.639600
H -5.034600 -39.243700 -5.888100
