12
Fragment
O -26.358100 -9.923900 -29.451000
C -25.253700 -10.462800 -29.502700
H -25.038200 -10.801700 -27.586400
H -25.000600 -10.351000 -31.407700
N -24.619700 -10.927300 -28.371100
N -24.581800 -10.650700 -30.675200
C -23.392500 -11.546500 -28.320300
C -23.338200 -11.228000 -30.728500
H -22.913200 -11.245300 -31.632600
O -22.908700 -11.939600 -27.256600
C -22.753200 -11.663500 -29.607100
F -21.530200 -12.227800 -29.625000
15
Fragment
H -29.037800 -10.766500 -22.521600
H -28.746900 -9.569400 -26.955200
N -28.235500 -11.007600 -22.553300
N -28.117500 -10.305100 -24.739500
N -27.908700 -9.818200 -26.977100
H -27.826500 -11.308600 -21.811000
C -27.507300 -10.829600 -23.655100
H -27.396200 -9.808800 -27.728200
C -27.346300 -10.255600 -25.849100
N -26.205300 -11.184600 -23.595800
N -26.048100 -10.630800 -25.912900
C -25.524800 -11.038400 -24.745900
N -24.205600 -11.316500 -24.710200
H -23.924600 -11.829700 -23.982400
H -23.776100 -11.400200 -25.509500
27
Fragment
O -26.358100 -9.923900 -29.451000
C -25.253700 -10.462800 -29.502700
H -25.038200 -10.801700 -27.586400
H -25.000600 -10.351000 -31.407700
N -24.619700 -10.927300 -28.371100
N -24.581800 -10.650700 -30.675200
C -23.392500 -11.546500 -28.320300
C -23.338200 -11.228000 -30.728500
H -22.913200 -11.245300 -31.632600
O -22.908700 -11.939600 -27.256600
C -22.753200 -11.663500 -29.607100
F -21.530200 -12.227800 -29.625000
H -29.037800 -10.766500 -22.521600
H -28.746900 -9.569400 -26.955200
N -28.235500 -11.007600 -22.553300
N -28.117500 -10.305100 -24.739500
N -27.908700 -9.818200 -26.977100
H -27.826500 -11.308600 -21.811000
C -27.507300 -10.829600 -23.655100
H -27.396200 -9.808800 -27.728200
C -27.346300 -10.255600 -25.849100
N -26.205300 -11.184600 -23.595800
N -26.048100 -10.630800 -25.912900
C -25.524800 -11.038400 -24.745900
N -24.205600 -11.316500 -24.710200
H -23.924600 -11.829700 -23.982400
H -23.776100 -11.400200 -25.509500
