12
Fragment
O -26.358100 -9.923900 -29.451000
C -25.253700 -10.462800 -29.502700
H -25.038200 -10.801700 -27.586400
H -25.000600 -10.351000 -31.407700
N -24.619700 -10.927300 -28.371100
N -24.581800 -10.650700 -30.675200
C -23.392500 -11.546500 -28.320300
C -23.338200 -11.228000 -30.728500
H -22.913200 -11.245300 -31.632600
O -22.908700 -11.939600 -27.256600
C -22.753200 -11.663500 -29.607100
F -21.530200 -12.227800 -29.625000
12
Fragment
F -22.202000 -8.896700 -27.071100
C -20.978900 -9.461000 -27.089000
O -20.823400 -9.184900 -29.439400
H -20.819000 -9.879200 -25.063400
C -20.394000 -9.896500 -25.967600
C -20.339600 -9.578000 -28.375800
N -19.150300 -10.473800 -26.020900
N -19.112500 -10.197200 -28.325000
H -18.731500 -10.773500 -25.288300
H -18.694000 -10.322800 -29.109700
C -18.478500 -10.661700 -27.193300
O -17.374100 -11.200600 -27.245100
24
Fragment
O -26.358100 -9.923900 -29.451000
C -25.253700 -10.462800 -29.502700
H -25.038200 -10.801700 -27.586400
H -25.000600 -10.351000 -31.407700
N -24.619700 -10.927300 -28.371100
N -24.581800 -10.650700 -30.675200
C -23.392500 -11.546500 -28.320300
C -23.338200 -11.228000 -30.728500
H -22.913200 -11.245300 -31.632600
O -22.908700 -11.939600 -27.256600
C -22.753200 -11.663500 -29.607100
F -21.530200 -12.227800 -29.625000
F -22.202000 -8.896700 -27.071100
C -20.978900 -9.461000 -27.089000
O -20.823400 -9.184900 -29.439400
H -20.819000 -9.879200 -25.063400
C -20.394000 -9.896500 -25.967600
C -20.339600 -9.578000 -28.375800
N -19.150300 -10.473800 -26.020900
N -19.112500 -10.197200 -28.325000
H -18.731500 -10.773500 -25.288300
H -18.694000 -10.322800 -29.109700
C -18.478500 -10.661700 -27.193300
O -17.374100 -11.200600 -27.245100
