21
Fragment
H -9.279000 -25.572800 -45.236000
H -9.176400 -24.386000 -47.303100
N -8.872300 -24.786400 -45.342400
C -8.801900 -24.095600 -46.496200
O -8.360400 -25.199700 -42.294900
C -8.221900 -24.036600 -44.384200
N -8.143600 -22.933600 -46.356000
C -7.988500 -24.234600 -42.991000
H -7.841000 -23.446200 -40.527400
C -7.782400 -22.894300 -45.046800
H -7.320000 -20.066400 -45.136300
N -7.262800 -23.182400 -42.412100
N -7.073600 -21.908400 -44.426400
C -7.017800 -23.286300 -40.967000
C -6.752300 -22.039800 -43.075800
H -6.635000 -22.475100 -40.672300
C -6.580000 -20.630800 -44.951500
H -6.433700 -24.014000 -40.793300
H -6.081700 -20.776800 -45.745300
O -6.057300 -21.214100 -42.493100
H -6.026400 -20.228600 -44.303100
15
Fragment
H -6.665700 -17.574500 -39.814400
O -6.526000 -18.210600 -39.055800
C -5.495100 -17.861000 -38.297600
O -5.008200 -16.735100 -38.280700
F -4.973300 -17.620600 -35.493800
C -4.952200 -18.987500 -37.462700
F -4.837600 -20.494400 -39.300700
C -4.661600 -18.790000 -36.100200
C -4.610900 -20.247800 -37.996500
C -4.071100 -19.797500 -35.330600
C -4.003500 -21.249300 -37.243200
F -3.830700 -19.556300 -34.019600
H -3.782000 -22.083500 -37.639700
C -3.733900 -21.025000 -35.890600
H -3.321600 -21.696100 -35.359700
36
Fragment
H -9.279000 -25.572800 -45.236000
H -9.176400 -24.386000 -47.303100
N -8.872300 -24.786400 -45.342400
C -8.801900 -24.095600 -46.496200
O -8.360400 -25.199700 -42.294900
C -8.221900 -24.036600 -44.384200
N -8.143600 -22.933600 -46.356000
C -7.988500 -24.234600 -42.991000
H -7.841000 -23.446200 -40.527400
C -7.782400 -22.894300 -45.046800
H -7.320000 -20.066400 -45.136300
N -7.262800 -23.182400 -42.412100
N -7.073600 -21.908400 -44.426400
C -7.017800 -23.286300 -40.967000
C -6.752300 -22.039800 -43.075800
H -6.635000 -22.475100 -40.672300
C -6.580000 -20.630800 -44.951500
H -6.433700 -24.014000 -40.793300
H -6.081700 -20.776800 -45.745300
O -6.057300 -21.214100 -42.493100
H -6.026400 -20.228600 -44.303100
H -6.665700 -17.574500 -39.814400
O -6.526000 -18.210600 -39.055800
C -5.495100 -17.861000 -38.297600
O -5.008200 -16.735100 -38.280700
F -4.973300 -17.620600 -35.493800
C -4.952200 -18.987500 -37.462700
F -4.837600 -20.494400 -39.300700
C -4.661600 -18.790000 -36.100200
C -4.610900 -20.247800 -37.996500
C -4.071100 -19.797500 -35.330600
C -4.003500 -21.249300 -37.243200
F -3.830700 -19.556300 -34.019600
H -3.782000 -22.083500 -37.639700
C -3.733900 -21.025000 -35.890600
H -3.321600 -21.696100 -35.359700
