15
Fragment
H -12.933300 -25.649900 -17.294000
F -12.601000 -25.067400 -19.732700
C -12.285200 -26.177300 -17.703500
C -11.964400 -26.011500 -19.019500
F -11.952900 -27.285200 -15.704600
C -11.612400 -27.154200 -17.004900
C -11.017300 -26.781800 -19.616400
F -10.746300 -26.568800 -20.922500
C -10.639200 -27.953700 -17.566000
C -10.357600 -27.750300 -18.913800
O -10.115200 -29.071800 -15.561600
C -9.860100 -29.004300 -16.850400
H -9.718500 -28.276100 -19.338500
H -9.515500 -29.686200 -15.175800
O -9.045100 -29.694300 -17.397700
21
Fragment
H -18.259600 -22.598300 -11.714400
O -17.879300 -21.785200 -14.644200
N -17.597700 -23.178300 -11.919300
H -17.348000 -24.178100 -10.195600
C -17.079400 -22.678100 -14.370500
C -17.071400 -24.075500 -11.076900
C -16.936900 -23.331800 -13.114600
H -16.748900 -21.741300 -16.627500
H -16.566100 -23.152200 -17.284900
C -16.202500 -22.530500 -16.650400
N -16.177600 -23.148900 -15.315800
N -16.107400 -24.806900 -11.638500
C -16.040200 -24.339200 -12.909500
H -15.309700 -22.293700 -16.910400
C -15.244000 -24.183000 -15.136300
N -15.207800 -24.785000 -13.898100
H -14.887300 -26.758200 -13.771900
O -14.509700 -24.521800 -16.038800
C -14.356200 -25.962200 -13.696800
H -13.958400 -25.924900 -12.823900
H -13.665100 -25.975300 -14.363400
36
Fragment
H -12.933300 -25.649900 -17.294000
F -12.601000 -25.067400 -19.732700
C -12.285200 -26.177300 -17.703500
C -11.964400 -26.011500 -19.019500
F -11.952900 -27.285200 -15.704600
C -11.612400 -27.154200 -17.004900
C -11.017300 -26.781800 -19.616400
F -10.746300 -26.568800 -20.922500
C -10.639200 -27.953700 -17.566000
C -10.357600 -27.750300 -18.913800
O -10.115200 -29.071800 -15.561600
C -9.860100 -29.004300 -16.850400
H -9.718500 -28.276100 -19.338500
H -9.515500 -29.686200 -15.175800
O -9.045100 -29.694300 -17.397700
H -18.259600 -22.598300 -11.714400
O -17.879300 -21.785200 -14.644200
N -17.597700 -23.178300 -11.919300
H -17.348000 -24.178100 -10.195600
C -17.079400 -22.678100 -14.370500
C -17.071400 -24.075500 -11.076900
C -16.936900 -23.331800 -13.114600
H -16.748900 -21.741300 -16.627500
H -16.566100 -23.152200 -17.284900
C -16.202500 -22.530500 -16.650400
N -16.177600 -23.148900 -15.315800
N -16.107400 -24.806900 -11.638500
C -16.040200 -24.339200 -12.909500
H -15.309700 -22.293700 -16.910400
C -15.244000 -24.183000 -15.136300
N -15.207800 -24.785000 -13.898100
H -14.887300 -26.758200 -13.771900
O -14.509700 -24.521800 -16.038800
C -14.356200 -25.962200 -13.696800
H -13.958400 -25.924900 -12.823900
H -13.665100 -25.975300 -14.363400
