21
Fragment
H -9.279000 -25.572800 -45.236000
H -9.176400 -24.386000 -47.303100
N -8.872300 -24.786400 -45.342400
C -8.801900 -24.095600 -46.496200
O -8.360400 -25.199700 -42.294900
C -8.221900 -24.036600 -44.384200
N -8.143600 -22.933600 -46.356000
C -7.988500 -24.234600 -42.991000
H -7.841000 -23.446200 -40.527400
C -7.782400 -22.894300 -45.046800
H -7.320000 -20.066400 -45.136300
N -7.262800 -23.182400 -42.412100
N -7.073600 -21.908400 -44.426400
C -7.017800 -23.286300 -40.967000
C -6.752300 -22.039800 -43.075800
H -6.635000 -22.475100 -40.672300
C -6.580000 -20.630800 -44.951500
H -6.433700 -24.014000 -40.793300
H -6.081700 -20.776800 -45.745300
O -6.057300 -21.214100 -42.493100
H -6.026400 -20.228600 -44.303100
21
Fragment
H -4.735400 -18.928900 -43.151600
O -4.704500 -17.943400 -44.961700
H -4.680100 -18.380700 -41.709500
H -4.328100 -15.143500 -46.661500
C -4.181800 -18.526700 -42.503300
H -4.126800 -16.682400 -46.782500
C -4.009500 -17.117700 -44.378900
C -3.744000 -15.871200 -46.487700
N -3.688200 -17.249100 -43.028300
N -3.499000 -15.975100 -45.042700
H -3.441900 -19.091100 -42.318500
C -2.979400 -16.263200 -42.408000
H -2.920900 -15.711300 -46.927400
C -2.773400 -14.922900 -44.463800
N -2.618300 -16.223900 -41.098800
C -2.540000 -15.120900 -43.070600
O -2.401400 -13.957800 -45.159900
C -1.959900 -15.061900 -40.958600
N -1.889600 -14.371100 -42.112400
H -1.585400 -14.771500 -40.151700
H -1.482900 -13.584700 -42.218800
42
Fragment
H -9.279000 -25.572800 -45.236000
H -9.176400 -24.386000 -47.303100
N -8.872300 -24.786400 -45.342400
C -8.801900 -24.095600 -46.496200
O -8.360400 -25.199700 -42.294900
C -8.221900 -24.036600 -44.384200
N -8.143600 -22.933600 -46.356000
C -7.988500 -24.234600 -42.991000
H -7.841000 -23.446200 -40.527400
C -7.782400 -22.894300 -45.046800
H -7.320000 -20.066400 -45.136300
N -7.262800 -23.182400 -42.412100
N -7.073600 -21.908400 -44.426400
C -7.017800 -23.286300 -40.967000
C -6.752300 -22.039800 -43.075800
H -6.635000 -22.475100 -40.672300
C -6.580000 -20.630800 -44.951500
H -6.433700 -24.014000 -40.793300
H -6.081700 -20.776800 -45.745300
O -6.057300 -21.214100 -42.493100
H -6.026400 -20.228600 -44.303100
H -4.735400 -18.928900 -43.151600
O -4.704500 -17.943400 -44.961700
H -4.680100 -18.380700 -41.709500
H -4.328100 -15.143500 -46.661500
C -4.181800 -18.526700 -42.503300
H -4.126800 -16.682400 -46.782500
C -4.009500 -17.117700 -44.378900
C -3.744000 -15.871200 -46.487700
N -3.688200 -17.249100 -43.028300
N -3.499000 -15.975100 -45.042700
H -3.441900 -19.091100 -42.318500
C -2.979400 -16.263200 -42.408000
H -2.920900 -15.711300 -46.927400
C -2.773400 -14.922900 -44.463800
N -2.618300 -16.223900 -41.098800
C -2.540000 -15.120900 -43.070600
O -2.401400 -13.957800 -45.159900
C -1.959900 -15.061900 -40.958600
N -1.889600 -14.371100 -42.112400
H -1.585400 -14.771500 -40.151700
H -1.482900 -13.584700 -42.218800
