21
Fragment
H -8.897300 -25.726000 -44.887400
H -8.712100 -24.545800 -46.953100
N -8.459200 -24.955500 -44.988000
C -8.342000 -24.266900 -46.139700
O -8.019800 -25.392200 -41.931400
C -7.809600 -24.225600 -44.013300
N -7.651400 -23.125700 -45.983300
C -7.606400 -24.436900 -42.616400
H -7.444500 -23.597800 -40.123600
C -7.319300 -23.097000 -44.664200
H -6.870100 -20.373700 -44.949900
N -6.851500 -23.416200 -42.020500
C -6.613500 -23.554200 -40.576200
N -6.598100 -22.132000 -44.024300
C -6.315400 -22.271900 -42.664100
C -6.139400 -20.948700 -44.759900
H -6.134300 -24.355600 -40.412500
H -6.121500 -22.804300 -40.285000
H -5.734500 -21.222400 -45.571000
O -5.624900 -21.456600 -42.060700
H -5.511800 -20.484400 -44.230700
21
Fragment
H -12.816100 -25.726000 -44.887400
H -12.630900 -24.545800 -46.953100
N -12.378000 -24.955500 -44.988000
C -12.260700 -24.266900 -46.139700
O -11.938600 -25.392200 -41.931400
C -11.728400 -24.225600 -44.013300
N -11.570100 -23.125700 -45.983300
C -11.525200 -24.436900 -42.616400
H -11.363200 -23.597800 -40.123600
C -11.238000 -23.097000 -44.664200
H -10.788900 -20.373700 -44.949900
N -10.770300 -23.416200 -42.020500
C -10.532300 -23.554200 -40.576200
N -10.516900 -22.132000 -44.024300
C -10.234200 -22.271900 -42.664100
C -10.058200 -20.948700 -44.759900
H -10.053100 -24.355600 -40.412500
H -10.040300 -22.804300 -40.285000
H -9.653300 -21.222400 -45.571000
O -9.543700 -21.456600 -42.060700
H -9.430500 -20.484400 -44.230700
42
Fragment
H -8.897300 -25.726000 -44.887400
H -8.712100 -24.545800 -46.953100
N -8.459200 -24.955500 -44.988000
C -8.342000 -24.266900 -46.139700
O -8.019800 -25.392200 -41.931400
C -7.809600 -24.225600 -44.013300
N -7.651400 -23.125700 -45.983300
C -7.606400 -24.436900 -42.616400
H -7.444500 -23.597800 -40.123600
C -7.319300 -23.097000 -44.664200
H -6.870100 -20.373700 -44.949900
N -6.851500 -23.416200 -42.020500
C -6.613500 -23.554200 -40.576200
N -6.598100 -22.132000 -44.024300
C -6.315400 -22.271900 -42.664100
C -6.139400 -20.948700 -44.759900
H -6.134300 -24.355600 -40.412500
H -6.121500 -22.804300 -40.285000
H -5.734500 -21.222400 -45.571000
O -5.624900 -21.456600 -42.060700
H -5.511800 -20.484400 -44.230700
H -12.816100 -25.726000 -44.887400
H -12.630900 -24.545800 -46.953100
N -12.378000 -24.955500 -44.988000
C -12.260700 -24.266900 -46.139700
O -11.938600 -25.392200 -41.931400
C -11.728400 -24.225600 -44.013300
N -11.570100 -23.125700 -45.983300
C -11.525200 -24.436900 -42.616400
H -11.363200 -23.597800 -40.123600
C -11.238000 -23.097000 -44.664200
H -10.788900 -20.373700 -44.949900
N -10.770300 -23.416200 -42.020500
C -10.532300 -23.554200 -40.576200
N -10.516900 -22.132000 -44.024300
C -10.234200 -22.271900 -42.664100
C -10.058200 -20.948700 -44.759900
H -10.053100 -24.355600 -40.412500
H -10.040300 -22.804300 -40.285000
H -9.653300 -21.222400 -45.571000
O -9.543700 -21.456600 -42.060700
H -9.430500 -20.484400 -44.230700
