15
Fragment
H -12.933300 -25.649900 -17.294000
F -12.601000 -25.067400 -19.732700
C -12.285200 -26.177300 -17.703500
C -11.964400 -26.011500 -19.019500
F -11.952900 -27.285200 -15.704600
C -11.612400 -27.154200 -17.004900
C -11.017300 -26.781800 -19.616400
F -10.746300 -26.568800 -20.922500
C -10.639200 -27.953700 -17.566000
C -10.357600 -27.750300 -18.913800
O -10.115200 -29.071800 -15.561600
C -9.860100 -29.004300 -16.850400
H -9.718500 -28.276100 -19.338500
H -9.515500 -29.686200 -15.175800
O -9.045100 -29.694300 -17.397700
21
Fragment
H -15.841200 -29.710500 -11.467700
H -15.548000 -29.760800 -13.007300
C -15.150200 -29.723600 -12.134300
O -14.996700 -31.164000 -9.792300
H -14.619000 -28.927600 -12.059300
N -14.298600 -30.900700 -11.933100
C -14.262400 -31.502800 -10.694900
H -14.196700 -33.392100 -8.920800
C -13.466100 -31.346600 -12.921700
N -13.398900 -30.878800 -14.192700
N -13.328800 -32.536900 -10.515300
C -13.303800 -33.155200 -9.180800
H -12.940300 -32.533500 -8.546200
H -12.757500 -33.944500 -9.203600
C -12.569500 -32.354000 -12.716600
C -12.434900 -31.610300 -14.754200
C -12.426900 -33.007600 -11.460600
H -12.158400 -31.507600 -15.635600
N -11.908600 -32.507500 -13.911900
O -11.627000 -33.900600 -11.187000
H -11.246800 -33.087500 -14.116700
36
Fragment
H -12.933300 -25.649900 -17.294000
F -12.601000 -25.067400 -19.732700
C -12.285200 -26.177300 -17.703500
C -11.964400 -26.011500 -19.019500
F -11.952900 -27.285200 -15.704600
C -11.612400 -27.154200 -17.004900
C -11.017300 -26.781800 -19.616400
F -10.746300 -26.568800 -20.922500
C -10.639200 -27.953700 -17.566000
C -10.357600 -27.750300 -18.913800
O -10.115200 -29.071800 -15.561600
C -9.860100 -29.004300 -16.850400
H -9.718500 -28.276100 -19.338500
H -9.515500 -29.686200 -15.175800
O -9.045100 -29.694300 -17.397700
H -15.841200 -29.710500 -11.467700
H -15.548000 -29.760800 -13.007300
C -15.150200 -29.723600 -12.134300
O -14.996700 -31.164000 -9.792300
H -14.619000 -28.927600 -12.059300
N -14.298600 -30.900700 -11.933100
C -14.262400 -31.502800 -10.694900
H -14.196700 -33.392100 -8.920800
C -13.466100 -31.346600 -12.921700
N -13.398900 -30.878800 -14.192700
N -13.328800 -32.536900 -10.515300
C -13.303800 -33.155200 -9.180800
H -12.940300 -32.533500 -8.546200
H -12.757500 -33.944500 -9.203600
C -12.569500 -32.354000 -12.716600
C -12.434900 -31.610300 -14.754200
C -12.426900 -33.007600 -11.460600
H -12.158400 -31.507600 -15.635600
N -11.908600 -32.507500 -13.911900
O -11.627000 -33.900600 -11.187000
H -11.246800 -33.087500 -14.116700
