15
Fragment
H -12.933300 -25.649900 -17.294000
F -12.601000 -25.067400 -19.732700
C -12.285200 -26.177300 -17.703500
C -11.964400 -26.011500 -19.019500
F -11.952900 -27.285200 -15.704600
C -11.612400 -27.154200 -17.004900
C -11.017300 -26.781800 -19.616400
F -10.746300 -26.568800 -20.922500
C -10.639200 -27.953700 -17.566000
C -10.357600 -27.750300 -18.913800
O -10.115200 -29.071800 -15.561600
C -9.860100 -29.004300 -16.850400
H -9.718500 -28.276100 -19.338500
H -9.515500 -29.686200 -15.175800
O -9.045100 -29.694300 -17.397700
15
Fragment
H -17.691200 -25.649900 -17.294000
F -17.358900 -25.067400 -19.732700
C -17.043100 -26.177300 -17.703500
C -16.722300 -26.011500 -19.019500
F -16.710800 -27.285200 -15.704600
C -16.370300 -27.154200 -17.004900
C -15.775200 -26.781800 -19.616400
F -15.504200 -26.568800 -20.922500
C -15.397100 -27.953700 -17.566000
C -15.115500 -27.750300 -18.913800
O -14.873100 -29.071800 -15.561600
C -14.618000 -29.004300 -16.850400
H -14.476400 -28.276100 -19.338500
H -14.273400 -29.686200 -15.175800
O -13.803000 -29.694300 -17.397700
30
Fragment
H -12.933300 -25.649900 -17.294000
F -12.601000 -25.067400 -19.732700
C -12.285200 -26.177300 -17.703500
C -11.964400 -26.011500 -19.019500
F -11.952900 -27.285200 -15.704600
C -11.612400 -27.154200 -17.004900
C -11.017300 -26.781800 -19.616400
F -10.746300 -26.568800 -20.922500
C -10.639200 -27.953700 -17.566000
C -10.357600 -27.750300 -18.913800
O -10.115200 -29.071800 -15.561600
C -9.860100 -29.004300 -16.850400
H -9.718500 -28.276100 -19.338500
H -9.515500 -29.686200 -15.175800
O -9.045100 -29.694300 -17.397700
H -17.691200 -25.649900 -17.294000
F -17.358900 -25.067400 -19.732700
C -17.043100 -26.177300 -17.703500
C -16.722300 -26.011500 -19.019500
F -16.710800 -27.285200 -15.704600
C -16.370300 -27.154200 -17.004900
C -15.775200 -26.781800 -19.616400
F -15.504200 -26.568800 -20.922500
C -15.397100 -27.953700 -17.566000
C -15.115500 -27.750300 -18.913800
O -14.873100 -29.071800 -15.561600
C -14.618000 -29.004300 -16.850400
H -14.476400 -28.276100 -19.338500
H -14.273400 -29.686200 -15.175800
O -13.803000 -29.694300 -17.397700
