21
Fragment
H -8.897300 -25.726000 -44.887400
H -8.712100 -24.545800 -46.953100
N -8.459200 -24.955500 -44.988000
C -8.342000 -24.266900 -46.139700
O -8.019800 -25.392200 -41.931400
C -7.809600 -24.225600 -44.013300
N -7.651400 -23.125700 -45.983300
C -7.606400 -24.436900 -42.616400
H -7.444500 -23.597800 -40.123600
C -7.319300 -23.097000 -44.664200
H -6.870100 -20.373700 -44.949900
N -6.851500 -23.416200 -42.020500
C -6.613500 -23.554200 -40.576200
N -6.598100 -22.132000 -44.024300
C -6.315400 -22.271900 -42.664100
C -6.139400 -20.948700 -44.759900
H -6.134300 -24.355600 -40.412500
H -6.121500 -22.804300 -40.285000
H -5.734500 -21.222400 -45.571000
O -5.624900 -21.456600 -42.060700
H -5.511800 -20.484400 -44.230700
21
Fragment
H -4.978600 -25.726000 -44.887400
H -4.793400 -24.545800 -46.953100
N -4.540400 -24.955500 -44.988000
C -4.423200 -24.266900 -46.139700
O -4.101100 -25.392200 -41.931400
C -3.890900 -24.225600 -44.013300
N -3.732600 -23.125700 -45.983300
C -3.687600 -24.436900 -42.616400
H -3.525700 -23.597800 -40.123600
C -3.400500 -23.097000 -44.664200
H -2.951300 -20.373700 -44.949900
N -2.932700 -23.416200 -42.020500
C -2.694800 -23.554200 -40.576200
N -2.679400 -22.132000 -44.024300
C -2.396700 -22.271900 -42.664100
C -2.220700 -20.948700 -44.759900
H -2.215500 -24.355600 -40.412500
H -2.202700 -22.804300 -40.285000
H -1.815700 -21.222400 -45.571000
O -1.706200 -21.456600 -42.060700
H -1.593000 -20.484400 -44.230700
42
Fragment
H -8.897300 -25.726000 -44.887400
H -8.712100 -24.545800 -46.953100
N -8.459200 -24.955500 -44.988000
C -8.342000 -24.266900 -46.139700
O -8.019800 -25.392200 -41.931400
C -7.809600 -24.225600 -44.013300
N -7.651400 -23.125700 -45.983300
C -7.606400 -24.436900 -42.616400
H -7.444500 -23.597800 -40.123600
C -7.319300 -23.097000 -44.664200
H -6.870100 -20.373700 -44.949900
N -6.851500 -23.416200 -42.020500
C -6.613500 -23.554200 -40.576200
N -6.598100 -22.132000 -44.024300
C -6.315400 -22.271900 -42.664100
C -6.139400 -20.948700 -44.759900
H -6.134300 -24.355600 -40.412500
H -6.121500 -22.804300 -40.285000
H -5.734500 -21.222400 -45.571000
O -5.624900 -21.456600 -42.060700
H -5.511800 -20.484400 -44.230700
H -4.978600 -25.726000 -44.887400
H -4.793400 -24.545800 -46.953100
N -4.540400 -24.955500 -44.988000
C -4.423200 -24.266900 -46.139700
O -4.101100 -25.392200 -41.931400
C -3.890900 -24.225600 -44.013300
N -3.732600 -23.125700 -45.983300
C -3.687600 -24.436900 -42.616400
H -3.525700 -23.597800 -40.123600
C -3.400500 -23.097000 -44.664200
H -2.951300 -20.373700 -44.949900
N -2.932700 -23.416200 -42.020500
C -2.694800 -23.554200 -40.576200
N -2.679400 -22.132000 -44.024300
C -2.396700 -22.271900 -42.664100
C -2.220700 -20.948700 -44.759900
H -2.215500 -24.355600 -40.412500
H -2.202700 -22.804300 -40.285000
H -1.815700 -21.222400 -45.571000
O -1.706200 -21.456600 -42.060700
H -1.593000 -20.484400 -44.230700
