15
Fragment
H -12.933300 -25.649900 -17.294000
F -12.601000 -25.067400 -19.732700
C -12.285200 -26.177300 -17.703500
C -11.964400 -26.011500 -19.019500
F -11.952900 -27.285200 -15.704600
C -11.612400 -27.154200 -17.004900
C -11.017300 -26.781800 -19.616400
F -10.746300 -26.568800 -20.922500
C -10.639200 -27.953700 -17.566000
C -10.357600 -27.750300 -18.913800
O -10.115200 -29.071800 -15.561600
C -9.860100 -29.004300 -16.850400
H -9.718500 -28.276100 -19.338500
H -9.515500 -29.686200 -15.175800
O -9.045100 -29.694300 -17.397700
15
Fragment
O -13.070900 -28.903000 -21.349100
H -12.600400 -28.911100 -23.570900
H -12.397500 -30.321200 -19.408200
C -12.255800 -29.593000 -21.896300
O -12.000700 -29.525600 -23.185100
C -11.758300 -30.847000 -19.832900
C -11.476700 -30.643600 -21.180800
F -11.369600 -32.028500 -17.824300
C -11.098700 -31.815500 -19.130300
C -10.503500 -31.443100 -21.741800
F -10.163100 -31.312100 -23.042200
C -10.151500 -32.585800 -19.727300
C -9.830800 -32.420000 -21.043200
F -9.515000 -33.529900 -19.014100
H -9.182600 -32.947400 -21.452800
30
Fragment
H -12.933300 -25.649900 -17.294000
F -12.601000 -25.067400 -19.732700
C -12.285200 -26.177300 -17.703500
C -11.964400 -26.011500 -19.019500
F -11.952900 -27.285200 -15.704600
C -11.612400 -27.154200 -17.004900
C -11.017300 -26.781800 -19.616400
F -10.746300 -26.568800 -20.922500
C -10.639200 -27.953700 -17.566000
C -10.357600 -27.750300 -18.913800
O -10.115200 -29.071800 -15.561600
C -9.860100 -29.004300 -16.850400
H -9.718500 -28.276100 -19.338500
H -9.515500 -29.686200 -15.175800
O -9.045100 -29.694300 -17.397700
O -13.070900 -28.903000 -21.349100
H -12.600400 -28.911100 -23.570900
H -12.397500 -30.321200 -19.408200
C -12.255800 -29.593000 -21.896300
O -12.000700 -29.525600 -23.185100
C -11.758300 -30.847000 -19.832900
C -11.476700 -30.643600 -21.180800
F -11.369600 -32.028500 -17.824300
C -11.098700 -31.815500 -19.130300
C -10.503500 -31.443100 -21.741800
F -10.163100 -31.312100 -23.042200
C -10.151500 -32.585800 -19.727300
C -9.830800 -32.420000 -21.043200
F -9.515000 -33.529900 -19.014100
H -9.182600 -32.947400 -21.452800
