21
Fragment
H -8.897300 -25.726000 -44.887400
H -8.712100 -24.545800 -46.953100
N -8.459200 -24.955500 -44.988000
C -8.342000 -24.266900 -46.139700
O -8.019800 -25.392200 -41.931400
C -7.809600 -24.225600 -44.013300
N -7.651400 -23.125700 -45.983300
C -7.606400 -24.436900 -42.616400
H -7.444500 -23.597800 -40.123600
C -7.319300 -23.097000 -44.664200
H -6.870100 -20.373700 -44.949900
N -6.851500 -23.416200 -42.020500
C -6.613500 -23.554200 -40.576200
N -6.598100 -22.132000 -44.024300
C -6.315400 -22.271900 -42.664100
C -6.139400 -20.948700 -44.759900
H -6.134300 -24.355600 -40.412500
H -6.121500 -22.804300 -40.285000
H -5.734500 -21.222400 -45.571000
O -5.624900 -21.456600 -42.060700
H -5.511800 -20.484400 -44.230700
15
Fragment
H -9.892900 -28.527700 -53.855200
O -9.716700 -27.815700 -53.365400
C -8.826400 -28.148900 -52.438000
F -8.627000 -25.342900 -53.359000
O -8.444900 -29.301000 -52.244000
C -8.307500 -26.991800 -51.633000
C -8.217600 -25.678400 -52.126600
H -7.865800 -28.138800 -50.006900
C -7.822100 -27.261600 -50.338800
C -7.644000 -24.670300 -51.337200
F -7.554800 -23.427300 -51.853400
C -7.276000 -26.230100 -49.585600
C -7.163800 -24.920800 -50.056900
F -6.819100 -26.497000 -48.333500
H -6.773500 -24.230300 -49.552300
36
Fragment
H -8.897300 -25.726000 -44.887400
H -8.712100 -24.545800 -46.953100
N -8.459200 -24.955500 -44.988000
C -8.342000 -24.266900 -46.139700
O -8.019800 -25.392200 -41.931400
C -7.809600 -24.225600 -44.013300
N -7.651400 -23.125700 -45.983300
C -7.606400 -24.436900 -42.616400
H -7.444500 -23.597800 -40.123600
C -7.319300 -23.097000 -44.664200
H -6.870100 -20.373700 -44.949900
N -6.851500 -23.416200 -42.020500
C -6.613500 -23.554200 -40.576200
N -6.598100 -22.132000 -44.024300
C -6.315400 -22.271900 -42.664100
C -6.139400 -20.948700 -44.759900
H -6.134300 -24.355600 -40.412500
H -6.121500 -22.804300 -40.285000
H -5.734500 -21.222400 -45.571000
O -5.624900 -21.456600 -42.060700
H -5.511800 -20.484400 -44.230700
H -9.892900 -28.527700 -53.855200
O -9.716700 -27.815700 -53.365400
C -8.826400 -28.148900 -52.438000
F -8.627000 -25.342900 -53.359000
O -8.444900 -29.301000 -52.244000
C -8.307500 -26.991800 -51.633000
C -8.217600 -25.678400 -52.126600
H -7.865800 -28.138800 -50.006900
C -7.822100 -27.261600 -50.338800
C -7.644000 -24.670300 -51.337200
F -7.554800 -23.427300 -51.853400
C -7.276000 -26.230100 -49.585600
C -7.163800 -24.920800 -50.056900
F -6.819100 -26.497000 -48.333500
H -6.773500 -24.230300 -49.552300
