21
Fragment
H -9.279000 -25.572800 -45.236000
H -9.176400 -24.386000 -47.303100
N -8.872300 -24.786400 -45.342400
C -8.801900 -24.095600 -46.496200
O -8.360400 -25.199700 -42.294900
C -8.221900 -24.036600 -44.384200
N -8.143600 -22.933600 -46.356000
C -7.988500 -24.234600 -42.991000
H -7.841000 -23.446200 -40.527400
C -7.782400 -22.894300 -45.046800
H -7.320000 -20.066400 -45.136300
N -7.262800 -23.182400 -42.412100
N -7.073600 -21.908400 -44.426400
C -7.017800 -23.286300 -40.967000
C -6.752300 -22.039800 -43.075800
H -6.635000 -22.475100 -40.672300
C -6.580000 -20.630800 -44.951500
H -6.433700 -24.014000 -40.793300
H -6.081700 -20.776800 -45.745300
O -6.057300 -21.214100 -42.493100
H -6.026400 -20.228600 -44.303100
15
Fragment
H -10.444300 -28.109200 -54.390200
O -10.304600 -27.473200 -53.631600
C -9.273600 -27.822700 -52.873400
O -8.786700 -28.948600 -52.856500
F -8.751900 -28.063100 -50.069600
C -8.730800 -26.696300 -52.038500
F -8.616100 -25.189400 -53.876500
C -8.440200 -26.893800 -50.676000
C -8.389500 -25.435900 -52.572300
C -7.849700 -25.886200 -49.906400
C -7.782100 -24.434400 -51.819000
F -7.609200 -26.127500 -48.595400
H -7.560500 -23.600200 -52.215500
C -7.512400 -24.658800 -50.466400
H -7.100200 -23.987600 -49.935500
36
Fragment
H -9.279000 -25.572800 -45.236000
H -9.176400 -24.386000 -47.303100
N -8.872300 -24.786400 -45.342400
C -8.801900 -24.095600 -46.496200
O -8.360400 -25.199700 -42.294900
C -8.221900 -24.036600 -44.384200
N -8.143600 -22.933600 -46.356000
C -7.988500 -24.234600 -42.991000
H -7.841000 -23.446200 -40.527400
C -7.782400 -22.894300 -45.046800
H -7.320000 -20.066400 -45.136300
N -7.262800 -23.182400 -42.412100
N -7.073600 -21.908400 -44.426400
C -7.017800 -23.286300 -40.967000
C -6.752300 -22.039800 -43.075800
H -6.635000 -22.475100 -40.672300
C -6.580000 -20.630800 -44.951500
H -6.433700 -24.014000 -40.793300
H -6.081700 -20.776800 -45.745300
O -6.057300 -21.214100 -42.493100
H -6.026400 -20.228600 -44.303100
H -10.444300 -28.109200 -54.390200
O -10.304600 -27.473200 -53.631600
C -9.273600 -27.822700 -52.873400
O -8.786700 -28.948600 -52.856500
F -8.751900 -28.063100 -50.069600
C -8.730800 -26.696300 -52.038500
F -8.616100 -25.189400 -53.876500
C -8.440200 -26.893800 -50.676000
C -8.389500 -25.435900 -52.572300
C -7.849700 -25.886200 -49.906400
C -7.782100 -24.434400 -51.819000
F -7.609200 -26.127500 -48.595400
H -7.560500 -23.600200 -52.215500
C -7.512400 -24.658800 -50.466400
H -7.100200 -23.987600 -49.935500
