15
Fragment
H -15.593000 -16.900600 -20.459700
F -15.225200 -17.210500 -17.973700
C -14.699200 -16.822100 -20.214900
C -14.294500 -16.943900 -18.914400
F -14.101100 -16.508100 -22.426200
C -13.721700 -16.579000 -21.133900
C -12.991100 -16.825900 -18.511000
H -12.748400 -16.903100 -17.616800
C -12.378200 -16.443300 -20.837000
C -12.062800 -16.588800 -19.488200
O -11.753600 -15.381400 -22.819000
C -11.326400 -16.185900 -21.864400
H -11.089100 -15.280300 -23.410700
F -10.783100 -16.450400 -19.111800
O -10.225300 -16.659500 -21.830400
21
Fragment
H -12.830400 -13.975500 -26.777300
H -12.197600 -14.085100 -25.347000
H -12.182100 -12.714300 -26.107300
C -12.120800 -13.667200 -26.207600
O -11.379400 -12.969100 -28.751900
N -10.828900 -14.014500 -26.805900
C -10.586700 -13.628300 -28.114500
N -9.942200 -15.162000 -24.834000
C -9.883100 -14.729000 -26.130100
H -9.863800 -14.026600 -30.617100
N -9.369600 -14.035500 -28.671100
H -9.178100 -12.694800 -30.154900
C -9.164200 -13.651900 -30.078100
C -8.783700 -15.801000 -24.650300
C -8.707300 -15.106600 -26.703200
H -8.543300 -16.210900 -23.851000
C -8.373000 -14.782300 -28.046600
H -8.315400 -13.984400 -30.379200
N -8.014900 -15.788600 -25.729200
O -7.340400 -15.089500 -28.629300
H -7.220200 -16.198300 -25.831000
36
Fragment
H -15.593000 -16.900600 -20.459700
F -15.225200 -17.210500 -17.973700
C -14.699200 -16.822100 -20.214900
C -14.294500 -16.943900 -18.914400
F -14.101100 -16.508100 -22.426200
C -13.721700 -16.579000 -21.133900
C -12.991100 -16.825900 -18.511000
H -12.748400 -16.903100 -17.616800
C -12.378200 -16.443300 -20.837000
C -12.062800 -16.588800 -19.488200
O -11.753600 -15.381400 -22.819000
C -11.326400 -16.185900 -21.864400
H -11.089100 -15.280300 -23.410700
F -10.783100 -16.450400 -19.111800
O -10.225300 -16.659500 -21.830400
H -12.830400 -13.975500 -26.777300
H -12.197600 -14.085100 -25.347000
H -12.182100 -12.714300 -26.107300
C -12.120800 -13.667200 -26.207600
O -11.379400 -12.969100 -28.751900
N -10.828900 -14.014500 -26.805900
C -10.586700 -13.628300 -28.114500
N -9.942200 -15.162000 -24.834000
C -9.883100 -14.729000 -26.130100
H -9.863800 -14.026600 -30.617100
N -9.369600 -14.035500 -28.671100
H -9.178100 -12.694800 -30.154900
C -9.164200 -13.651900 -30.078100
C -8.783700 -15.801000 -24.650300
C -8.707300 -15.106600 -26.703200
H -8.543300 -16.210900 -23.851000
C -8.373000 -14.782300 -28.046600
H -8.315400 -13.984400 -30.379200
N -8.014900 -15.788600 -25.729200
O -7.340400 -15.089500 -28.629300
H -7.220200 -16.198300 -25.831000
