15
Fragment
H -15.593000 -16.900600 -20.459700
F -15.225200 -17.210500 -17.973700
C -14.699200 -16.822100 -20.214900
C -14.294500 -16.943900 -18.914400
F -14.101100 -16.508100 -22.426200
C -13.721700 -16.579000 -21.133900
C -12.991100 -16.825900 -18.511000
H -12.748400 -16.903100 -17.616800
C -12.378200 -16.443300 -20.837000
C -12.062800 -16.588800 -19.488200
O -11.753600 -15.381400 -22.819000
C -11.326400 -16.185900 -21.864400
H -11.089100 -15.280300 -23.410700
F -10.783100 -16.450400 -19.111800
O -10.225300 -16.659500 -21.830400
15
Fragment
O -9.857700 -12.975900 -19.192900
F -9.299900 -13.185000 -21.911500
H -8.993900 -14.355100 -17.612700
C -8.756600 -13.449500 -19.159000
O -8.329400 -14.253900 -18.204400
C -8.020200 -13.046600 -21.535200
C -7.704700 -13.192000 -20.186400
H -7.334600 -12.732200 -23.406600
C -7.091900 -12.809500 -22.512400
C -6.361300 -13.056300 -19.889500
F -5.981900 -13.127300 -18.597100
C -5.788500 -12.691400 -22.109000
C -5.383700 -12.813300 -20.808400
F -4.857800 -12.424800 -23.049700
H -4.489900 -12.734800 -20.563600
30
Fragment
H -15.593000 -16.900600 -20.459700
F -15.225200 -17.210500 -17.973700
C -14.699200 -16.822100 -20.214900
C -14.294500 -16.943900 -18.914400
F -14.101100 -16.508100 -22.426200
C -13.721700 -16.579000 -21.133900
C -12.991100 -16.825900 -18.511000
H -12.748400 -16.903100 -17.616800
C -12.378200 -16.443300 -20.837000
C -12.062800 -16.588800 -19.488200
O -11.753600 -15.381400 -22.819000
C -11.326400 -16.185900 -21.864400
H -11.089100 -15.280300 -23.410700
F -10.783100 -16.450400 -19.111800
O -10.225300 -16.659500 -21.830400
O -9.857700 -12.975900 -19.192900
F -9.299900 -13.185000 -21.911500
H -8.993900 -14.355100 -17.612700
C -8.756600 -13.449500 -19.159000
O -8.329400 -14.253900 -18.204400
C -8.020200 -13.046600 -21.535200
C -7.704700 -13.192000 -20.186400
H -7.334600 -12.732200 -23.406600
C -7.091900 -12.809500 -22.512400
C -6.361300 -13.056300 -19.889500
F -5.981900 -13.127300 -18.597100
C -5.788500 -12.691400 -22.109000
C -5.383700 -12.813300 -20.808400
F -4.857800 -12.424800 -23.049700
H -4.489900 -12.734800 -20.563600
