15
Fragment
H -15.593000 -16.900600 -20.459700
F -15.225200 -17.210500 -17.973700
C -14.699200 -16.822100 -20.214900
C -14.294500 -16.943900 -18.914400
F -14.101100 -16.508100 -22.426200
C -13.721700 -16.579000 -21.133900
C -12.991100 -16.825900 -18.511000
H -12.748400 -16.903100 -17.616800
C -12.378200 -16.443300 -20.837000
C -12.062800 -16.588800 -19.488200
O -11.753600 -15.381400 -22.819000
C -11.326400 -16.185900 -21.864400
H -11.089100 -15.280300 -23.410700
F -10.783100 -16.450400 -19.111800
O -10.225300 -16.659500 -21.830400
21
Fragment
H -21.397900 -18.665400 -13.102900
H -20.765000 -18.775000 -11.672500
H -20.749500 -17.404200 -12.432800
C -20.688300 -18.357000 -12.533200
O -19.946900 -17.659000 -15.077500
N -19.396300 -18.704400 -13.131400
C -19.154100 -18.318200 -14.440100
N -18.509700 -19.851900 -11.159600
C -18.450500 -19.418900 -12.455700
H -18.431200 -18.716500 -16.942700
N -17.937000 -18.725300 -14.996600
H -17.745500 -17.384700 -16.480500
C -17.731700 -18.341800 -16.403600
C -17.351100 -20.490900 -10.975800
C -17.274700 -19.796400 -13.028700
H -17.110800 -20.900800 -10.176500
C -16.940500 -19.472200 -14.372100
H -16.882800 -18.674300 -16.704700
N -16.582400 -20.478500 -12.054700
O -15.907800 -19.779400 -14.954800
H -15.787700 -20.888200 -12.156600
36
Fragment
H -15.593000 -16.900600 -20.459700
F -15.225200 -17.210500 -17.973700
C -14.699200 -16.822100 -20.214900
C -14.294500 -16.943900 -18.914400
F -14.101100 -16.508100 -22.426200
C -13.721700 -16.579000 -21.133900
C -12.991100 -16.825900 -18.511000
H -12.748400 -16.903100 -17.616800
C -12.378200 -16.443300 -20.837000
C -12.062800 -16.588800 -19.488200
O -11.753600 -15.381400 -22.819000
C -11.326400 -16.185900 -21.864400
H -11.089100 -15.280300 -23.410700
F -10.783100 -16.450400 -19.111800
O -10.225300 -16.659500 -21.830400
H -21.397900 -18.665400 -13.102900
H -20.765000 -18.775000 -11.672500
H -20.749500 -17.404200 -12.432800
C -20.688300 -18.357000 -12.533200
O -19.946900 -17.659000 -15.077500
N -19.396300 -18.704400 -13.131400
C -19.154100 -18.318200 -14.440100
N -18.509700 -19.851900 -11.159600
C -18.450500 -19.418900 -12.455700
H -18.431200 -18.716500 -16.942700
N -17.937000 -18.725300 -14.996600
H -17.745500 -17.384700 -16.480500
C -17.731700 -18.341800 -16.403600
C -17.351100 -20.490900 -10.975800
C -17.274700 -19.796400 -13.028700
H -17.110800 -20.900800 -10.176500
C -16.940500 -19.472200 -14.372100
H -16.882800 -18.674300 -16.704700
N -16.582400 -20.478500 -12.054700
O -15.907800 -19.779400 -14.954800
H -15.787700 -20.888200 -12.156600
