15
Fragment
H -15.593000 -16.900600 -20.459700
F -15.225200 -17.210500 -17.973700
C -14.699200 -16.822100 -20.214900
C -14.294500 -16.943900 -18.914400
F -14.101100 -16.508100 -22.426200
C -13.721700 -16.579000 -21.133900
C -12.991100 -16.825900 -18.511000
H -12.748400 -16.903100 -17.616800
C -12.378200 -16.443300 -20.837000
C -12.062800 -16.588800 -19.488200
O -11.753600 -15.381400 -22.819000
C -11.326400 -16.185900 -21.864400
H -11.089100 -15.280300 -23.410700
F -10.783100 -16.450400 -19.111800
O -10.225300 -16.659500 -21.830400
15
Fragment
O -11.306700 -20.260100 -19.192900
F -10.748900 -20.469200 -21.911500
H -10.442900 -21.639300 -17.612700
C -10.205600 -20.733700 -19.159000
O -9.778400 -21.538100 -18.204400
C -9.469200 -20.330800 -21.535200
C -9.153800 -20.476200 -20.186400
H -8.783600 -20.016400 -23.406600
C -8.540900 -20.093700 -22.512400
C -7.810300 -20.340500 -19.889500
F -7.430900 -20.411400 -18.597100
C -7.237500 -19.975600 -22.109000
C -6.832800 -20.097400 -20.808400
F -6.306800 -19.709000 -23.049700
H -5.939000 -20.019000 -20.563600
30
Fragment
H -15.593000 -16.900600 -20.459700
F -15.225200 -17.210500 -17.973700
C -14.699200 -16.822100 -20.214900
C -14.294500 -16.943900 -18.914400
F -14.101100 -16.508100 -22.426200
C -13.721700 -16.579000 -21.133900
C -12.991100 -16.825900 -18.511000
H -12.748400 -16.903100 -17.616800
C -12.378200 -16.443300 -20.837000
C -12.062800 -16.588800 -19.488200
O -11.753600 -15.381400 -22.819000
C -11.326400 -16.185900 -21.864400
H -11.089100 -15.280300 -23.410700
F -10.783100 -16.450400 -19.111800
O -10.225300 -16.659500 -21.830400
O -11.306700 -20.260100 -19.192900
F -10.748900 -20.469200 -21.911500
H -10.442900 -21.639300 -17.612700
C -10.205600 -20.733700 -19.159000
O -9.778400 -21.538100 -18.204400
C -9.469200 -20.330800 -21.535200
C -9.153800 -20.476200 -20.186400
H -8.783600 -20.016400 -23.406600
C -8.540900 -20.093700 -22.512400
C -7.810300 -20.340500 -19.889500
F -7.430900 -20.411400 -18.597100
C -7.237500 -19.975600 -22.109000
C -6.832800 -20.097400 -20.808400
F -6.306800 -19.709000 -23.049700
H -5.939000 -20.019000 -20.563600
