15
Fragment
H -15.593000 -16.900600 -20.459700
F -15.225200 -17.210500 -17.973700
C -14.699200 -16.822100 -20.214900
C -14.294500 -16.943900 -18.914400
F -14.101100 -16.508100 -22.426200
C -13.721700 -16.579000 -21.133900
C -12.991100 -16.825900 -18.511000
H -12.748400 -16.903100 -17.616800
C -12.378200 -16.443300 -20.837000
C -12.062800 -16.588800 -19.488200
O -11.753600 -15.381400 -22.819000
C -11.326400 -16.185900 -21.864400
H -11.089100 -15.280300 -23.410700
F -10.783100 -16.450400 -19.111800
O -10.225300 -16.659500 -21.830400
21
Fragment
H -20.248600 -13.975500 -26.777300
H -19.615800 -14.085100 -25.347000
H -19.600300 -12.714300 -26.107300
C -19.539000 -13.667200 -26.207600
O -18.797600 -12.969100 -28.751900
N -18.247100 -14.014500 -26.805900
C -18.004900 -13.628300 -28.114500
N -17.360400 -15.162000 -24.834000
C -17.301300 -14.729000 -26.130100
H -17.282000 -14.026600 -30.617100
N -16.787800 -14.035500 -28.671100
H -16.596300 -12.694800 -30.154900
C -16.582400 -13.651900 -30.078100
C -16.201900 -15.801000 -24.650300
C -16.125500 -15.106600 -26.703200
H -15.961500 -16.210900 -23.851000
C -15.791200 -14.782300 -28.046600
H -15.733600 -13.984400 -30.379200
N -15.433100 -15.788600 -25.729200
O -14.758600 -15.089500 -28.629300
H -14.638400 -16.198300 -25.831000
36
Fragment
H -15.593000 -16.900600 -20.459700
F -15.225200 -17.210500 -17.973700
C -14.699200 -16.822100 -20.214900
C -14.294500 -16.943900 -18.914400
F -14.101100 -16.508100 -22.426200
C -13.721700 -16.579000 -21.133900
C -12.991100 -16.825900 -18.511000
H -12.748400 -16.903100 -17.616800
C -12.378200 -16.443300 -20.837000
C -12.062800 -16.588800 -19.488200
O -11.753600 -15.381400 -22.819000
C -11.326400 -16.185900 -21.864400
H -11.089100 -15.280300 -23.410700
F -10.783100 -16.450400 -19.111800
O -10.225300 -16.659500 -21.830400
H -20.248600 -13.975500 -26.777300
H -19.615800 -14.085100 -25.347000
H -19.600300 -12.714300 -26.107300
C -19.539000 -13.667200 -26.207600
O -18.797600 -12.969100 -28.751900
N -18.247100 -14.014500 -26.805900
C -18.004900 -13.628300 -28.114500
N -17.360400 -15.162000 -24.834000
C -17.301300 -14.729000 -26.130100
H -17.282000 -14.026600 -30.617100
N -16.787800 -14.035500 -28.671100
H -16.596300 -12.694800 -30.154900
C -16.582400 -13.651900 -30.078100
C -16.201900 -15.801000 -24.650300
C -16.125500 -15.106600 -26.703200
H -15.961500 -16.210900 -23.851000
C -15.791200 -14.782300 -28.046600
H -15.733600 -13.984400 -30.379200
N -15.433100 -15.788600 -25.729200
O -14.758600 -15.089500 -28.629300
H -14.638400 -16.198300 -25.831000
