15
Fragment
F -5.812700 -34.572400 -7.337000
H -5.671800 -32.376000 -8.647100
C -5.555000 -34.420800 -8.662700
C -5.512800 -33.129600 -9.191500
H -5.409800 -36.419000 -9.058000
C -5.355600 -35.559700 -9.435000
C -5.239800 -32.981800 -10.559800
H -5.206500 -32.116900 -10.931900
C -5.085000 -35.394100 -10.805800
C -5.017200 -34.104400 -11.364300
O -4.972200 -37.753400 -11.150500
C -4.912200 -36.620500 -11.643400
H -4.832900 -34.010400 -12.280100
O -4.708200 -36.370700 -12.926500
H -4.660500 -37.092500 -13.409700
21
Fragment
H -7.780300 -26.866600 -3.358800
H -7.723500 -31.521700 -5.181800
O -7.124500 -29.622900 -3.550800
H -6.943900 -31.750400 -6.496500
C -6.902200 -31.374500 -5.631600
C -6.864600 -26.939500 -3.597200
C -6.856800 -29.134100 -4.651800
N -6.713900 -27.742900 -4.815400
N -6.688700 -29.933800 -5.770000
H -6.515200 -26.078200 -3.761900
C -6.461900 -27.075800 -6.028200
O -6.420700 -25.827200 -6.072200
H -6.385100 -27.350100 -2.892600
C -6.370100 -29.360900 -6.971800
C -6.266800 -27.977400 -7.109000
H -6.190400 -31.761300 -5.135400
N -6.142800 -29.989700 -8.152500
N -5.967900 -27.767700 -8.434600
C -5.897500 -28.986300 -9.013800
H -5.850100 -26.966500 -8.813400
H -5.681200 -29.108100 -9.920400
36
Fragment
F -5.812700 -34.572400 -7.337000
H -5.671800 -32.376000 -8.647100
C -5.555000 -34.420800 -8.662700
C -5.512800 -33.129600 -9.191500
H -5.409800 -36.419000 -9.058000
C -5.355600 -35.559700 -9.435000
C -5.239800 -32.981800 -10.559800
H -5.206500 -32.116900 -10.931900
C -5.085000 -35.394100 -10.805800
C -5.017200 -34.104400 -11.364300
O -4.972200 -37.753400 -11.150500
C -4.912200 -36.620500 -11.643400
H -4.832900 -34.010400 -12.280100
O -4.708200 -36.370700 -12.926500
H -4.660500 -37.092500 -13.409700
H -7.780300 -26.866600 -3.358800
H -7.723500 -31.521700 -5.181800
O -7.124500 -29.622900 -3.550800
H -6.943900 -31.750400 -6.496500
C -6.902200 -31.374500 -5.631600
C -6.864600 -26.939500 -3.597200
C -6.856800 -29.134100 -4.651800
N -6.713900 -27.742900 -4.815400
N -6.688700 -29.933800 -5.770000
H -6.515200 -26.078200 -3.761900
C -6.461900 -27.075800 -6.028200
O -6.420700 -25.827200 -6.072200
H -6.385100 -27.350100 -2.892600
C -6.370100 -29.360900 -6.971800
C -6.266800 -27.977400 -7.109000
H -6.190400 -31.761300 -5.135400
N -6.142800 -29.989700 -8.152500
N -5.967900 -27.767700 -8.434600
C -5.897500 -28.986300 -9.013800
H -5.850100 -26.966500 -8.813400
H -5.681200 -29.108100 -9.920400
