15
Fragment
F -5.812700 -34.572400 -7.337000
H -5.671800 -32.376000 -8.647100
C -5.555000 -34.420800 -8.662700
C -5.512800 -33.129600 -9.191500
H -5.409800 -36.419000 -9.058000
C -5.355600 -35.559700 -9.435000
C -5.239800 -32.981800 -10.559800
H -5.206500 -32.116900 -10.931900
C -5.085000 -35.394100 -10.805800
C -5.017200 -34.104400 -11.364300
O -4.972200 -37.753400 -11.150500
C -4.912200 -36.620500 -11.643400
H -4.832900 -34.010400 -12.280100
O -4.708200 -36.370700 -12.926500
H -4.660500 -37.092500 -13.409700
21
Fragment
H -5.612400 -35.765900 0.775000
H -5.555700 -31.110800 -1.048000
O -4.956600 -33.009600 0.582900
H -4.776100 -30.882100 -2.362700
C -4.734300 -31.258000 -1.497800
C -4.696800 -35.693000 0.536600
C -4.689000 -33.498400 -0.518000
N -4.546100 -34.889600 -0.681700
N -4.520900 -32.698700 -1.636200
H -4.347400 -36.554300 0.371900
C -4.294000 -35.556700 -1.894400
O -4.252800 -36.805300 -1.938400
H -4.217300 -35.282400 1.241200
C -4.202200 -33.271600 -2.838000
C -4.099000 -34.655100 -2.975200
H -4.022600 -30.871200 -1.001600
N -3.975000 -32.642800 -4.018700
N -3.800000 -34.864800 -4.300900
C -3.729700 -33.646200 -4.880000
H -3.682300 -35.666000 -4.679600
H -3.513400 -33.524400 -5.786600
36
Fragment
F -5.812700 -34.572400 -7.337000
H -5.671800 -32.376000 -8.647100
C -5.555000 -34.420800 -8.662700
C -5.512800 -33.129600 -9.191500
H -5.409800 -36.419000 -9.058000
C -5.355600 -35.559700 -9.435000
C -5.239800 -32.981800 -10.559800
H -5.206500 -32.116900 -10.931900
C -5.085000 -35.394100 -10.805800
C -5.017200 -34.104400 -11.364300
O -4.972200 -37.753400 -11.150500
C -4.912200 -36.620500 -11.643400
H -4.832900 -34.010400 -12.280100
O -4.708200 -36.370700 -12.926500
H -4.660500 -37.092500 -13.409700
H -5.612400 -35.765900 0.775000
H -5.555700 -31.110800 -1.048000
O -4.956600 -33.009600 0.582900
H -4.776100 -30.882100 -2.362700
C -4.734300 -31.258000 -1.497800
C -4.696800 -35.693000 0.536600
C -4.689000 -33.498400 -0.518000
N -4.546100 -34.889600 -0.681700
N -4.520900 -32.698700 -1.636200
H -4.347400 -36.554300 0.371900
C -4.294000 -35.556700 -1.894400
O -4.252800 -36.805300 -1.938400
H -4.217300 -35.282400 1.241200
C -4.202200 -33.271600 -2.838000
C -4.099000 -34.655100 -2.975200
H -4.022600 -30.871200 -1.001600
N -3.975000 -32.642800 -4.018700
N -3.800000 -34.864800 -4.300900
C -3.729700 -33.646200 -4.880000
H -3.682300 -35.666000 -4.679600
H -3.513400 -33.524400 -5.786600
