21
Fragment
O -8.828200 -7.990700 -17.480200
H -8.805600 -9.468400 -19.447900
H -7.997600 -8.384200 -20.184300
C -7.938200 -9.211100 -19.724100
C -7.664400 -8.432800 -17.419900
H -7.635000 -7.473700 -14.660400
H -7.553200 -9.862400 -20.291100
N -7.089100 -9.074600 -18.529000
N -6.921900 -7.883100 -15.018100
C -6.781700 -8.380400 -16.295800
C -5.774900 -9.593800 -18.617600
C -5.756800 -8.101300 -14.380500
H -5.598900 -7.855700 -13.489900
C -5.487400 -8.891300 -16.352400
O -5.358600 -10.127000 -19.640400
N -4.976100 -9.473700 -17.475300
N -4.851600 -8.715100 -15.162900
C -3.628600 -10.044000 -17.465900
H -3.562300 -10.687500 -16.769700
H -3.481000 -10.456600 -18.302100
H -2.980300 -9.365300 -17.323700
15
Fragment
F -12.587900 -3.201100 -19.912100
F -11.535800 -2.238900 -17.577600
C -11.406000 -3.613700 -19.495400
F -11.152700 -4.960700 -21.427400
C -10.880900 -3.147100 -18.298100
C -10.671900 -4.532100 -20.254400
C -9.616700 -3.570100 -17.876100
C -9.426100 -4.977400 -19.792300
F -9.156500 -3.032500 -16.739100
C -8.845700 -4.482100 -18.624600
F -8.777400 -5.848000 -20.564500
C -7.453800 -4.903800 -18.213300
O -7.278600 -4.886500 -16.893700
O -6.590100 -5.216700 -19.019700
H -6.426000 -5.059600 -16.714300
36
Fragment
O -8.828200 -7.990700 -17.480200
H -8.805600 -9.468400 -19.447900
H -7.997600 -8.384200 -20.184300
C -7.938200 -9.211100 -19.724100
C -7.664400 -8.432800 -17.419900
H -7.635000 -7.473700 -14.660400
H -7.553200 -9.862400 -20.291100
N -7.089100 -9.074600 -18.529000
N -6.921900 -7.883100 -15.018100
C -6.781700 -8.380400 -16.295800
C -5.774900 -9.593800 -18.617600
C -5.756800 -8.101300 -14.380500
H -5.598900 -7.855700 -13.489900
C -5.487400 -8.891300 -16.352400
O -5.358600 -10.127000 -19.640400
N -4.976100 -9.473700 -17.475300
N -4.851600 -8.715100 -15.162900
C -3.628600 -10.044000 -17.465900
H -3.562300 -10.687500 -16.769700
H -3.481000 -10.456600 -18.302100
H -2.980300 -9.365300 -17.323700
F -12.587900 -3.201100 -19.912100
F -11.535800 -2.238900 -17.577600
C -11.406000 -3.613700 -19.495400
F -11.152700 -4.960700 -21.427400
C -10.880900 -3.147100 -18.298100
C -10.671900 -4.532100 -20.254400
C -9.616700 -3.570100 -17.876100
C -9.426100 -4.977400 -19.792300
F -9.156500 -3.032500 -16.739100
C -8.845700 -4.482100 -18.624600
F -8.777400 -5.848000 -20.564500
C -7.453800 -4.903800 -18.213300
O -7.278600 -4.886500 -16.893700
O -6.590100 -5.216700 -19.019700
H -6.426000 -5.059600 -16.714300
