21
Fragment
O -8.828200 -7.990700 -17.480200
H -8.805600 -9.468400 -19.447900
H -7.997600 -8.384200 -20.184300
C -7.938200 -9.211100 -19.724100
C -7.664400 -8.432800 -17.419900
H -7.635000 -7.473700 -14.660400
H -7.553200 -9.862400 -20.291100
N -7.089100 -9.074600 -18.529000
N -6.921900 -7.883100 -15.018100
C -6.781700 -8.380400 -16.295800
C -5.774900 -9.593800 -18.617600
C -5.756800 -8.101300 -14.380500
H -5.598900 -7.855700 -13.489900
C -5.487400 -8.891300 -16.352400
O -5.358600 -10.127000 -19.640400
N -4.976100 -9.473700 -17.475300
N -4.851600 -8.715100 -15.162900
C -3.628600 -10.044000 -17.465900
H -3.562300 -10.687500 -16.769700
H -3.481000 -10.456600 -18.302100
H -2.980300 -9.365300 -17.323700
15
Fragment
F -2.071300 -12.369500 -19.912100
F -1.019200 -11.407300 -17.577600
C -0.889400 -12.782000 -19.495400
F -0.636100 -14.129100 -21.427400
C -0.364200 -12.315500 -18.298100
C -0.155200 -13.700400 -20.254400
C 0.900000 -12.738400 -17.876100
C 1.090600 -14.145800 -19.792300
F 1.360100 -12.200900 -16.739100
C 1.670900 -13.650400 -18.624600
F 1.739200 -15.016400 -20.564500
C 3.062900 -14.072100 -18.213300
O 3.238000 -14.054800 -16.893700
O 3.926600 -14.385000 -19.019700
H 4.090600 -14.227900 -16.714300
36
Fragment
O -8.828200 -7.990700 -17.480200
H -8.805600 -9.468400 -19.447900
H -7.997600 -8.384200 -20.184300
C -7.938200 -9.211100 -19.724100
C -7.664400 -8.432800 -17.419900
H -7.635000 -7.473700 -14.660400
H -7.553200 -9.862400 -20.291100
N -7.089100 -9.074600 -18.529000
N -6.921900 -7.883100 -15.018100
C -6.781700 -8.380400 -16.295800
C -5.774900 -9.593800 -18.617600
C -5.756800 -8.101300 -14.380500
H -5.598900 -7.855700 -13.489900
C -5.487400 -8.891300 -16.352400
O -5.358600 -10.127000 -19.640400
N -4.976100 -9.473700 -17.475300
N -4.851600 -8.715100 -15.162900
C -3.628600 -10.044000 -17.465900
H -3.562300 -10.687500 -16.769700
H -3.481000 -10.456600 -18.302100
H -2.980300 -9.365300 -17.323700
F -2.071300 -12.369500 -19.912100
F -1.019200 -11.407300 -17.577600
C -0.889400 -12.782000 -19.495400
F -0.636100 -14.129100 -21.427400
C -0.364200 -12.315500 -18.298100
C -0.155200 -13.700400 -20.254400
C 0.900000 -12.738400 -17.876100
C 1.090600 -14.145800 -19.792300
F 1.360100 -12.200900 -16.739100
C 1.670900 -13.650400 -18.624600
F 1.739200 -15.016400 -20.564500
C 3.062900 -14.072100 -18.213300
O 3.238000 -14.054800 -16.893700
O 3.926600 -14.385000 -19.019700
H 4.090600 -14.227900 -16.714300
