15
Fragment
F -5.812700 -34.572400 -7.337000
H -5.671800 -32.376000 -8.647100
C -5.555000 -34.420800 -8.662700
C -5.512800 -33.129600 -9.191500
H -5.409800 -36.419000 -9.058000
C -5.355600 -35.559700 -9.435000
C -5.239800 -32.981800 -10.559800
H -5.206500 -32.116900 -10.931900
C -5.085000 -35.394100 -10.805800
C -5.017200 -34.104400 -11.364300
O -4.972200 -37.753400 -11.150500
C -4.912200 -36.620500 -11.643400
H -4.832900 -34.010400 -12.280100
O -4.708200 -36.370700 -12.926500
H -4.660500 -37.092500 -13.409700
15
Fragment
F -3.191700 -34.572400 -15.604500
H -3.050900 -32.376000 -16.914700
C -2.934000 -34.420800 -16.930200
C -2.891900 -33.129600 -17.459100
H -2.788900 -36.419000 -17.325600
C -2.734600 -35.559700 -17.702600
C -2.618900 -32.981800 -18.827400
H -2.585600 -32.116900 -19.199500
C -2.464000 -35.394100 -19.073300
C -2.396200 -34.104400 -19.631800
O -2.351300 -37.753400 -19.418000
C -2.291200 -36.620500 -19.910900
H -2.212000 -34.010400 -20.547700
O -2.087300 -36.370700 -21.194000
H -2.039500 -37.092500 -21.677300
30
Fragment
F -5.812700 -34.572400 -7.337000
H -5.671800 -32.376000 -8.647100
C -5.555000 -34.420800 -8.662700
C -5.512800 -33.129600 -9.191500
H -5.409800 -36.419000 -9.058000
C -5.355600 -35.559700 -9.435000
C -5.239800 -32.981800 -10.559800
H -5.206500 -32.116900 -10.931900
C -5.085000 -35.394100 -10.805800
C -5.017200 -34.104400 -11.364300
O -4.972200 -37.753400 -11.150500
C -4.912200 -36.620500 -11.643400
H -4.832900 -34.010400 -12.280100
O -4.708200 -36.370700 -12.926500
H -4.660500 -37.092500 -13.409700
F -3.191700 -34.572400 -15.604500
H -3.050900 -32.376000 -16.914700
C -2.934000 -34.420800 -16.930200
C -2.891900 -33.129600 -17.459100
H -2.788900 -36.419000 -17.325600
C -2.734600 -35.559700 -17.702600
C -2.618900 -32.981800 -18.827400
H -2.585600 -32.116900 -19.199500
C -2.464000 -35.394100 -19.073300
C -2.396200 -34.104400 -19.631800
O -2.351300 -37.753400 -19.418000
C -2.291200 -36.620500 -19.910900
H -2.212000 -34.010400 -20.547700
O -2.087300 -36.370700 -21.194000
H -2.039500 -37.092500 -21.677300
