21
Fragment
O -8.828200 -7.990700 -17.480200
H -8.805600 -9.468400 -19.447900
H -7.997600 -8.384200 -20.184300
C -7.938200 -9.211100 -19.724100
C -7.664400 -8.432800 -17.419900
H -7.635000 -7.473700 -14.660400
H -7.553200 -9.862400 -20.291100
N -7.089100 -9.074600 -18.529000
N -6.921900 -7.883100 -15.018100
C -6.781700 -8.380400 -16.295800
C -5.774900 -9.593800 -18.617600
C -5.756800 -8.101300 -14.380500
H -5.598900 -7.855700 -13.489900
C -5.487400 -8.891300 -16.352400
O -5.358600 -10.127000 -19.640400
N -4.976100 -9.473700 -17.475300
N -4.851600 -8.715100 -15.162900
C -3.628600 -10.044000 -17.465900
H -3.562300 -10.687500 -16.769700
H -3.481000 -10.456600 -18.302100
H -2.980300 -9.365300 -17.323700
21
Fragment
H -9.079900 -12.498500 -24.488200
H -8.579200 -11.407200 -23.509800
H -8.497900 -11.176300 -25.042200
C -8.431600 -11.819800 -24.346000
N -7.208600 -13.148700 -26.649000
N -7.084100 -12.390100 -24.336600
O -6.701600 -11.736800 -22.171500
C -6.572800 -12.972500 -25.459500
H -6.461300 -14.008100 -28.322000
C -6.303400 -13.762500 -27.431400
C -6.285300 -12.270000 -23.194300
C -5.278500 -13.483400 -25.516100
N -5.138300 -13.980700 -26.793800
N -4.971100 -12.789200 -23.283000
H -4.507000 -12.001400 -21.520800
H -4.425200 -14.390100 -27.151500
C -4.395800 -13.431000 -24.392000
C -4.122000 -12.652700 -22.087800
H -4.062600 -13.479600 -21.627600
H -3.254600 -12.395400 -22.364000
O -3.232000 -13.873100 -24.331700
42
Fragment
O -8.828200 -7.990700 -17.480200
H -8.805600 -9.468400 -19.447900
H -7.997600 -8.384200 -20.184300
C -7.938200 -9.211100 -19.724100
C -7.664400 -8.432800 -17.419900
H -7.635000 -7.473700 -14.660400
H -7.553200 -9.862400 -20.291100
N -7.089100 -9.074600 -18.529000
N -6.921900 -7.883100 -15.018100
C -6.781700 -8.380400 -16.295800
C -5.774900 -9.593800 -18.617600
C -5.756800 -8.101300 -14.380500
H -5.598900 -7.855700 -13.489900
C -5.487400 -8.891300 -16.352400
O -5.358600 -10.127000 -19.640400
N -4.976100 -9.473700 -17.475300
N -4.851600 -8.715100 -15.162900
C -3.628600 -10.044000 -17.465900
H -3.562300 -10.687500 -16.769700
H -3.481000 -10.456600 -18.302100
H -2.980300 -9.365300 -17.323700
H -9.079900 -12.498500 -24.488200
H -8.579200 -11.407200 -23.509800
H -8.497900 -11.176300 -25.042200
C -8.431600 -11.819800 -24.346000
N -7.208600 -13.148700 -26.649000
N -7.084100 -12.390100 -24.336600
O -6.701600 -11.736800 -22.171500
C -6.572800 -12.972500 -25.459500
H -6.461300 -14.008100 -28.322000
C -6.303400 -13.762500 -27.431400
C -6.285300 -12.270000 -23.194300
C -5.278500 -13.483400 -25.516100
N -5.138300 -13.980700 -26.793800
N -4.971100 -12.789200 -23.283000
H -4.507000 -12.001400 -21.520800
H -4.425200 -14.390100 -27.151500
C -4.395800 -13.431000 -24.392000
C -4.122000 -12.652700 -22.087800
H -4.062600 -13.479600 -21.627600
H -3.254600 -12.395400 -22.364000
O -3.232000 -13.873100 -24.331700
