15
Fragment
F -5.812700 -34.572400 -7.337000
H -5.671800 -32.376000 -8.647100
C -5.555000 -34.420800 -8.662700
C -5.512800 -33.129600 -9.191500
H -5.409800 -36.419000 -9.058000
C -5.355600 -35.559700 -9.435000
C -5.239800 -32.981800 -10.559800
H -5.206500 -32.116900 -10.931900
C -5.085000 -35.394100 -10.805800
C -5.017200 -34.104400 -11.364300
O -4.972200 -37.753400 -11.150500
C -4.912200 -36.620500 -11.643400
H -4.832900 -34.010400 -12.280100
O -4.708200 -36.370700 -12.926500
H -4.660500 -37.092500 -13.409700
21
Fragment
H -2.991500 -35.765900 -7.492600
H -2.934800 -31.110800 -9.315600
O -2.335700 -33.009600 -7.684600
H -2.155100 -30.882100 -10.630300
C -2.113400 -31.258000 -9.765400
C -2.075800 -35.693000 -7.731000
C -2.068000 -33.498400 -8.785600
N -1.925100 -34.889600 -8.949200
N -1.899900 -32.698700 -9.903800
H -1.726400 -36.554300 -7.895700
C -1.673100 -35.556700 -10.162000
O -1.631900 -36.805300 -10.206000
H -1.596300 -35.282400 -7.026300
C -1.581300 -33.271600 -11.105600
C -1.478000 -34.655100 -11.242800
H -1.401600 -30.871200 -9.269200
N -1.354000 -32.642800 -12.286200
N -1.179100 -34.864800 -12.568400
C -1.108800 -33.646200 -13.147600
H -1.061300 -35.666000 -12.947200
H -0.892400 -33.524400 -14.054200
36
Fragment
F -5.812700 -34.572400 -7.337000
H -5.671800 -32.376000 -8.647100
C -5.555000 -34.420800 -8.662700
C -5.512800 -33.129600 -9.191500
H -5.409800 -36.419000 -9.058000
C -5.355600 -35.559700 -9.435000
C -5.239800 -32.981800 -10.559800
H -5.206500 -32.116900 -10.931900
C -5.085000 -35.394100 -10.805800
C -5.017200 -34.104400 -11.364300
O -4.972200 -37.753400 -11.150500
C -4.912200 -36.620500 -11.643400
H -4.832900 -34.010400 -12.280100
O -4.708200 -36.370700 -12.926500
H -4.660500 -37.092500 -13.409700
H -2.991500 -35.765900 -7.492600
H -2.934800 -31.110800 -9.315600
O -2.335700 -33.009600 -7.684600
H -2.155100 -30.882100 -10.630300
C -2.113400 -31.258000 -9.765400
C -2.075800 -35.693000 -7.731000
C -2.068000 -33.498400 -8.785600
N -1.925100 -34.889600 -8.949200
N -1.899900 -32.698700 -9.903800
H -1.726400 -36.554300 -7.895700
C -1.673100 -35.556700 -10.162000
O -1.631900 -36.805300 -10.206000
H -1.596300 -35.282400 -7.026300
C -1.581300 -33.271600 -11.105600
C -1.478000 -34.655100 -11.242800
H -1.401600 -30.871200 -9.269200
N -1.354000 -32.642800 -12.286200
N -1.179100 -34.864800 -12.568400
C -1.108800 -33.646200 -13.147600
H -1.061300 -35.666000 -12.947200
H -0.892400 -33.524400 -14.054200
