21
Fragment
H -3.923500 -15.132200 -39.608200
H -3.482100 -17.485600 -44.280800
O -3.459500 -15.512500 -42.701700
H -3.177600 -14.271800 -40.655900
C -3.087700 -14.963400 -40.019800
C -2.827100 -16.355400 -42.042400
N -2.604300 -16.172000 -40.692100
C -2.569700 -17.635200 -44.086600
H -2.467200 -14.721500 -39.347800
N -2.337800 -17.520400 -42.640800
H -2.313100 -18.503500 -44.354100
H -2.049400 -16.987700 -44.545600
C -1.957500 -17.149200 -39.980600
N -1.693800 -17.141600 -38.651000
C -1.638600 -18.562800 -41.984800
C -1.482200 -18.308600 -40.591400
O -1.237300 -19.554100 -42.618100
C -1.054500 -18.302200 -38.445200
N -0.906200 -19.034800 -39.571800
H -0.732000 -18.588100 -37.613200
H -0.483500 -19.814000 -39.639100
15
Fragment
H -4.931800 -12.544700 -38.379300
O -4.851200 -13.161200 -37.796600
H -4.664600 -15.356200 -36.817100
C -4.237000 -15.106200 -36.018200
C -4.211900 -12.705700 -36.710600
F -4.199400 -17.376100 -35.357700
C -3.909500 -13.770500 -35.720800
C -3.902200 -16.081300 -35.081600
O -3.891600 -11.532900 -36.560800
C -3.278600 -13.433400 -34.509200
C -3.268900 -15.801300 -33.870600
H -3.058800 -12.540900 -34.317700
H -3.037600 -16.487900 -33.271400
C -2.980400 -14.458200 -33.617100
F -2.369900 -14.146200 -32.445200
36
Fragment
H -3.923500 -15.132200 -39.608200
H -3.482100 -17.485600 -44.280800
O -3.459500 -15.512500 -42.701700
H -3.177600 -14.271800 -40.655900
C -3.087700 -14.963400 -40.019800
C -2.827100 -16.355400 -42.042400
N -2.604300 -16.172000 -40.692100
C -2.569700 -17.635200 -44.086600
H -2.467200 -14.721500 -39.347800
N -2.337800 -17.520400 -42.640800
H -2.313100 -18.503500 -44.354100
H -2.049400 -16.987700 -44.545600
C -1.957500 -17.149200 -39.980600
N -1.693800 -17.141600 -38.651000
C -1.638600 -18.562800 -41.984800
C -1.482200 -18.308600 -40.591400
O -1.237300 -19.554100 -42.618100
C -1.054500 -18.302200 -38.445200
N -0.906200 -19.034800 -39.571800
H -0.732000 -18.588100 -37.613200
H -0.483500 -19.814000 -39.639100
H -4.931800 -12.544700 -38.379300
O -4.851200 -13.161200 -37.796600
H -4.664600 -15.356200 -36.817100
C -4.237000 -15.106200 -36.018200
C -4.211900 -12.705700 -36.710600
F -4.199400 -17.376100 -35.357700
C -3.909500 -13.770500 -35.720800
C -3.902200 -16.081300 -35.081600
O -3.891600 -11.532900 -36.560800
C -3.278600 -13.433400 -34.509200
C -3.268900 -15.801300 -33.870600
H -3.058800 -12.540900 -34.317700
H -3.037600 -16.487900 -33.271400
C -2.980400 -14.458200 -33.617100
F -2.369900 -14.146200 -32.445200
