21
Fragment
H -3.106100 -21.645600 -46.538100
H -2.960400 -20.178900 -47.162400
C -2.479800 -20.916700 -46.732400
O -2.410500 -22.429000 -44.470600
N -1.868300 -20.440000 -45.470400
C -1.862100 -21.340500 -44.393000
H -1.777400 -21.243400 -47.332900
H -1.689000 -22.641100 -42.280800
H -1.434000 -21.412900 -41.285000
O -1.425300 -18.430600 -46.475700
C -1.344400 -19.153700 -45.470700
N -1.228800 -20.927000 -43.229400
C -1.129000 -21.856500 -42.105100
C -0.754200 -18.801200 -44.229500
C -0.682500 -19.669900 -43.176100
H -0.196800 -22.138000 -41.994500
N -0.116500 -17.655100 -43.790900
N -0.057400 -19.111500 -42.114200
H 0.005100 -16.914900 -44.251100
C 0.279300 -17.883600 -42.541400
H 0.747500 -17.249700 -42.009700
15
Fragment
H 0.296300 -19.732500 -40.432300
O 0.482600 -20.129500 -39.716900
H 0.867400 -21.823900 -38.127000
C 1.166100 -19.310900 -38.920300
C 1.240500 -21.315500 -37.416800
H 1.390500 -22.881400 -36.126200
C 1.468800 -19.949100 -37.608700
O 1.503200 -18.204500 -39.245200
C 1.539800 -21.947700 -36.231300
C 1.999000 -19.246900 -36.550200
C 2.052800 -21.209400 -35.213000
F 2.263900 -17.930800 -36.641800
C 2.289900 -19.860800 -35.357000
F 2.379300 -21.778800 -34.032900
F 2.812200 -19.148600 -34.343800
36
Fragment
H -3.106100 -21.645600 -46.538100
H -2.960400 -20.178900 -47.162400
C -2.479800 -20.916700 -46.732400
O -2.410500 -22.429000 -44.470600
N -1.868300 -20.440000 -45.470400
C -1.862100 -21.340500 -44.393000
H -1.777400 -21.243400 -47.332900
H -1.689000 -22.641100 -42.280800
H -1.434000 -21.412900 -41.285000
O -1.425300 -18.430600 -46.475700
C -1.344400 -19.153700 -45.470700
N -1.228800 -20.927000 -43.229400
C -1.129000 -21.856500 -42.105100
C -0.754200 -18.801200 -44.229500
C -0.682500 -19.669900 -43.176100
H -0.196800 -22.138000 -41.994500
N -0.116500 -17.655100 -43.790900
N -0.057400 -19.111500 -42.114200
H 0.005100 -16.914900 -44.251100
C 0.279300 -17.883600 -42.541400
H 0.747500 -17.249700 -42.009700
H 0.296300 -19.732500 -40.432300
O 0.482600 -20.129500 -39.716900
H 0.867400 -21.823900 -38.127000
C 1.166100 -19.310900 -38.920300
C 1.240500 -21.315500 -37.416800
H 1.390500 -22.881400 -36.126200
C 1.468800 -19.949100 -37.608700
O 1.503200 -18.204500 -39.245200
C 1.539800 -21.947700 -36.231300
C 1.999000 -19.246900 -36.550200
C 2.052800 -21.209400 -35.213000
F 2.263900 -17.930800 -36.641800
C 2.289900 -19.860800 -35.357000
F 2.379300 -21.778800 -34.032900
F 2.812200 -19.148600 -34.343800
