15
Fragment
F -5.812700 -34.572400 -7.337000
H -5.671800 -32.376000 -8.647100
C -5.555000 -34.420800 -8.662700
C -5.512800 -33.129600 -9.191500
H -5.409800 -36.419000 -9.058000
C -5.355600 -35.559700 -9.435000
C -5.239800 -32.981800 -10.559800
H -5.206500 -32.116900 -10.931900
C -5.085000 -35.394100 -10.805800
C -5.017200 -34.104400 -11.364300
O -4.972200 -37.753400 -11.150500
C -4.912200 -36.620500 -11.643400
H -4.832900 -34.010400 -12.280100
O -4.708200 -36.370700 -12.926500
H -4.660500 -37.092500 -13.409700
21
Fragment
H -9.948100 -35.765900 -7.492600
H -9.891400 -31.110800 -9.315600
O -9.292300 -33.009600 -7.684600
H -9.111700 -30.882100 -10.630300
C -9.070000 -31.258000 -9.765400
C -9.032400 -35.693000 -7.731000
C -9.024700 -33.498400 -8.785600
N -8.881700 -34.889600 -8.949200
N -8.856500 -32.698700 -9.903800
H -8.683000 -36.554300 -7.895700
C -8.629700 -35.556700 -10.162000
O -8.588500 -36.805300 -10.206000
H -8.552900 -35.282400 -7.026300
C -8.537900 -33.271600 -11.105600
C -8.434600 -34.655100 -11.242800
H -8.358200 -30.871200 -9.269200
N -8.310700 -32.642800 -12.286200
N -8.135700 -34.864800 -12.568400
C -8.065400 -33.646200 -13.147600
H -8.017900 -35.666000 -12.947200
H -7.849000 -33.524400 -14.054200
36
Fragment
F -5.812700 -34.572400 -7.337000
H -5.671800 -32.376000 -8.647100
C -5.555000 -34.420800 -8.662700
C -5.512800 -33.129600 -9.191500
H -5.409800 -36.419000 -9.058000
C -5.355600 -35.559700 -9.435000
C -5.239800 -32.981800 -10.559800
H -5.206500 -32.116900 -10.931900
C -5.085000 -35.394100 -10.805800
C -5.017200 -34.104400 -11.364300
O -4.972200 -37.753400 -11.150500
C -4.912200 -36.620500 -11.643400
H -4.832900 -34.010400 -12.280100
O -4.708200 -36.370700 -12.926500
H -4.660500 -37.092500 -13.409700
H -9.948100 -35.765900 -7.492600
H -9.891400 -31.110800 -9.315600
O -9.292300 -33.009600 -7.684600
H -9.111700 -30.882100 -10.630300
C -9.070000 -31.258000 -9.765400
C -9.032400 -35.693000 -7.731000
C -9.024700 -33.498400 -8.785600
N -8.881700 -34.889600 -8.949200
N -8.856500 -32.698700 -9.903800
H -8.683000 -36.554300 -7.895700
C -8.629700 -35.556700 -10.162000
O -8.588500 -36.805300 -10.206000
H -8.552900 -35.282400 -7.026300
C -8.537900 -33.271600 -11.105600
C -8.434600 -34.655100 -11.242800
H -8.358200 -30.871200 -9.269200
N -8.310700 -32.642800 -12.286200
N -8.135700 -34.864800 -12.568400
C -8.065400 -33.646200 -13.147600
H -8.017900 -35.666000 -12.947200
H -7.849000 -33.524400 -14.054200
