21
Fragment
H -3.106100 -21.645600 -46.538100
H -2.960400 -20.178900 -47.162400
C -2.479800 -20.916700 -46.732400
O -2.410500 -22.429000 -44.470600
N -1.868300 -20.440000 -45.470400
C -1.862100 -21.340500 -44.393000
H -1.777400 -21.243400 -47.332900
H -1.689000 -22.641100 -42.280800
H -1.434000 -21.412900 -41.285000
O -1.425300 -18.430600 -46.475700
C -1.344400 -19.153700 -45.470700
N -1.228800 -20.927000 -43.229400
C -1.129000 -21.856500 -42.105100
C -0.754200 -18.801200 -44.229500
C -0.682500 -19.669900 -43.176100
H -0.196800 -22.138000 -41.994500
N -0.116500 -17.655100 -43.790900
N -0.057400 -19.111500 -42.114200
H 0.005100 -16.914900 -44.251100
C 0.279300 -17.883600 -42.541400
H 0.747500 -17.249700 -42.009700
21
Fragment
H 0.745700 -21.645600 -46.538100
H 0.891400 -20.178900 -47.162400
C 1.372000 -20.916700 -46.732400
O 1.441300 -22.429000 -44.470600
N 1.983500 -20.440000 -45.470400
C 1.989700 -21.340500 -44.393000
H 2.074400 -21.243400 -47.332900
H 2.162800 -22.641100 -42.280800
H 2.417800 -21.412900 -41.285000
O 2.426500 -18.430600 -46.475700
C 2.507400 -19.153700 -45.470700
N 2.623000 -20.927000 -43.229400
C 2.722800 -21.856500 -42.105100
C 3.097600 -18.801200 -44.229500
C 3.169300 -19.669900 -43.176100
H 3.655000 -22.138000 -41.994500
N 3.735300 -17.655100 -43.790900
N 3.794400 -19.111500 -42.114200
H 3.856900 -16.914900 -44.251100
C 4.131100 -17.883600 -42.541400
H 4.599300 -17.249700 -42.009700
42
Fragment
H -3.106100 -21.645600 -46.538100
H -2.960400 -20.178900 -47.162400
C -2.479800 -20.916700 -46.732400
O -2.410500 -22.429000 -44.470600
N -1.868300 -20.440000 -45.470400
C -1.862100 -21.340500 -44.393000
H -1.777400 -21.243400 -47.332900
H -1.689000 -22.641100 -42.280800
H -1.434000 -21.412900 -41.285000
O -1.425300 -18.430600 -46.475700
C -1.344400 -19.153700 -45.470700
N -1.228800 -20.927000 -43.229400
C -1.129000 -21.856500 -42.105100
C -0.754200 -18.801200 -44.229500
C -0.682500 -19.669900 -43.176100
H -0.196800 -22.138000 -41.994500
N -0.116500 -17.655100 -43.790900
N -0.057400 -19.111500 -42.114200
H 0.005100 -16.914900 -44.251100
C 0.279300 -17.883600 -42.541400
H 0.747500 -17.249700 -42.009700
H 0.745700 -21.645600 -46.538100
H 0.891400 -20.178900 -47.162400
C 1.372000 -20.916700 -46.732400
O 1.441300 -22.429000 -44.470600
N 1.983500 -20.440000 -45.470400
C 1.989700 -21.340500 -44.393000
H 2.074400 -21.243400 -47.332900
H 2.162800 -22.641100 -42.280800
H 2.417800 -21.412900 -41.285000
O 2.426500 -18.430600 -46.475700
C 2.507400 -19.153700 -45.470700
N 2.623000 -20.927000 -43.229400
C 2.722800 -21.856500 -42.105100
C 3.097600 -18.801200 -44.229500
C 3.169300 -19.669900 -43.176100
H 3.655000 -22.138000 -41.994500
N 3.735300 -17.655100 -43.790900
N 3.794400 -19.111500 -42.114200
H 3.856900 -16.914900 -44.251100
C 4.131100 -17.883600 -42.541400
H 4.599300 -17.249700 -42.009700
