21
Fragment
H -3.106100 -21.645600 -46.538100
H -2.960400 -20.178900 -47.162400
C -2.479800 -20.916700 -46.732400
O -2.410500 -22.429000 -44.470600
N -1.868300 -20.440000 -45.470400
C -1.862100 -21.340500 -44.393000
H -1.777400 -21.243400 -47.332900
H -1.689000 -22.641100 -42.280800
H -1.434000 -21.412900 -41.285000
O -1.425300 -18.430600 -46.475700
C -1.344400 -19.153700 -45.470700
N -1.228800 -20.927000 -43.229400
C -1.129000 -21.856500 -42.105100
C -0.754200 -18.801200 -44.229500
C -0.682500 -19.669900 -43.176100
H -0.196800 -22.138000 -41.994500
N -0.116500 -17.655100 -43.790900
N -0.057400 -19.111500 -42.114200
H 0.005100 -16.914900 -44.251100
C 0.279300 -17.883600 -42.541400
H 0.747500 -17.249700 -42.009700
15
Fragment
F -1.287100 -15.040800 -41.761900
C -0.630200 -14.641300 -40.644500
F -0.615100 -12.453200 -41.544400
H -0.583300 -16.440000 -39.716600
C -0.331700 -15.526400 -39.648700
C -0.287400 -13.309000 -40.549500
C 0.341000 -15.061200 -38.545400
C 0.370600 -12.854300 -39.428600
H 0.566000 -15.674900 -37.856000
F 0.680700 -11.547100 -39.396300
C 0.708800 -13.717200 -38.397400
C 1.430300 -13.243900 -37.177800
O 1.719700 -12.099600 -36.955800
O 1.723500 -14.235600 -36.348900
H 2.094900 -13.925500 -35.663400
36
Fragment
H -3.106100 -21.645600 -46.538100
H -2.960400 -20.178900 -47.162400
C -2.479800 -20.916700 -46.732400
O -2.410500 -22.429000 -44.470600
N -1.868300 -20.440000 -45.470400
C -1.862100 -21.340500 -44.393000
H -1.777400 -21.243400 -47.332900
H -1.689000 -22.641100 -42.280800
H -1.434000 -21.412900 -41.285000
O -1.425300 -18.430600 -46.475700
C -1.344400 -19.153700 -45.470700
N -1.228800 -20.927000 -43.229400
C -1.129000 -21.856500 -42.105100
C -0.754200 -18.801200 -44.229500
C -0.682500 -19.669900 -43.176100
H -0.196800 -22.138000 -41.994500
N -0.116500 -17.655100 -43.790900
N -0.057400 -19.111500 -42.114200
H 0.005100 -16.914900 -44.251100
C 0.279300 -17.883600 -42.541400
H 0.747500 -17.249700 -42.009700
F -1.287100 -15.040800 -41.761900
C -0.630200 -14.641300 -40.644500
F -0.615100 -12.453200 -41.544400
H -0.583300 -16.440000 -39.716600
C -0.331700 -15.526400 -39.648700
C -0.287400 -13.309000 -40.549500
C 0.341000 -15.061200 -38.545400
C 0.370600 -12.854300 -39.428600
H 0.566000 -15.674900 -37.856000
F 0.680700 -11.547100 -39.396300
C 0.708800 -13.717200 -38.397400
C 1.430300 -13.243900 -37.177800
O 1.719700 -12.099600 -36.955800
O 1.723500 -14.235600 -36.348900
H 2.094900 -13.925500 -35.663400
