21
Fragment
H -3.923500 -15.132200 -39.608200
H -3.482100 -17.485600 -44.280800
O -3.459500 -15.512500 -42.701700
H -3.177600 -14.271800 -40.655900
C -3.087700 -14.963400 -40.019800
C -2.827100 -16.355400 -42.042400
N -2.604300 -16.172000 -40.692100
C -2.569700 -17.635200 -44.086600
H -2.467200 -14.721500 -39.347800
N -2.337800 -17.520400 -42.640800
H -2.313100 -18.503500 -44.354100
H -2.049400 -16.987700 -44.545600
C -1.957500 -17.149200 -39.980600
N -1.693800 -17.141600 -38.651000
C -1.638600 -18.562800 -41.984800
C -1.482200 -18.308600 -40.591400
O -1.237300 -19.554100 -42.618100
C -1.054500 -18.302200 -38.445200
N -0.906200 -19.034800 -39.571800
H -0.732000 -18.588100 -37.613200
H -0.483500 -19.814000 -39.639100
15
Fragment
H -3.755500 -21.483200 -52.172300
O -3.674900 -20.866700 -51.589700
H -3.488400 -18.671600 -50.610100
C -3.060700 -18.921700 -49.811200
C -3.035700 -21.322100 -50.503700
F -3.023100 -16.651700 -49.150800
C -2.733200 -20.257300 -49.513900
C -2.725900 -17.946600 -48.874700
O -2.715300 -22.495000 -50.353900
C -2.102300 -20.594500 -48.302300
C -2.092700 -18.226600 -47.663700
H -1.882600 -21.487000 -48.110800
H -1.861300 -17.540000 -47.064500
C -1.804200 -19.569700 -47.410100
F -1.193600 -19.881700 -46.238300
36
Fragment
H -3.923500 -15.132200 -39.608200
H -3.482100 -17.485600 -44.280800
O -3.459500 -15.512500 -42.701700
H -3.177600 -14.271800 -40.655900
C -3.087700 -14.963400 -40.019800
C -2.827100 -16.355400 -42.042400
N -2.604300 -16.172000 -40.692100
C -2.569700 -17.635200 -44.086600
H -2.467200 -14.721500 -39.347800
N -2.337800 -17.520400 -42.640800
H -2.313100 -18.503500 -44.354100
H -2.049400 -16.987700 -44.545600
C -1.957500 -17.149200 -39.980600
N -1.693800 -17.141600 -38.651000
C -1.638600 -18.562800 -41.984800
C -1.482200 -18.308600 -40.591400
O -1.237300 -19.554100 -42.618100
C -1.054500 -18.302200 -38.445200
N -0.906200 -19.034800 -39.571800
H -0.732000 -18.588100 -37.613200
H -0.483500 -19.814000 -39.639100
H -3.755500 -21.483200 -52.172300
O -3.674900 -20.866700 -51.589700
H -3.488400 -18.671600 -50.610100
C -3.060700 -18.921700 -49.811200
C -3.035700 -21.322100 -50.503700
F -3.023100 -16.651700 -49.150800
C -2.733200 -20.257300 -49.513900
C -2.725900 -17.946600 -48.874700
O -2.715300 -22.495000 -50.353900
C -2.102300 -20.594500 -48.302300
C -2.092700 -18.226600 -47.663700
H -1.882600 -21.487000 -48.110800
H -1.861300 -17.540000 -47.064500
C -1.804200 -19.569700 -47.410100
F -1.193600 -19.881700 -46.238300
