21
Fragment
H -3.106100 -21.645600 -46.538100
H -2.960400 -20.178900 -47.162400
C -2.479800 -20.916700 -46.732400
O -2.410500 -22.429000 -44.470600
N -1.868300 -20.440000 -45.470400
C -1.862100 -21.340500 -44.393000
H -1.777400 -21.243400 -47.332900
H -1.689000 -22.641100 -42.280800
H -1.434000 -21.412900 -41.285000
O -1.425300 -18.430600 -46.475700
C -1.344400 -19.153700 -45.470700
N -1.228800 -20.927000 -43.229400
C -1.129000 -21.856500 -42.105100
C -0.754200 -18.801200 -44.229500
C -0.682500 -19.669900 -43.176100
H -0.196800 -22.138000 -41.994500
N -0.116500 -17.655100 -43.790900
N -0.057400 -19.111500 -42.114200
H 0.005100 -16.914900 -44.251100
C 0.279300 -17.883600 -42.541400
H 0.747500 -17.249700 -42.009700
15
Fragment
F -3.449200 -27.420900 -41.761900
C -2.792300 -27.021400 -40.644500
F -2.777200 -24.833300 -41.544400
H -2.745400 -28.820200 -39.716600
C -2.493800 -27.906600 -39.648700
C -2.449500 -25.689200 -40.549500
C -1.821100 -27.441300 -38.545400
C -1.791500 -25.234500 -39.428600
H -1.596100 -28.055000 -37.856000
F -1.481400 -23.927200 -39.396300
C -1.453300 -26.097400 -38.397400
C -0.731800 -25.624100 -37.177800
O -0.442400 -24.479700 -36.955800
O -0.438600 -26.615700 -36.348900
H -0.067200 -26.305600 -35.663400
36
Fragment
H -3.106100 -21.645600 -46.538100
H -2.960400 -20.178900 -47.162400
C -2.479800 -20.916700 -46.732400
O -2.410500 -22.429000 -44.470600
N -1.868300 -20.440000 -45.470400
C -1.862100 -21.340500 -44.393000
H -1.777400 -21.243400 -47.332900
H -1.689000 -22.641100 -42.280800
H -1.434000 -21.412900 -41.285000
O -1.425300 -18.430600 -46.475700
C -1.344400 -19.153700 -45.470700
N -1.228800 -20.927000 -43.229400
C -1.129000 -21.856500 -42.105100
C -0.754200 -18.801200 -44.229500
C -0.682500 -19.669900 -43.176100
H -0.196800 -22.138000 -41.994500
N -0.116500 -17.655100 -43.790900
N -0.057400 -19.111500 -42.114200
H 0.005100 -16.914900 -44.251100
C 0.279300 -17.883600 -42.541400
H 0.747500 -17.249700 -42.009700
F -3.449200 -27.420900 -41.761900
C -2.792300 -27.021400 -40.644500
F -2.777200 -24.833300 -41.544400
H -2.745400 -28.820200 -39.716600
C -2.493800 -27.906600 -39.648700
C -2.449500 -25.689200 -40.549500
C -1.821100 -27.441300 -38.545400
C -1.791500 -25.234500 -39.428600
H -1.596100 -28.055000 -37.856000
F -1.481400 -23.927200 -39.396300
C -1.453300 -26.097400 -38.397400
C -0.731800 -25.624100 -37.177800
O -0.442400 -24.479700 -36.955800
O -0.438600 -26.615700 -36.348900
H -0.067200 -26.305600 -35.663400
