15
Fragment
F -5.812700 -34.572400 -7.337000
H -5.671800 -32.376000 -8.647100
C -5.555000 -34.420800 -8.662700
C -5.512800 -33.129600 -9.191500
H -5.409800 -36.419000 -9.058000
C -5.355600 -35.559700 -9.435000
C -5.239800 -32.981800 -10.559800
H -5.206500 -32.116900 -10.931900
C -5.085000 -35.394100 -10.805800
C -5.017200 -34.104400 -11.364300
O -4.972200 -37.753400 -11.150500
C -4.912200 -36.620500 -11.643400
H -4.832900 -34.010400 -12.280100
O -4.708200 -36.370700 -12.926500
H -4.660500 -37.092500 -13.409700
21
Fragment
H -7.778900 -41.634600 -2.480900
H -7.610000 -39.493000 -3.588000
C -7.562600 -41.512800 -3.387500
N -7.492200 -40.294200 -3.966700
N -7.317300 -42.516200 -4.248900
H -7.269700 -44.287800 -7.265900
C -7.193300 -40.503900 -5.292300
C -7.090100 -41.887400 -5.429600
H -7.075000 -39.876600 -9.508800
O -7.039500 -38.353700 -6.329100
C -6.998200 -39.602300 -6.373100
H -6.944900 -38.604700 -8.639400
N -6.771400 -42.460300 -6.631300
N -6.746200 -40.269400 -7.585900
C -6.603300 -41.660600 -7.749500
C -6.595500 -39.466000 -8.804100
C -6.557900 -43.901000 -6.769700
H -6.516200 -44.276900 -5.904900
O -6.335700 -42.149400 -8.850500
H -5.736600 -44.048200 -7.219600
H -5.679800 -39.393100 -9.042600
36
Fragment
F -5.812700 -34.572400 -7.337000
H -5.671800 -32.376000 -8.647100
C -5.555000 -34.420800 -8.662700
C -5.512800 -33.129600 -9.191500
H -5.409800 -36.419000 -9.058000
C -5.355600 -35.559700 -9.435000
C -5.239800 -32.981800 -10.559800
H -5.206500 -32.116900 -10.931900
C -5.085000 -35.394100 -10.805800
C -5.017200 -34.104400 -11.364300
O -4.972200 -37.753400 -11.150500
C -4.912200 -36.620500 -11.643400
H -4.832900 -34.010400 -12.280100
O -4.708200 -36.370700 -12.926500
H -4.660500 -37.092500 -13.409700
H -7.778900 -41.634600 -2.480900
H -7.610000 -39.493000 -3.588000
C -7.562600 -41.512800 -3.387500
N -7.492200 -40.294200 -3.966700
N -7.317300 -42.516200 -4.248900
H -7.269700 -44.287800 -7.265900
C -7.193300 -40.503900 -5.292300
C -7.090100 -41.887400 -5.429600
H -7.075000 -39.876600 -9.508800
O -7.039500 -38.353700 -6.329100
C -6.998200 -39.602300 -6.373100
H -6.944900 -38.604700 -8.639400
N -6.771400 -42.460300 -6.631300
N -6.746200 -40.269400 -7.585900
C -6.603300 -41.660600 -7.749500
C -6.595500 -39.466000 -8.804100
C -6.557900 -43.901000 -6.769700
H -6.516200 -44.276900 -5.904900
O -6.335700 -42.149400 -8.850500
H -5.736600 -44.048200 -7.219600
H -5.679800 -39.393100 -9.042600
