21
Fragment
H -3.106100 -21.645600 -46.538100
H -2.960400 -20.178900 -47.162400
C -2.479800 -20.916700 -46.732400
O -2.410500 -22.429000 -44.470600
N -1.868300 -20.440000 -45.470400
C -1.862100 -21.340500 -44.393000
H -1.777400 -21.243400 -47.332900
H -1.689000 -22.641100 -42.280800
H -1.434000 -21.412900 -41.285000
O -1.425300 -18.430600 -46.475700
C -1.344400 -19.153700 -45.470700
N -1.228800 -20.927000 -43.229400
C -1.129000 -21.856500 -42.105100
C -0.754200 -18.801200 -44.229500
C -0.682500 -19.669900 -43.176100
H -0.196800 -22.138000 -41.994500
N -0.116500 -17.655100 -43.790900
N -0.057400 -19.111500 -42.114200
H 0.005100 -16.914900 -44.251100
C 0.279300 -17.883600 -42.541400
H 0.747500 -17.249700 -42.009700
21
Fragment
H -6.957900 -21.645600 -46.538100
H -6.812200 -20.178900 -47.162400
C -6.331600 -20.916700 -46.732400
O -6.262300 -22.429000 -44.470600
N -5.720100 -20.440000 -45.470400
C -5.713900 -21.340500 -44.393000
H -5.629200 -21.243400 -47.332900
H -5.540800 -22.641100 -42.280800
H -5.285800 -21.412900 -41.285000
O -5.277100 -18.430600 -46.475700
C -5.196200 -19.153700 -45.470700
N -5.080600 -20.927000 -43.229400
C -4.980800 -21.856500 -42.105100
C -4.606000 -18.801200 -44.229500
C -4.534300 -19.669900 -43.176100
H -4.048600 -22.138000 -41.994500
N -3.968300 -17.655100 -43.790900
N -3.909200 -19.111500 -42.114200
H -3.846700 -16.914900 -44.251100
C -3.572500 -17.883600 -42.541400
H -3.104300 -17.249700 -42.009700
42
Fragment
H -3.106100 -21.645600 -46.538100
H -2.960400 -20.178900 -47.162400
C -2.479800 -20.916700 -46.732400
O -2.410500 -22.429000 -44.470600
N -1.868300 -20.440000 -45.470400
C -1.862100 -21.340500 -44.393000
H -1.777400 -21.243400 -47.332900
H -1.689000 -22.641100 -42.280800
H -1.434000 -21.412900 -41.285000
O -1.425300 -18.430600 -46.475700
C -1.344400 -19.153700 -45.470700
N -1.228800 -20.927000 -43.229400
C -1.129000 -21.856500 -42.105100
C -0.754200 -18.801200 -44.229500
C -0.682500 -19.669900 -43.176100
H -0.196800 -22.138000 -41.994500
N -0.116500 -17.655100 -43.790900
N -0.057400 -19.111500 -42.114200
H 0.005100 -16.914900 -44.251100
C 0.279300 -17.883600 -42.541400
H 0.747500 -17.249700 -42.009700
H -6.957900 -21.645600 -46.538100
H -6.812200 -20.178900 -47.162400
C -6.331600 -20.916700 -46.732400
O -6.262300 -22.429000 -44.470600
N -5.720100 -20.440000 -45.470400
C -5.713900 -21.340500 -44.393000
H -5.629200 -21.243400 -47.332900
H -5.540800 -22.641100 -42.280800
H -5.285800 -21.412900 -41.285000
O -5.277100 -18.430600 -46.475700
C -5.196200 -19.153700 -45.470700
N -5.080600 -20.927000 -43.229400
C -4.980800 -21.856500 -42.105100
C -4.606000 -18.801200 -44.229500
C -4.534300 -19.669900 -43.176100
H -4.048600 -22.138000 -41.994500
N -3.968300 -17.655100 -43.790900
N -3.909200 -19.111500 -42.114200
H -3.846700 -16.914900 -44.251100
C -3.572500 -17.883600 -42.541400
H -3.104300 -17.249700 -42.009700
