21
Fragment
H -3.923500 -15.132200 -39.608200
H -3.482100 -17.485600 -44.280800
O -3.459500 -15.512500 -42.701700
H -3.177600 -14.271800 -40.655900
C -3.087700 -14.963400 -40.019800
C -2.827100 -16.355400 -42.042400
N -2.604300 -16.172000 -40.692100
C -2.569700 -17.635200 -44.086600
H -2.467200 -14.721500 -39.347800
N -2.337800 -17.520400 -42.640800
H -2.313100 -18.503500 -44.354100
H -2.049400 -16.987700 -44.545600
C -1.957500 -17.149200 -39.980600
N -1.693800 -17.141600 -38.651000
C -1.638600 -18.562800 -41.984800
C -1.482200 -18.308600 -40.591400
O -1.237300 -19.554100 -42.618100
C -1.054500 -18.302200 -38.445200
N -0.906200 -19.034800 -39.571800
H -0.732000 -18.588100 -37.613200
H -0.483500 -19.814000 -39.639100
21
Fragment
H -0.059100 -15.132200 -39.608200
H 0.382200 -17.485600 -44.280800
O 0.404800 -15.512500 -42.701700
H 0.686800 -14.271800 -40.655900
C 0.776700 -14.963400 -40.019800
C 1.037200 -16.355400 -42.042400
N 1.260000 -16.172000 -40.692100
C 1.294700 -17.635200 -44.086600
H 1.397100 -14.721500 -39.347800
N 1.526600 -17.520400 -42.640800
H 1.551300 -18.503500 -44.354100
H 1.814900 -16.987700 -44.545600
C 1.906800 -17.149200 -39.980600
N 2.170500 -17.141600 -38.651000
C 2.225800 -18.562800 -41.984800
C 2.382100 -18.308600 -40.591400
O 2.627100 -19.554100 -42.618100
C 2.809900 -18.302200 -38.445200
N 2.958100 -19.034800 -39.571800
H 3.132300 -18.588100 -37.613200
H 3.380800 -19.814000 -39.639100
42
Fragment
H -3.923500 -15.132200 -39.608200
H -3.482100 -17.485600 -44.280800
O -3.459500 -15.512500 -42.701700
H -3.177600 -14.271800 -40.655900
C -3.087700 -14.963400 -40.019800
C -2.827100 -16.355400 -42.042400
N -2.604300 -16.172000 -40.692100
C -2.569700 -17.635200 -44.086600
H -2.467200 -14.721500 -39.347800
N -2.337800 -17.520400 -42.640800
H -2.313100 -18.503500 -44.354100
H -2.049400 -16.987700 -44.545600
C -1.957500 -17.149200 -39.980600
N -1.693800 -17.141600 -38.651000
C -1.638600 -18.562800 -41.984800
C -1.482200 -18.308600 -40.591400
O -1.237300 -19.554100 -42.618100
C -1.054500 -18.302200 -38.445200
N -0.906200 -19.034800 -39.571800
H -0.732000 -18.588100 -37.613200
H -0.483500 -19.814000 -39.639100
H -0.059100 -15.132200 -39.608200
H 0.382200 -17.485600 -44.280800
O 0.404800 -15.512500 -42.701700
H 0.686800 -14.271800 -40.655900
C 0.776700 -14.963400 -40.019800
C 1.037200 -16.355400 -42.042400
N 1.260000 -16.172000 -40.692100
C 1.294700 -17.635200 -44.086600
H 1.397100 -14.721500 -39.347800
N 1.526600 -17.520400 -42.640800
H 1.551300 -18.503500 -44.354100
H 1.814900 -16.987700 -44.545600
C 1.906800 -17.149200 -39.980600
N 2.170500 -17.141600 -38.651000
C 2.225800 -18.562800 -41.984800
C 2.382100 -18.308600 -40.591400
O 2.627100 -19.554100 -42.618100
C 2.809900 -18.302200 -38.445200
N 2.958100 -19.034800 -39.571800
H 3.132300 -18.588100 -37.613200
H 3.380800 -19.814000 -39.639100
