15
Fragment
F -5.812700 -34.572400 -7.337000
H -5.671800 -32.376000 -8.647100
C -5.555000 -34.420800 -8.662700
C -5.512800 -33.129600 -9.191500
H -5.409800 -36.419000 -9.058000
C -5.355600 -35.559700 -9.435000
C -5.239800 -32.981800 -10.559800
H -5.206500 -32.116900 -10.931900
C -5.085000 -35.394100 -10.805800
C -5.017200 -34.104400 -11.364300
O -4.972200 -37.753400 -11.150500
C -4.912200 -36.620500 -11.643400
H -4.832900 -34.010400 -12.280100
O -4.708200 -36.370700 -12.926500
H -4.660500 -37.092500 -13.409700
21
Fragment
H -5.158000 -41.634600 -10.748500
H -4.989100 -39.493000 -11.855500
C -4.941600 -41.512800 -11.655100
N -4.871300 -40.294200 -12.234200
N -4.696400 -42.516200 -12.516400
H -4.648800 -44.287800 -15.533500
C -4.572400 -40.503900 -13.559900
C -4.469100 -41.887400 -13.697100
H -4.454100 -39.876600 -17.776300
O -4.418500 -38.353700 -14.596700
C -4.377300 -39.602300 -14.640700
H -4.324000 -38.604700 -16.907000
N -4.150500 -42.460300 -14.898900
N -4.125300 -40.269400 -15.853500
C -3.982400 -41.660600 -16.017100
C -3.974600 -39.466000 -17.071700
C -3.937000 -43.901000 -15.037300
H -3.895300 -44.276900 -14.172400
O -3.714700 -42.149400 -17.118100
H -3.115600 -44.048200 -15.487100
H -3.058900 -39.393100 -17.310100
36
Fragment
F -5.812700 -34.572400 -7.337000
H -5.671800 -32.376000 -8.647100
C -5.555000 -34.420800 -8.662700
C -5.512800 -33.129600 -9.191500
H -5.409800 -36.419000 -9.058000
C -5.355600 -35.559700 -9.435000
C -5.239800 -32.981800 -10.559800
H -5.206500 -32.116900 -10.931900
C -5.085000 -35.394100 -10.805800
C -5.017200 -34.104400 -11.364300
O -4.972200 -37.753400 -11.150500
C -4.912200 -36.620500 -11.643400
H -4.832900 -34.010400 -12.280100
O -4.708200 -36.370700 -12.926500
H -4.660500 -37.092500 -13.409700
H -5.158000 -41.634600 -10.748500
H -4.989100 -39.493000 -11.855500
C -4.941600 -41.512800 -11.655100
N -4.871300 -40.294200 -12.234200
N -4.696400 -42.516200 -12.516400
H -4.648800 -44.287800 -15.533500
C -4.572400 -40.503900 -13.559900
C -4.469100 -41.887400 -13.697100
H -4.454100 -39.876600 -17.776300
O -4.418500 -38.353700 -14.596700
C -4.377300 -39.602300 -14.640700
H -4.324000 -38.604700 -16.907000
N -4.150500 -42.460300 -14.898900
N -4.125300 -40.269400 -15.853500
C -3.982400 -41.660600 -16.017100
C -3.974600 -39.466000 -17.071700
C -3.937000 -43.901000 -15.037300
H -3.895300 -44.276900 -14.172400
O -3.714700 -42.149400 -17.118100
H -3.115600 -44.048200 -15.487100
H -3.058900 -39.393100 -17.310100
