21
Fragment
O -8.828200 -7.990700 -17.480200
H -8.805600 -9.468400 -19.447900
H -7.997600 -8.384200 -20.184300
C -7.938200 -9.211100 -19.724100
C -7.664400 -8.432800 -17.419900
H -7.635000 -7.473700 -14.660400
H -7.553200 -9.862400 -20.291100
N -7.089100 -9.074600 -18.529000
N -6.921900 -7.883100 -15.018100
C -6.781700 -8.380400 -16.295800
C -5.774900 -9.593800 -18.617600
C -5.756800 -8.101300 -14.380500
H -5.598900 -7.855700 -13.489900
C -5.487400 -8.891300 -16.352400
O -5.358600 -10.127000 -19.640400
N -4.976100 -9.473700 -17.475300
N -4.851600 -8.715100 -15.162900
C -3.628600 -10.044000 -17.465900
H -3.562300 -10.687500 -16.769700
H -3.481000 -10.456600 -18.302100
H -2.980300 -9.365300 -17.323700
15
Fragment
H -3.265700 -9.046200 -14.644600
O -3.101600 -8.889100 -12.339200
O -2.413100 -9.219300 -14.465300
C -2.237900 -9.202000 -13.145700
F -0.914300 -8.257800 -10.794500
C -0.846000 -9.623700 -12.734300
F -0.535200 -11.073200 -14.619900
C -0.265600 -9.128300 -11.566600
C -0.075100 -10.535700 -13.482900
C 0.980200 -9.573700 -11.104500
C 1.189200 -10.958600 -13.060800
F 1.461000 -9.145000 -9.931600
C 1.714300 -10.492100 -11.863500
F 1.844100 -11.866800 -13.781300
F 2.896200 -10.904600 -11.446800
36
Fragment
O -8.828200 -7.990700 -17.480200
H -8.805600 -9.468400 -19.447900
H -7.997600 -8.384200 -20.184300
C -7.938200 -9.211100 -19.724100
C -7.664400 -8.432800 -17.419900
H -7.635000 -7.473700 -14.660400
H -7.553200 -9.862400 -20.291100
N -7.089100 -9.074600 -18.529000
N -6.921900 -7.883100 -15.018100
C -6.781700 -8.380400 -16.295800
C -5.774900 -9.593800 -18.617600
C -5.756800 -8.101300 -14.380500
H -5.598900 -7.855700 -13.489900
C -5.487400 -8.891300 -16.352400
O -5.358600 -10.127000 -19.640400
N -4.976100 -9.473700 -17.475300
N -4.851600 -8.715100 -15.162900
C -3.628600 -10.044000 -17.465900
H -3.562300 -10.687500 -16.769700
H -3.481000 -10.456600 -18.302100
H -2.980300 -9.365300 -17.323700
H -3.265700 -9.046200 -14.644600
O -3.101600 -8.889100 -12.339200
O -2.413100 -9.219300 -14.465300
C -2.237900 -9.202000 -13.145700
F -0.914300 -8.257800 -10.794500
C -0.846000 -9.623700 -12.734300
F -0.535200 -11.073200 -14.619900
C -0.265600 -9.128300 -11.566600
C -0.075100 -10.535700 -13.482900
C 0.980200 -9.573700 -11.104500
C 1.189200 -10.958600 -13.060800
F 1.461000 -9.145000 -9.931600
C 1.714300 -10.492100 -11.863500
F 1.844100 -11.866800 -13.781300
F 2.896200 -10.904600 -11.446800
