15
Fragment
H -7.478600 -35.348100 -11.333800
H -7.348000 -33.119100 -12.158400
C -7.285000 -35.176800 -12.239700
C -7.206000 -33.860200 -12.724000
H -7.140200 -37.133200 -12.821400
C -7.081500 -36.242100 -13.118600
C -6.929600 -33.624900 -14.056400
H -6.874300 -32.749000 -14.398300
O -6.828700 -38.366700 -14.928900
C -6.789300 -36.028000 -14.483300
C -6.704400 -34.724100 -14.983600
C -6.614900 -37.227700 -15.361500
F -6.440300 -34.503000 -16.286700
O -6.229500 -36.963700 -16.597200
H -6.208100 -37.673800 -17.102900
21
Fragment
H -4.740100 -36.403000 -11.418900
H -4.522100 -31.623000 -13.004700
O -4.018100 -33.571700 -11.492400
H -3.877500 -31.393700 -14.387900
C -3.820400 -36.270300 -11.611500
C -3.769600 -34.043000 -12.605500
C -3.754200 -31.780300 -13.534400
N -3.662600 -35.433500 -12.806000
N -3.585400 -33.222400 -13.706000
C -3.436900 -36.073800 -14.038500
O -3.436300 -37.322500 -14.115000
H -3.414300 -37.108500 -11.770500
H -3.403900 -35.843500 -10.877000
C -3.268600 -33.770800 -14.918600
C -3.208700 -35.152200 -15.095700
H -2.994000 -31.407000 -13.106300
N -2.991800 -33.111400 -16.073000
N -2.878900 -35.329300 -16.419800
H -2.767500 -36.121300 -16.817100
C -2.755600 -34.093800 -16.957700
H -2.496600 -33.950200 -17.849800
36
Fragment
H -7.478600 -35.348100 -11.333800
H -7.348000 -33.119100 -12.158400
C -7.285000 -35.176800 -12.239700
C -7.206000 -33.860200 -12.724000
H -7.140200 -37.133200 -12.821400
C -7.081500 -36.242100 -13.118600
C -6.929600 -33.624900 -14.056400
H -6.874300 -32.749000 -14.398300
O -6.828700 -38.366700 -14.928900
C -6.789300 -36.028000 -14.483300
C -6.704400 -34.724100 -14.983600
C -6.614900 -37.227700 -15.361500
F -6.440300 -34.503000 -16.286700
O -6.229500 -36.963700 -16.597200
H -6.208100 -37.673800 -17.102900
H -4.740100 -36.403000 -11.418900
H -4.522100 -31.623000 -13.004700
O -4.018100 -33.571700 -11.492400
H -3.877500 -31.393700 -14.387900
C -3.820400 -36.270300 -11.611500
C -3.769600 -34.043000 -12.605500
C -3.754200 -31.780300 -13.534400
N -3.662600 -35.433500 -12.806000
N -3.585400 -33.222400 -13.706000
C -3.436900 -36.073800 -14.038500
O -3.436300 -37.322500 -14.115000
H -3.414300 -37.108500 -11.770500
H -3.403900 -35.843500 -10.877000
C -3.268600 -33.770800 -14.918600
C -3.208700 -35.152200 -15.095700
H -2.994000 -31.407000 -13.106300
N -2.991800 -33.111400 -16.073000
N -2.878900 -35.329300 -16.419800
H -2.767500 -36.121300 -16.817100
C -2.755600 -34.093800 -16.957700
H -2.496600 -33.950200 -17.849800
