15
Fragment
H -7.478600 -35.348100 -11.333800
H -7.348000 -33.119100 -12.158400
C -7.285000 -35.176800 -12.239700
C -7.206000 -33.860200 -12.724000
H -7.140200 -37.133200 -12.821400
C -7.081500 -36.242100 -13.118600
C -6.929600 -33.624900 -14.056400
H -6.874300 -32.749000 -14.398300
O -6.828700 -38.366700 -14.928900
C -6.789300 -36.028000 -14.483300
C -6.704400 -34.724100 -14.983600
C -6.614900 -37.227700 -15.361500
F -6.440300 -34.503000 -16.286700
O -6.229500 -36.963700 -16.597200
H -6.208100 -37.673800 -17.102900
21
Fragment
H -6.790900 -27.139900 -15.469700
H -6.572800 -31.919900 -17.055500
O -6.068800 -29.971100 -15.543200
H -5.928200 -32.149100 -18.438700
C -5.871200 -27.272600 -15.662300
C -5.820300 -29.499900 -16.656300
C -5.805000 -31.762500 -17.585200
N -5.713300 -28.109300 -16.856800
N -5.636100 -30.320500 -17.756800
C -5.487700 -27.469100 -18.089300
O -5.487100 -26.220400 -18.165800
H -5.465100 -26.434300 -15.821300
H -5.454600 -27.699400 -14.927800
C -5.319400 -29.772100 -18.969400
C -5.259400 -28.390700 -19.146500
H -5.044700 -32.135900 -17.157100
N -5.042600 -30.431400 -20.123800
N -4.929600 -28.213500 -20.470600
H -4.818200 -27.421500 -20.867900
C -4.806300 -29.449100 -21.008500
H -4.547300 -29.592700 -21.900600
36
Fragment
H -7.478600 -35.348100 -11.333800
H -7.348000 -33.119100 -12.158400
C -7.285000 -35.176800 -12.239700
C -7.206000 -33.860200 -12.724000
H -7.140200 -37.133200 -12.821400
C -7.081500 -36.242100 -13.118600
C -6.929600 -33.624900 -14.056400
H -6.874300 -32.749000 -14.398300
O -6.828700 -38.366700 -14.928900
C -6.789300 -36.028000 -14.483300
C -6.704400 -34.724100 -14.983600
C -6.614900 -37.227700 -15.361500
F -6.440300 -34.503000 -16.286700
O -6.229500 -36.963700 -16.597200
H -6.208100 -37.673800 -17.102900
H -6.790900 -27.139900 -15.469700
H -6.572800 -31.919900 -17.055500
O -6.068800 -29.971100 -15.543200
H -5.928200 -32.149100 -18.438700
C -5.871200 -27.272600 -15.662300
C -5.820300 -29.499900 -16.656300
C -5.805000 -31.762500 -17.585200
N -5.713300 -28.109300 -16.856800
N -5.636100 -30.320500 -17.756800
C -5.487700 -27.469100 -18.089300
O -5.487100 -26.220400 -18.165800
H -5.465100 -26.434300 -15.821300
H -5.454600 -27.699400 -14.927800
C -5.319400 -29.772100 -18.969400
C -5.259400 -28.390700 -19.146500
H -5.044700 -32.135900 -17.157100
N -5.042600 -30.431400 -20.123800
N -4.929600 -28.213500 -20.470600
H -4.818200 -27.421500 -20.867900
C -4.806300 -29.449100 -21.008500
H -4.547300 -29.592700 -21.900600
