15
Fragment
H -7.478600 -35.348100 -11.333800
H -7.348000 -33.119100 -12.158400
C -7.285000 -35.176800 -12.239700
C -7.206000 -33.860200 -12.724000
H -7.140200 -37.133200 -12.821400
C -7.081500 -36.242100 -13.118600
C -6.929600 -33.624900 -14.056400
H -6.874300 -32.749000 -14.398300
O -6.828700 -38.366700 -14.928900
C -6.789300 -36.028000 -14.483300
C -6.704400 -34.724100 -14.983600
C -6.614900 -37.227700 -15.361500
F -6.440300 -34.503000 -16.286700
O -6.229500 -36.963700 -16.597200
H -6.208100 -37.673800 -17.102900
21
Fragment
H -9.685500 -27.139900 -7.368100
H -9.467400 -31.919900 -8.953900
O -8.963500 -29.971100 -7.441600
H -8.822800 -32.149100 -10.337100
C -8.765800 -27.272600 -7.560700
C -8.715000 -29.499900 -8.554700
C -8.699600 -31.762500 -9.483600
N -8.607900 -28.109300 -8.755200
N -8.530800 -30.320500 -9.655200
C -8.382300 -27.469100 -9.987700
O -8.381700 -26.220400 -10.064200
H -8.359700 -26.434300 -7.719700
H -8.349200 -27.699400 -6.826200
C -8.214000 -29.772100 -10.867800
C -8.154000 -28.390700 -11.044900
H -7.939400 -32.135900 -9.055500
N -7.937200 -30.431400 -12.022200
N -7.824200 -28.213500 -12.369000
H -7.712800 -27.421500 -12.766300
C -7.700900 -29.449100 -12.906900
H -7.441900 -29.592700 -13.799000
36
Fragment
H -7.478600 -35.348100 -11.333800
H -7.348000 -33.119100 -12.158400
C -7.285000 -35.176800 -12.239700
C -7.206000 -33.860200 -12.724000
H -7.140200 -37.133200 -12.821400
C -7.081500 -36.242100 -13.118600
C -6.929600 -33.624900 -14.056400
H -6.874300 -32.749000 -14.398300
O -6.828700 -38.366700 -14.928900
C -6.789300 -36.028000 -14.483300
C -6.704400 -34.724100 -14.983600
C -6.614900 -37.227700 -15.361500
F -6.440300 -34.503000 -16.286700
O -6.229500 -36.963700 -16.597200
H -6.208100 -37.673800 -17.102900
H -9.685500 -27.139900 -7.368100
H -9.467400 -31.919900 -8.953900
O -8.963500 -29.971100 -7.441600
H -8.822800 -32.149100 -10.337100
C -8.765800 -27.272600 -7.560700
C -8.715000 -29.499900 -8.554700
C -8.699600 -31.762500 -9.483600
N -8.607900 -28.109300 -8.755200
N -8.530800 -30.320500 -9.655200
C -8.382300 -27.469100 -9.987700
O -8.381700 -26.220400 -10.064200
H -8.359700 -26.434300 -7.719700
H -8.349200 -27.699400 -6.826200
C -8.214000 -29.772100 -10.867800
C -8.154000 -28.390700 -11.044900
H -7.939400 -32.135900 -9.055500
N -7.937200 -30.431400 -12.022200
N -7.824200 -28.213500 -12.369000
H -7.712800 -27.421500 -12.766300
C -7.700900 -29.449100 -12.906900
H -7.441900 -29.592700 -13.799000
