15
Fragment
H -7.478600 -35.348100 -11.333800
H -7.348000 -33.119100 -12.158400
C -7.285000 -35.176800 -12.239700
C -7.206000 -33.860200 -12.724000
H -7.140200 -37.133200 -12.821400
C -7.081500 -36.242100 -13.118600
C -6.929600 -33.624900 -14.056400
H -6.874300 -32.749000 -14.398300
O -6.828700 -38.366700 -14.928900
C -6.789300 -36.028000 -14.483300
C -6.704400 -34.724100 -14.983600
C -6.614900 -37.227700 -15.361500
F -6.440300 -34.503000 -16.286700
O -6.229500 -36.963700 -16.597200
H -6.208100 -37.673800 -17.102900
21
Fragment
H -8.841600 -36.403000 -19.520500
H -8.623500 -31.623000 -21.106300
O -8.119600 -33.571700 -19.594000
H -7.978900 -31.393700 -22.489500
C -7.921900 -36.270300 -19.713100
C -7.871100 -34.043000 -20.707100
C -7.855700 -31.780300 -21.636000
N -7.764000 -35.433500 -20.907600
N -7.686900 -33.222400 -21.807600
C -7.538400 -36.073800 -22.140100
O -7.537800 -37.322500 -22.216600
H -7.515800 -37.108500 -19.872100
H -7.505300 -35.843500 -18.978600
C -7.370100 -33.770800 -23.020200
C -7.310100 -35.152200 -23.197300
H -7.095500 -31.407000 -21.207900
N -7.093300 -33.111400 -24.174600
N -6.980300 -35.329300 -24.521400
H -6.868900 -36.121300 -24.918700
C -6.857000 -34.093800 -25.059300
H -6.598000 -33.950200 -25.951400
36
Fragment
H -7.478600 -35.348100 -11.333800
H -7.348000 -33.119100 -12.158400
C -7.285000 -35.176800 -12.239700
C -7.206000 -33.860200 -12.724000
H -7.140200 -37.133200 -12.821400
C -7.081500 -36.242100 -13.118600
C -6.929600 -33.624900 -14.056400
H -6.874300 -32.749000 -14.398300
O -6.828700 -38.366700 -14.928900
C -6.789300 -36.028000 -14.483300
C -6.704400 -34.724100 -14.983600
C -6.614900 -37.227700 -15.361500
F -6.440300 -34.503000 -16.286700
O -6.229500 -36.963700 -16.597200
H -6.208100 -37.673800 -17.102900
H -8.841600 -36.403000 -19.520500
H -8.623500 -31.623000 -21.106300
O -8.119600 -33.571700 -19.594000
H -7.978900 -31.393700 -22.489500
C -7.921900 -36.270300 -19.713100
C -7.871100 -34.043000 -20.707100
C -7.855700 -31.780300 -21.636000
N -7.764000 -35.433500 -20.907600
N -7.686900 -33.222400 -21.807600
C -7.538400 -36.073800 -22.140100
O -7.537800 -37.322500 -22.216600
H -7.515800 -37.108500 -19.872100
H -7.505300 -35.843500 -18.978600
C -7.370100 -33.770800 -23.020200
C -7.310100 -35.152200 -23.197300
H -7.095500 -31.407000 -21.207900
N -7.093300 -33.111400 -24.174600
N -6.980300 -35.329300 -24.521400
H -6.868900 -36.121300 -24.918700
C -6.857000 -34.093800 -25.059300
H -6.598000 -33.950200 -25.951400
