21
Fragment
H -7.383900 -13.990100 -24.292900
H -6.995200 -15.767600 -24.539100
O -6.731300 -17.108600 -22.737500
H -6.628000 -17.371400 -19.183800
C -6.591700 -14.780600 -24.191800
H -6.436300 -18.259900 -20.778000
C -6.284700 -16.104800 -22.138700
N -6.178300 -14.860200 -22.810400
C -5.984900 -17.491000 -20.095700
N -5.891600 -16.229100 -20.782500
H -5.709800 -14.488700 -24.823300
C -5.679200 -13.685900 -22.206100
O -5.603000 -12.619100 -22.840100
C -5.390800 -15.109500 -20.135300
C -5.284300 -13.857300 -20.820500
H -4.959700 -17.823700 -19.781000
N -4.931600 -14.968000 -18.814500
N -4.756200 -12.951200 -19.901700
H -4.566300 -11.998500 -20.087700
C -4.562900 -13.660800 -18.722100
H -4.153100 -13.202100 -17.813800
15
Fragment
F -5.984300 -10.508400 -31.116700
H -5.832500 -9.933600 -28.547300
C -5.584600 -11.369200 -30.159400
C -5.540600 -10.959800 -28.820500
F -5.251200 -13.087300 -31.807900
C -5.209600 -12.690200 -30.517400
C -5.123500 -11.860700 -27.827800
F -5.090000 -11.441800 -26.546700
C -4.789400 -13.593700 -29.507000
C -4.744200 -13.183100 -28.156300
F -4.436800 -14.843200 -29.861400
O -4.346400 -15.365600 -27.149300
C -4.307100 -14.131500 -27.126000
O -3.793100 -13.552300 -26.004100
H -3.530900 -14.248900 -25.377500
36
Fragment
H -7.383900 -13.990100 -24.292900
H -6.995200 -15.767600 -24.539100
O -6.731300 -17.108600 -22.737500
H -6.628000 -17.371400 -19.183800
C -6.591700 -14.780600 -24.191800
H -6.436300 -18.259900 -20.778000
C -6.284700 -16.104800 -22.138700
N -6.178300 -14.860200 -22.810400
C -5.984900 -17.491000 -20.095700
N -5.891600 -16.229100 -20.782500
H -5.709800 -14.488700 -24.823300
C -5.679200 -13.685900 -22.206100
O -5.603000 -12.619100 -22.840100
C -5.390800 -15.109500 -20.135300
C -5.284300 -13.857300 -20.820500
H -4.959700 -17.823700 -19.781000
N -4.931600 -14.968000 -18.814500
N -4.756200 -12.951200 -19.901700
H -4.566300 -11.998500 -20.087700
C -4.562900 -13.660800 -18.722100
H -4.153100 -13.202100 -17.813800
F -5.984300 -10.508400 -31.116700
H -5.832500 -9.933600 -28.547300
C -5.584600 -11.369200 -30.159400
C -5.540600 -10.959800 -28.820500
F -5.251200 -13.087300 -31.807900
C -5.209600 -12.690200 -30.517400
C -5.123500 -11.860700 -27.827800
F -5.090000 -11.441800 -26.546700
C -4.789400 -13.593700 -29.507000
C -4.744200 -13.183100 -28.156300
F -4.436800 -14.843200 -29.861400
O -4.346400 -15.365600 -27.149300
C -4.307100 -14.131500 -27.126000
O -3.793100 -13.552300 -26.004100
H -3.530900 -14.248900 -25.377500
