21
Fragment
H -7.383900 -13.990100 -24.292900
H -6.995200 -15.767600 -24.539100
O -6.731300 -17.108600 -22.737500
H -6.628000 -17.371400 -19.183800
C -6.591700 -14.780600 -24.191800
H -6.436300 -18.259900 -20.778000
C -6.284700 -16.104800 -22.138700
N -6.178300 -14.860200 -22.810400
C -5.984900 -17.491000 -20.095700
N -5.891600 -16.229100 -20.782500
H -5.709800 -14.488700 -24.823300
C -5.679200 -13.685900 -22.206100
O -5.603000 -12.619100 -22.840100
C -5.390800 -15.109500 -20.135300
C -5.284300 -13.857300 -20.820500
H -4.959700 -17.823700 -19.781000
N -4.931600 -14.968000 -18.814500
N -4.756200 -12.951200 -19.901700
H -4.566300 -11.998500 -20.087700
C -4.562900 -13.660800 -18.722100
H -4.153100 -13.202100 -17.813800
21
Fragment
H -9.854500 -24.283400 -25.260500
C -9.444700 -23.824700 -24.352200
H -9.441300 -25.487000 -22.986600
N -9.251400 -24.534300 -23.172500
N -9.076000 -22.517500 -24.259700
H -9.047900 -19.661800 -23.293300
C -8.723300 -23.628200 -22.253700
C -8.616800 -22.376000 -22.938900
O -8.404600 -24.866400 -20.234100
C -8.328400 -23.799600 -20.868200
H -8.297800 -22.996900 -18.251000
N -8.116000 -21.256500 -22.291800
C -8.022700 -19.994500 -22.978500
N -7.829300 -22.625300 -20.263800
C -7.722900 -21.380700 -20.935500
H -7.571300 -19.225600 -22.296200
C -7.416000 -22.704900 -18.882500
H -7.379600 -20.114100 -23.890400
O -7.276300 -20.376900 -20.336800
H -7.012400 -21.717900 -18.535100
H -6.623700 -23.495400 -18.781400
42
Fragment
H -7.383900 -13.990100 -24.292900
H -6.995200 -15.767600 -24.539100
O -6.731300 -17.108600 -22.737500
H -6.628000 -17.371400 -19.183800
C -6.591700 -14.780600 -24.191800
H -6.436300 -18.259900 -20.778000
C -6.284700 -16.104800 -22.138700
N -6.178300 -14.860200 -22.810400
C -5.984900 -17.491000 -20.095700
N -5.891600 -16.229100 -20.782500
H -5.709800 -14.488700 -24.823300
C -5.679200 -13.685900 -22.206100
O -5.603000 -12.619100 -22.840100
C -5.390800 -15.109500 -20.135300
C -5.284300 -13.857300 -20.820500
H -4.959700 -17.823700 -19.781000
N -4.931600 -14.968000 -18.814500
N -4.756200 -12.951200 -19.901700
H -4.566300 -11.998500 -20.087700
C -4.562900 -13.660800 -18.722100
H -4.153100 -13.202100 -17.813800
H -9.854500 -24.283400 -25.260500
C -9.444700 -23.824700 -24.352200
H -9.441300 -25.487000 -22.986600
N -9.251400 -24.534300 -23.172500
N -9.076000 -22.517500 -24.259700
H -9.047900 -19.661800 -23.293300
C -8.723300 -23.628200 -22.253700
C -8.616800 -22.376000 -22.938900
O -8.404600 -24.866400 -20.234100
C -8.328400 -23.799600 -20.868200
H -8.297800 -22.996900 -18.251000
N -8.116000 -21.256500 -22.291800
C -8.022700 -19.994500 -22.978500
N -7.829300 -22.625300 -20.263800
C -7.722900 -21.380700 -20.935500
H -7.571300 -19.225600 -22.296200
C -7.416000 -22.704900 -18.882500
H -7.379600 -20.114100 -23.890400
O -7.276300 -20.376900 -20.336800
H -7.012400 -21.717900 -18.535100
H -6.623700 -23.495400 -18.781400
