21
Fragment
H -7.383900 -13.990100 -24.292900
H -6.995200 -15.767600 -24.539100
O -6.731300 -17.108600 -22.737500
H -6.628000 -17.371400 -19.183800
C -6.591700 -14.780600 -24.191800
H -6.436300 -18.259900 -20.778000
C -6.284700 -16.104800 -22.138700
N -6.178300 -14.860200 -22.810400
C -5.984900 -17.491000 -20.095700
N -5.891600 -16.229100 -20.782500
H -5.709800 -14.488700 -24.823300
C -5.679200 -13.685900 -22.206100
O -5.603000 -12.619100 -22.840100
C -5.390800 -15.109500 -20.135300
C -5.284300 -13.857300 -20.820500
H -4.959700 -17.823700 -19.781000
N -4.931600 -14.968000 -18.814500
N -4.756200 -12.951200 -19.901700
H -4.566300 -11.998500 -20.087700
C -4.562900 -13.660800 -18.722100
H -4.153100 -13.202100 -17.813800
21
Fragment
H -5.924400 -21.170900 -24.292900
H -5.535700 -22.948400 -24.539100
O -5.271700 -24.289400 -22.737500
H -5.168500 -24.552200 -19.183800
C -5.132100 -21.961400 -24.191800
H -4.976800 -25.440700 -20.778000
C -4.825200 -23.285600 -22.138700
N -4.718800 -22.041000 -22.810400
C -4.525300 -24.671800 -20.095700
N -4.432000 -23.409900 -20.782500
H -4.250300 -21.669400 -24.823300
C -4.219700 -20.866700 -22.206100
O -4.143500 -19.799900 -22.840100
C -3.931200 -22.290300 -20.135300
C -3.824800 -21.038100 -20.820500
H -3.500200 -25.004500 -19.781000
N -3.472100 -22.148800 -18.814500
N -3.296700 -20.132000 -19.901700
H -3.106800 -19.179300 -20.087700
C -3.103400 -20.841600 -18.722100
H -2.693600 -20.382900 -17.813800
42
Fragment
H -7.383900 -13.990100 -24.292900
H -6.995200 -15.767600 -24.539100
O -6.731300 -17.108600 -22.737500
H -6.628000 -17.371400 -19.183800
C -6.591700 -14.780600 -24.191800
H -6.436300 -18.259900 -20.778000
C -6.284700 -16.104800 -22.138700
N -6.178300 -14.860200 -22.810400
C -5.984900 -17.491000 -20.095700
N -5.891600 -16.229100 -20.782500
H -5.709800 -14.488700 -24.823300
C -5.679200 -13.685900 -22.206100
O -5.603000 -12.619100 -22.840100
C -5.390800 -15.109500 -20.135300
C -5.284300 -13.857300 -20.820500
H -4.959700 -17.823700 -19.781000
N -4.931600 -14.968000 -18.814500
N -4.756200 -12.951200 -19.901700
H -4.566300 -11.998500 -20.087700
C -4.562900 -13.660800 -18.722100
H -4.153100 -13.202100 -17.813800
H -5.924400 -21.170900 -24.292900
H -5.535700 -22.948400 -24.539100
O -5.271700 -24.289400 -22.737500
H -5.168500 -24.552200 -19.183800
C -5.132100 -21.961400 -24.191800
H -4.976800 -25.440700 -20.778000
C -4.825200 -23.285600 -22.138700
N -4.718800 -22.041000 -22.810400
C -4.525300 -24.671800 -20.095700
N -4.432000 -23.409900 -20.782500
H -4.250300 -21.669400 -24.823300
C -4.219700 -20.866700 -22.206100
O -4.143500 -19.799900 -22.840100
C -3.931200 -22.290300 -20.135300
C -3.824800 -21.038100 -20.820500
H -3.500200 -25.004500 -19.781000
N -3.472100 -22.148800 -18.814500
N -3.296700 -20.132000 -19.901700
H -3.106800 -19.179300 -20.087700
C -3.103400 -20.841600 -18.722100
H -2.693600 -20.382900 -17.813800
