21
Fragment
H -7.383900 -13.990100 -24.292900
H -6.995200 -15.767600 -24.539100
O -6.731300 -17.108600 -22.737500
H -6.628000 -17.371400 -19.183800
C -6.591700 -14.780600 -24.191800
H -6.436300 -18.259900 -20.778000
C -6.284700 -16.104800 -22.138700
N -6.178300 -14.860200 -22.810400
C -5.984900 -17.491000 -20.095700
N -5.891600 -16.229100 -20.782500
H -5.709800 -14.488700 -24.823300
C -5.679200 -13.685900 -22.206100
O -5.603000 -12.619100 -22.840100
C -5.390800 -15.109500 -20.135300
C -5.284300 -13.857300 -20.820500
H -4.959700 -17.823700 -19.781000
N -4.931600 -14.968000 -18.814500
N -4.756200 -12.951200 -19.901700
H -4.566300 -11.998500 -20.087700
C -4.562900 -13.660800 -18.722100
H -4.153100 -13.202100 -17.813800
15
Fragment
H -4.498900 -16.055800 -17.696800
O -4.236800 -16.752500 -17.070200
C -3.722700 -16.173200 -15.948200
O -3.683400 -14.939100 -15.925000
F -3.593100 -15.461500 -13.212900
C -3.285600 -17.121700 -14.917900
C -3.240500 -16.711000 -13.567200
F -2.939800 -18.862900 -16.527600
C -2.906300 -18.444000 -15.246400
C -2.820200 -17.614500 -12.556900
F -2.778700 -17.217400 -11.266400
C -2.489200 -19.344900 -14.253700
C -2.445300 -18.935500 -12.914800
H -2.197300 -20.371100 -14.526900
F -2.045500 -19.796300 -11.957600
36
Fragment
H -7.383900 -13.990100 -24.292900
H -6.995200 -15.767600 -24.539100
O -6.731300 -17.108600 -22.737500
H -6.628000 -17.371400 -19.183800
C -6.591700 -14.780600 -24.191800
H -6.436300 -18.259900 -20.778000
C -6.284700 -16.104800 -22.138700
N -6.178300 -14.860200 -22.810400
C -5.984900 -17.491000 -20.095700
N -5.891600 -16.229100 -20.782500
H -5.709800 -14.488700 -24.823300
C -5.679200 -13.685900 -22.206100
O -5.603000 -12.619100 -22.840100
C -5.390800 -15.109500 -20.135300
C -5.284300 -13.857300 -20.820500
H -4.959700 -17.823700 -19.781000
N -4.931600 -14.968000 -18.814500
N -4.756200 -12.951200 -19.901700
H -4.566300 -11.998500 -20.087700
C -4.562900 -13.660800 -18.722100
H -4.153100 -13.202100 -17.813800
H -4.498900 -16.055800 -17.696800
O -4.236800 -16.752500 -17.070200
C -3.722700 -16.173200 -15.948200
O -3.683400 -14.939100 -15.925000
F -3.593100 -15.461500 -13.212900
C -3.285600 -17.121700 -14.917900
C -3.240500 -16.711000 -13.567200
F -2.939800 -18.862900 -16.527600
C -2.906300 -18.444000 -15.246400
C -2.820200 -17.614500 -12.556900
F -2.778700 -17.217400 -11.266400
C -2.489200 -19.344900 -14.253700
C -2.445300 -18.935500 -12.914800
H -2.197300 -20.371100 -14.526900
F -2.045500 -19.796300 -11.957600
