21
Fragment
H -3.796500 -21.001100 -42.638400
H -3.612600 -19.945900 -44.127500
O -3.504200 -21.025400 -46.146200
H -3.274400 -24.057300 -47.882400
H -3.220600 -22.229400 -48.039400
C -3.083900 -20.651200 -43.432200
C -2.851500 -21.917700 -45.560200
C -2.660400 -23.136400 -47.691200
N -2.593700 -21.784600 -44.172400
N -2.374600 -23.043500 -46.278600
H -2.221300 -20.124400 -42.944800
C -1.876300 -22.786000 -43.535600
H -1.693400 -23.225100 -48.256400
C -1.638000 -24.093200 -45.687900
N -1.496800 -22.897700 -42.187000
C -1.400100 -23.920400 -44.267100
O -1.244800 -25.061400 -46.361900
C -0.811200 -24.072100 -42.124000
N -0.725400 -24.723900 -43.348900
H -0.366900 -24.474200 -41.205300
H -0.285600 -25.584200 -43.561300
15
Fragment
H 1.468300 -23.621500 -38.331400
F 1.624000 -23.171000 -35.735400
C 1.859400 -24.457500 -37.729000
C 1.983600 -24.325200 -36.340500
F 2.114600 -25.787100 -39.691300
C 2.233200 -25.655700 -38.351400
C 2.487400 -25.400400 -35.558200
F 2.596300 -25.245800 -34.225400
C 2.739100 -26.740500 -37.581600
C 2.864900 -26.608600 -36.182100
O 3.071700 -28.926400 -35.457100
F 3.090200 -27.879200 -38.205600
C 3.388500 -27.735000 -35.395400
O 4.346400 -27.394300 -34.488400
H 4.636500 -28.193000 -34.014500
36
Fragment
H -3.796500 -21.001100 -42.638400
H -3.612600 -19.945900 -44.127500
O -3.504200 -21.025400 -46.146200
H -3.274400 -24.057300 -47.882400
H -3.220600 -22.229400 -48.039400
C -3.083900 -20.651200 -43.432200
C -2.851500 -21.917700 -45.560200
C -2.660400 -23.136400 -47.691200
N -2.593700 -21.784600 -44.172400
N -2.374600 -23.043500 -46.278600
H -2.221300 -20.124400 -42.944800
C -1.876300 -22.786000 -43.535600
H -1.693400 -23.225100 -48.256400
C -1.638000 -24.093200 -45.687900
N -1.496800 -22.897700 -42.187000
C -1.400100 -23.920400 -44.267100
O -1.244800 -25.061400 -46.361900
C -0.811200 -24.072100 -42.124000
N -0.725400 -24.723900 -43.348900
H -0.366900 -24.474200 -41.205300
H -0.285600 -25.584200 -43.561300
H 1.468300 -23.621500 -38.331400
F 1.624000 -23.171000 -35.735400
C 1.859400 -24.457500 -37.729000
C 1.983600 -24.325200 -36.340500
F 2.114600 -25.787100 -39.691300
C 2.233200 -25.655700 -38.351400
C 2.487400 -25.400400 -35.558200
F 2.596300 -25.245800 -34.225400
C 2.739100 -26.740500 -37.581600
C 2.864900 -26.608600 -36.182100
O 3.071700 -28.926400 -35.457100
F 3.090200 -27.879200 -38.205600
C 3.388500 -27.735000 -35.395400
O 4.346400 -27.394300 -34.488400
H 4.636500 -28.193000 -34.014500
