21
Fragment
H -7.383900 -13.990100 -24.292900
H -6.995200 -15.767600 -24.539100
O -6.731300 -17.108600 -22.737500
H -6.628000 -17.371400 -19.183800
C -6.591700 -14.780600 -24.191800
H -6.436300 -18.259900 -20.778000
C -6.284700 -16.104800 -22.138700
N -6.178300 -14.860200 -22.810400
C -5.984900 -17.491000 -20.095700
N -5.891600 -16.229100 -20.782500
H -5.709800 -14.488700 -24.823300
C -5.679200 -13.685900 -22.206100
O -5.603000 -12.619100 -22.840100
C -5.390800 -15.109500 -20.135300
C -5.284300 -13.857300 -20.820500
H -4.959700 -17.823700 -19.781000
N -4.931600 -14.968000 -18.814500
N -4.756200 -12.951200 -19.901700
H -4.566300 -11.998500 -20.087700
C -4.562900 -13.660800 -18.722100
H -4.153100 -13.202100 -17.813800
21
Fragment
H -5.336200 -9.921800 -25.260500
C -4.926400 -9.463100 -24.352200
H -4.923000 -11.125400 -22.986600
N -4.733200 -10.172700 -23.172500
N -4.557700 -8.155900 -24.259700
H -4.529600 -5.300200 -23.293300
C -4.205000 -9.266600 -22.253700
C -4.098600 -8.014400 -22.938900
O -3.886300 -10.504900 -20.234100
C -3.810100 -9.438000 -20.868200
H -3.779500 -8.635300 -18.251000
N -3.597800 -6.894900 -22.291800
C -3.504500 -5.632900 -22.978500
N -3.311000 -8.263700 -20.263800
C -3.204700 -7.019100 -20.935500
H -3.053100 -4.864000 -22.296200
C -2.897700 -8.343400 -18.882500
H -2.861300 -5.752500 -23.890400
O -2.758100 -6.015300 -20.336800
H -2.494100 -7.356300 -18.535100
H -2.105400 -9.133800 -18.781400
42
Fragment
H -7.383900 -13.990100 -24.292900
H -6.995200 -15.767600 -24.539100
O -6.731300 -17.108600 -22.737500
H -6.628000 -17.371400 -19.183800
C -6.591700 -14.780600 -24.191800
H -6.436300 -18.259900 -20.778000
C -6.284700 -16.104800 -22.138700
N -6.178300 -14.860200 -22.810400
C -5.984900 -17.491000 -20.095700
N -5.891600 -16.229100 -20.782500
H -5.709800 -14.488700 -24.823300
C -5.679200 -13.685900 -22.206100
O -5.603000 -12.619100 -22.840100
C -5.390800 -15.109500 -20.135300
C -5.284300 -13.857300 -20.820500
H -4.959700 -17.823700 -19.781000
N -4.931600 -14.968000 -18.814500
N -4.756200 -12.951200 -19.901700
H -4.566300 -11.998500 -20.087700
C -4.562900 -13.660800 -18.722100
H -4.153100 -13.202100 -17.813800
H -5.336200 -9.921800 -25.260500
C -4.926400 -9.463100 -24.352200
H -4.923000 -11.125400 -22.986600
N -4.733200 -10.172700 -23.172500
N -4.557700 -8.155900 -24.259700
H -4.529600 -5.300200 -23.293300
C -4.205000 -9.266600 -22.253700
C -4.098600 -8.014400 -22.938900
O -3.886300 -10.504900 -20.234100
C -3.810100 -9.438000 -20.868200
H -3.779500 -8.635300 -18.251000
N -3.597800 -6.894900 -22.291800
C -3.504500 -5.632900 -22.978500
N -3.311000 -8.263700 -20.263800
C -3.204700 -7.019100 -20.935500
H -3.053100 -4.864000 -22.296200
C -2.897700 -8.343400 -18.882500
H -2.861300 -5.752500 -23.890400
O -2.758100 -6.015300 -20.336800
H -2.494100 -7.356300 -18.535100
H -2.105400 -9.133800 -18.781400
