24
Fragment
O -33.233200 -3.062900 -25.417400
N -32.660000 -5.138600 -27.026300
H -32.256400 -6.649200 -28.229800
N -32.115900 -3.549200 -25.307800
N -31.958700 -6.127700 -27.586700
C -31.797000 -4.675500 -26.132800
O -31.234600 -3.136700 -24.560600
C -30.739800 -6.217400 -27.036000
N -30.613300 -5.287700 -26.091400
N -30.048300 -8.069800 -28.398500
C -29.767100 -7.200500 -27.419500
N -28.969100 -8.814200 -28.485500
H -28.895800 -9.464300 -29.073600
H -28.854500 -5.456600 -25.189600
C -28.471800 -7.494200 -26.945900
N -28.062800 -5.838500 -25.147300
N -27.996900 -8.523900 -27.631000
C -27.670400 -6.862700 -25.908700
N -27.077100 -5.471500 -24.304300
N -26.431100 -7.218900 -25.590300
C -26.157500 -6.329300 -24.629200
N -24.858200 -6.303600 -23.966200
O -24.666600 -5.419000 -23.160700
O -24.069700 -7.178700 -24.267500
24
Fragment
O -30.257100 -12.632900 -32.724800
O -29.660200 -14.392600 -33.831600
N -29.468600 -13.508000 -33.026100
C -28.169300 -13.482300 -32.363100
N -27.895600 -12.592700 -31.402000
N -27.249700 -14.340100 -32.687900
C -26.656400 -12.948900 -31.083600
N -26.329900 -11.287700 -29.361300
N -26.264000 -13.973100 -31.845000
C -25.855000 -12.317400 -30.046300
H -25.472300 -14.355000 -31.802600
H -25.431000 -10.347300 -27.918600
N -25.357700 -10.997400 -28.506800
C -24.559700 -12.611100 -29.572700
N -24.278500 -11.741800 -28.593800
N -23.713500 -14.523900 -30.900800
C -23.587000 -13.594200 -29.956300
O -23.092200 -16.674900 -32.431600
C -22.529800 -15.136100 -30.859400
N -22.368100 -13.683900 -29.405500
N -22.210900 -16.262400 -31.684500
H -22.070300 -13.162400 -28.762500
N -21.666700 -14.673000 -29.966000
O -21.093600 -16.748700 -31.574800
48
Fragment
O -33.233200 -3.062900 -25.417400
N -32.660000 -5.138600 -27.026300
H -32.256400 -6.649200 -28.229800
N -32.115900 -3.549200 -25.307800
N -31.958700 -6.127700 -27.586700
C -31.797000 -4.675500 -26.132800
O -31.234600 -3.136700 -24.560600
C -30.739800 -6.217400 -27.036000
N -30.613300 -5.287700 -26.091400
N -30.048300 -8.069800 -28.398500
C -29.767100 -7.200500 -27.419500
N -28.969100 -8.814200 -28.485500
H -28.895800 -9.464300 -29.073600
H -28.854500 -5.456600 -25.189600
C -28.471800 -7.494200 -26.945900
N -28.062800 -5.838500 -25.147300
N -27.996900 -8.523900 -27.631000
C -27.670400 -6.862700 -25.908700
N -27.077100 -5.471500 -24.304300
N -26.431100 -7.218900 -25.590300
C -26.157500 -6.329300 -24.629200
N -24.858200 -6.303600 -23.966200
O -24.666600 -5.419000 -23.160700
O -24.069700 -7.178700 -24.267500
O -30.257100 -12.632900 -32.724800
O -29.660200 -14.392600 -33.831600
N -29.468600 -13.508000 -33.026100
C -28.169300 -13.482300 -32.363100
N -27.895600 -12.592700 -31.402000
N -27.249700 -14.340100 -32.687900
C -26.656400 -12.948900 -31.083600
N -26.329900 -11.287700 -29.361300
N -26.264000 -13.973100 -31.845000
C -25.855000 -12.317400 -30.046300
H -25.472300 -14.355000 -31.802600
H -25.431000 -10.347300 -27.918600
N -25.357700 -10.997400 -28.506800
C -24.559700 -12.611100 -29.572700
N -24.278500 -11.741800 -28.593800
N -23.713500 -14.523900 -30.900800
C -23.587000 -13.594200 -29.956300
O -23.092200 -16.674900 -32.431600
C -22.529800 -15.136100 -30.859400
N -22.368100 -13.683900 -29.405500
N -22.210900 -16.262400 -31.684500
H -22.070300 -13.162400 -28.762500
N -21.666700 -14.673000 -29.966000
O -21.093600 -16.748700 -31.574800
