24
Fragment
O -33.233200 -3.062900 -25.417400
N -32.660000 -5.138600 -27.026300
H -32.256400 -6.649200 -28.229800
N -32.115900 -3.549200 -25.307800
N -31.958700 -6.127700 -27.586700
C -31.797000 -4.675500 -26.132800
O -31.234600 -3.136700 -24.560600
C -30.739800 -6.217400 -27.036000
N -30.613300 -5.287700 -26.091400
N -30.048300 -8.069800 -28.398500
C -29.767100 -7.200500 -27.419500
N -28.969100 -8.814200 -28.485500
H -28.895800 -9.464300 -29.073600
H -28.854500 -5.456600 -25.189600
C -28.471800 -7.494200 -26.945900
N -28.062800 -5.838500 -25.147300
N -27.996900 -8.523900 -27.631000
C -27.670400 -6.862700 -25.908700
N -27.077100 -5.471500 -24.304300
N -26.431100 -7.218900 -25.590300
C -26.157500 -6.329300 -24.629200
N -24.858200 -6.303600 -23.966200
O -24.666600 -5.419000 -23.160700
O -24.069700 -7.178700 -24.267500
24
Fragment
O -21.202600 -4.702300 -23.226100
O -20.605700 -2.942500 -24.332800
N -20.414200 -3.827100 -23.527400
C -19.114800 -3.852900 -22.864300
N -18.841200 -4.742400 -21.903300
N -18.195200 -2.995000 -23.189200
C -17.601900 -4.386300 -21.584900
N -17.275400 -6.047500 -19.862600
N -17.209500 -3.362000 -22.346300
C -16.800500 -5.017800 -20.547600
H -16.417900 -2.980100 -22.303900
H -16.376500 -6.987900 -18.419900
N -16.303300 -6.337700 -19.008100
C -15.505200 -4.724100 -20.074000
N -15.224000 -5.593300 -19.095100
N -14.659000 -2.811300 -21.402100
C -14.532500 -3.740900 -20.457600
O -14.037700 -0.660200 -22.932900
C -13.475300 -2.199100 -21.360700
N -13.313600 -3.651300 -19.906800
N -13.156500 -1.072800 -22.185800
H -13.015900 -4.172800 -19.263800
N -12.612300 -2.662200 -20.467200
O -12.039100 -0.586400 -22.076100
48
Fragment
O -33.233200 -3.062900 -25.417400
N -32.660000 -5.138600 -27.026300
H -32.256400 -6.649200 -28.229800
N -32.115900 -3.549200 -25.307800
N -31.958700 -6.127700 -27.586700
C -31.797000 -4.675500 -26.132800
O -31.234600 -3.136700 -24.560600
C -30.739800 -6.217400 -27.036000
N -30.613300 -5.287700 -26.091400
N -30.048300 -8.069800 -28.398500
C -29.767100 -7.200500 -27.419500
N -28.969100 -8.814200 -28.485500
H -28.895800 -9.464300 -29.073600
H -28.854500 -5.456600 -25.189600
C -28.471800 -7.494200 -26.945900
N -28.062800 -5.838500 -25.147300
N -27.996900 -8.523900 -27.631000
C -27.670400 -6.862700 -25.908700
N -27.077100 -5.471500 -24.304300
N -26.431100 -7.218900 -25.590300
C -26.157500 -6.329300 -24.629200
N -24.858200 -6.303600 -23.966200
O -24.666600 -5.419000 -23.160700
O -24.069700 -7.178700 -24.267500
O -21.202600 -4.702300 -23.226100
O -20.605700 -2.942500 -24.332800
N -20.414200 -3.827100 -23.527400
C -19.114800 -3.852900 -22.864300
N -18.841200 -4.742400 -21.903300
N -18.195200 -2.995000 -23.189200
C -17.601900 -4.386300 -21.584900
N -17.275400 -6.047500 -19.862600
N -17.209500 -3.362000 -22.346300
C -16.800500 -5.017800 -20.547600
H -16.417900 -2.980100 -22.303900
H -16.376500 -6.987900 -18.419900
N -16.303300 -6.337700 -19.008100
C -15.505200 -4.724100 -20.074000
N -15.224000 -5.593300 -19.095100
N -14.659000 -2.811300 -21.402100
C -14.532500 -3.740900 -20.457600
O -14.037700 -0.660200 -22.932900
C -13.475300 -2.199100 -21.360700
N -13.313600 -3.651300 -19.906800
N -13.156500 -1.072800 -22.185800
H -13.015900 -4.172800 -19.263800
N -12.612300 -2.662200 -20.467200
O -12.039100 -0.586400 -22.076100
