18
Fragment
O -36.289200 -11.311800 -14.304700
H -36.259700 -9.079800 -14.423700
O -35.664000 -9.289800 -14.955900
C -35.572800 -10.575900 -14.971500
H -34.891100 -11.205300 -16.789000
C -34.511900 -11.119200 -15.900700
H -34.453900 -13.481600 -17.136800
C -34.029800 -13.564300 -16.313200
C -33.943500 -12.461200 -15.483600
H -33.785400 -10.477300 -15.953100
H -33.567400 -15.525700 -16.509400
C -33.498500 -14.791700 -15.942200
C -33.302100 -12.613900 -14.262300
H -33.228500 -11.884300 -13.690000
C -32.872700 -14.907600 -14.729300
C -32.769900 -13.829000 -13.881900
H -32.345100 -13.917400 -13.059600
Cl -32.176100 -16.439000 -14.266000
15
Fragment
H -40.465000 -14.649300 -10.510800
H -39.963700 -13.292100 -10.974800
N -39.952100 -14.161000 -10.984200
N -39.123500 -16.151400 -11.732500
C -39.089600 -14.792100 -11.771500
H -38.828700 -18.476300 -11.975100
N -38.259200 -18.128700 -12.528400
C -38.259200 -16.798500 -12.528400
N -38.259200 -14.069300 -12.528400
H -37.689800 -18.476300 -13.081600
C -37.428900 -14.792100 -13.285300
N -37.395000 -16.151400 -13.324300
N -36.566400 -14.161000 -14.072600
H -36.554800 -13.292100 -14.081900
H -36.053500 -14.649300 -14.545900
33
Fragment
O -36.289200 -11.311800 -14.304700
H -36.259700 -9.079800 -14.423700
O -35.664000 -9.289800 -14.955900
C -35.572800 -10.575900 -14.971500
H -34.891100 -11.205300 -16.789000
C -34.511900 -11.119200 -15.900700
H -34.453900 -13.481600 -17.136800
C -34.029800 -13.564300 -16.313200
C -33.943500 -12.461200 -15.483600
H -33.785400 -10.477300 -15.953100
H -33.567400 -15.525700 -16.509400
C -33.498500 -14.791700 -15.942200
C -33.302100 -12.613900 -14.262300
H -33.228500 -11.884300 -13.690000
C -32.872700 -14.907600 -14.729300
C -32.769900 -13.829000 -13.881900
H -32.345100 -13.917400 -13.059600
Cl -32.176100 -16.439000 -14.266000
H -40.465000 -14.649300 -10.510800
H -39.963700 -13.292100 -10.974800
N -39.952100 -14.161000 -10.984200
N -39.123500 -16.151400 -11.732500
C -39.089600 -14.792100 -11.771500
H -38.828700 -18.476300 -11.975100
N -38.259200 -18.128700 -12.528400
C -38.259200 -16.798500 -12.528400
N -38.259200 -14.069300 -12.528400
H -37.689800 -18.476300 -13.081600
C -37.428900 -14.792100 -13.285300
N -37.395000 -16.151400 -13.324300
N -36.566400 -14.161000 -14.072600
H -36.554800 -13.292100 -14.081900
H -36.053500 -14.649300 -14.545900
