18
Fragment
Cl -46.331300 -9.725600 -16.753100
H -45.400400 -7.939100 -14.829000
C -45.287000 -9.866200 -15.374600
C -45.031600 -8.764200 -14.612200
H -44.941400 -11.829500 -15.614100
C -44.747100 -11.093600 -15.080100
C -44.216100 -8.903400 -13.517000
H -44.036700 -13.221000 -13.564300
H -44.031400 -8.165600 -12.981000
C -43.912900 -11.232200 -13.987600
C -43.671100 -10.123000 -13.207200
C -43.316400 -12.579100 -13.669100
H -43.129300 -10.202900 -12.456500
H -42.849100 -12.520200 -12.821100
C -42.362600 -13.090700 -14.710400
O -42.291900 -14.368000 -14.765700
H -41.797600 -14.614800 -15.385400
O -41.732000 -12.346900 -15.432800
18
Fragment
Cl -46.331300 -13.872100 -11.758500
H -45.400400 -15.658600 -9.834400
C -45.287000 -13.731500 -10.380000
C -45.031600 -14.833500 -9.617600
H -44.941400 -11.768200 -10.619500
C -44.747100 -12.504100 -10.085500
C -44.216100 -14.694300 -8.522400
H -44.036700 -10.376700 -8.569700
H -44.031400 -15.432100 -7.986400
C -43.912900 -12.365500 -8.993000
C -43.671100 -13.474700 -8.212600
C -43.316400 -11.018600 -8.674500
H -43.129300 -13.394800 -7.461900
H -42.849100 -11.077500 -7.826500
C -42.362600 -10.507000 -9.715800
O -42.291900 -9.229700 -9.771100
H -41.797600 -8.982900 -10.390800
O -41.732000 -11.250800 -10.438200
36
Fragment
Cl -46.331300 -9.725600 -16.753100
H -45.400400 -7.939100 -14.829000
C -45.287000 -9.866200 -15.374600
C -45.031600 -8.764200 -14.612200
H -44.941400 -11.829500 -15.614100
C -44.747100 -11.093600 -15.080100
C -44.216100 -8.903400 -13.517000
H -44.036700 -13.221000 -13.564300
H -44.031400 -8.165600 -12.981000
C -43.912900 -11.232200 -13.987600
C -43.671100 -10.123000 -13.207200
C -43.316400 -12.579100 -13.669100
H -43.129300 -10.202900 -12.456500
H -42.849100 -12.520200 -12.821100
C -42.362600 -13.090700 -14.710400
O -42.291900 -14.368000 -14.765700
H -41.797600 -14.614800 -15.385400
O -41.732000 -12.346900 -15.432800
Cl -46.331300 -13.872100 -11.758500
H -45.400400 -15.658600 -9.834400
C -45.287000 -13.731500 -10.380000
C -45.031600 -14.833500 -9.617600
H -44.941400 -11.768200 -10.619500
C -44.747100 -12.504100 -10.085500
C -44.216100 -14.694300 -8.522400
H -44.036700 -10.376700 -8.569700
H -44.031400 -15.432100 -7.986400
C -43.912900 -12.365500 -8.993000
C -43.671100 -13.474700 -8.212600
C -43.316400 -11.018600 -8.674500
H -43.129300 -13.394800 -7.461900
H -42.849100 -11.077500 -7.826500
C -42.362600 -10.507000 -9.715800
O -42.291900 -9.229700 -9.771100
H -41.797600 -8.982900 -10.390800
O -41.732000 -11.250800 -10.438200
