18
Fragment
O -36.289200 -11.311800 -14.304700
H -36.259700 -9.079800 -14.423700
O -35.664000 -9.289800 -14.955900
C -35.572800 -10.575900 -14.971500
H -34.891100 -11.205300 -16.789000
C -34.511900 -11.119200 -15.900700
H -34.453900 -13.481600 -17.136800
C -34.029800 -13.564300 -16.313200
C -33.943500 -12.461200 -15.483600
H -33.785400 -10.477300 -15.953100
H -33.567400 -15.525700 -16.509400
C -33.498500 -14.791700 -15.942200
C -33.302100 -12.613900 -14.262300
H -33.228500 -11.884300 -13.690000
C -32.872700 -14.907600 -14.729300
C -32.769900 -13.829000 -13.881900
H -32.345100 -13.917400 -13.059600
Cl -32.176100 -16.439000 -14.266000
18
Fragment
Cl -30.322000 -19.090800 -15.802100
H -30.152900 -21.612400 -17.008500
C -29.728100 -21.700800 -16.186100
C -29.625400 -20.622200 -15.338700
H -29.269500 -23.645400 -16.378100
C -29.196000 -22.915900 -15.805800
C -28.999600 -20.738100 -14.125900
H -28.930700 -20.004000 -13.558700
H -28.712600 -25.052400 -14.115000
C -28.554600 -23.068500 -14.584500
C -28.468300 -21.965400 -13.754800
H -28.044200 -22.048200 -12.931300
C -27.986200 -24.410500 -14.167400
H -27.607000 -24.324500 -13.279100
C -26.925200 -24.953900 -15.096600
O -26.834000 -26.240000 -15.112200
H -26.238400 -26.449900 -15.644400
O -26.208900 -24.217900 -15.763400
36
Fragment
O -36.289200 -11.311800 -14.304700
H -36.259700 -9.079800 -14.423700
O -35.664000 -9.289800 -14.955900
C -35.572800 -10.575900 -14.971500
H -34.891100 -11.205300 -16.789000
C -34.511900 -11.119200 -15.900700
H -34.453900 -13.481600 -17.136800
C -34.029800 -13.564300 -16.313200
C -33.943500 -12.461200 -15.483600
H -33.785400 -10.477300 -15.953100
H -33.567400 -15.525700 -16.509400
C -33.498500 -14.791700 -15.942200
C -33.302100 -12.613900 -14.262300
H -33.228500 -11.884300 -13.690000
C -32.872700 -14.907600 -14.729300
C -32.769900 -13.829000 -13.881900
H -32.345100 -13.917400 -13.059600
Cl -32.176100 -16.439000 -14.266000
Cl -30.322000 -19.090800 -15.802100
H -30.152900 -21.612400 -17.008500
C -29.728100 -21.700800 -16.186100
C -29.625400 -20.622200 -15.338700
H -29.269500 -23.645400 -16.378100
C -29.196000 -22.915900 -15.805800
C -28.999600 -20.738100 -14.125900
H -28.930700 -20.004000 -13.558700
H -28.712600 -25.052400 -14.115000
C -28.554600 -23.068500 -14.584500
C -28.468300 -21.965400 -13.754800
H -28.044200 -22.048200 -12.931300
C -27.986200 -24.410500 -14.167400
H -27.607000 -24.324500 -13.279100
C -26.925200 -24.953900 -15.096600
O -26.834000 -26.240000 -15.112200
H -26.238400 -26.449900 -15.644400
O -26.208900 -24.217900 -15.763400
