18
Fragment
Cl -46.331300 -9.725600 -16.753100
H -45.400400 -7.939100 -14.829000
C -45.287000 -9.866200 -15.374600
C -45.031600 -8.764200 -14.612200
H -44.941400 -11.829500 -15.614100
C -44.747100 -11.093600 -15.080100
C -44.216100 -8.903400 -13.517000
H -44.036700 -13.221000 -13.564300
H -44.031400 -8.165600 -12.981000
C -43.912900 -11.232200 -13.987600
C -43.671100 -10.123000 -13.207200
C -43.316400 -12.579100 -13.669100
H -43.129300 -10.202900 -12.456500
H -42.849100 -12.520200 -12.821100
C -42.362600 -13.090700 -14.710400
O -42.291900 -14.368000 -14.765700
H -41.797600 -14.614800 -15.385400
O -41.732000 -12.346900 -15.432800
15
Fragment
H -41.995100 -14.539300 -10.205000
N -41.499600 -14.088500 -10.741000
H -41.464100 -13.224900 -10.707400
N -40.778700 -16.073100 -11.585000
C -40.751200 -14.718000 -11.629200
H -40.457900 -18.484900 -11.897100
N -40.031000 -18.033400 -12.486500
C -40.031000 -16.726000 -12.486500
N -40.031000 -13.995200 -12.486500
H -39.604000 -18.484900 -13.075900
C -39.310700 -14.718000 -13.343800
N -39.283200 -16.073100 -13.388000
H -38.597800 -13.224900 -14.265600
N -38.562300 -14.088500 -14.232000
H -38.066800 -14.539300 -14.768000
33
Fragment
Cl -46.331300 -9.725600 -16.753100
H -45.400400 -7.939100 -14.829000
C -45.287000 -9.866200 -15.374600
C -45.031600 -8.764200 -14.612200
H -44.941400 -11.829500 -15.614100
C -44.747100 -11.093600 -15.080100
C -44.216100 -8.903400 -13.517000
H -44.036700 -13.221000 -13.564300
H -44.031400 -8.165600 -12.981000
C -43.912900 -11.232200 -13.987600
C -43.671100 -10.123000 -13.207200
C -43.316400 -12.579100 -13.669100
H -43.129300 -10.202900 -12.456500
H -42.849100 -12.520200 -12.821100
C -42.362600 -13.090700 -14.710400
O -42.291900 -14.368000 -14.765700
H -41.797600 -14.614800 -15.385400
O -41.732000 -12.346900 -15.432800
H -41.995100 -14.539300 -10.205000
N -41.499600 -14.088500 -10.741000
H -41.464100 -13.224900 -10.707400
N -40.778700 -16.073100 -11.585000
C -40.751200 -14.718000 -11.629200
H -40.457900 -18.484900 -11.897100
N -40.031000 -18.033400 -12.486500
C -40.031000 -16.726000 -12.486500
N -40.031000 -13.995200 -12.486500
H -39.604000 -18.484900 -13.075900
C -39.310700 -14.718000 -13.343800
N -39.283200 -16.073100 -13.388000
H -38.597800 -13.224900 -14.265600
N -38.562300 -14.088500 -14.232000
H -38.066800 -14.539300 -14.768000
