18
Fragment
O -36.289200 -11.311800 -14.304700
H -36.259700 -9.079800 -14.423700
O -35.664000 -9.289800 -14.955900
C -35.572800 -10.575900 -14.971500
H -34.891100 -11.205300 -16.789000
C -34.511900 -11.119200 -15.900700
H -34.453900 -13.481600 -17.136800
C -34.029800 -13.564300 -16.313200
C -33.943500 -12.461200 -15.483600
H -33.785400 -10.477300 -15.953100
H -33.567400 -15.525700 -16.509400
C -33.498500 -14.791700 -15.942200
C -33.302100 -12.613900 -14.262300
H -33.228500 -11.884300 -13.690000
C -32.872700 -14.907600 -14.729300
C -32.769900 -13.829000 -13.881900
H -32.345100 -13.917400 -13.059600
Cl -32.176100 -16.439000 -14.266000
15
Fragment
H -39.773700 -9.037200 -15.522100
H -39.272500 -10.394400 -15.986200
N -39.260800 -9.525500 -15.995500
N -38.432200 -7.535100 -16.743800
C -38.398300 -8.894400 -16.782800
H -38.137500 -5.210200 -16.986500
N -37.568000 -9.617200 -17.539700
C -37.568000 -6.888000 -17.539700
N -37.568000 -5.557800 -17.539700
H -36.998500 -5.210200 -18.093000
C -36.737600 -8.894400 -18.296600
N -36.703700 -7.535100 -18.335600
N -35.875200 -9.525500 -19.083900
H -35.863500 -10.394400 -19.093200
H -35.362300 -9.037200 -19.557300
33
Fragment
O -36.289200 -11.311800 -14.304700
H -36.259700 -9.079800 -14.423700
O -35.664000 -9.289800 -14.955900
C -35.572800 -10.575900 -14.971500
H -34.891100 -11.205300 -16.789000
C -34.511900 -11.119200 -15.900700
H -34.453900 -13.481600 -17.136800
C -34.029800 -13.564300 -16.313200
C -33.943500 -12.461200 -15.483600
H -33.785400 -10.477300 -15.953100
H -33.567400 -15.525700 -16.509400
C -33.498500 -14.791700 -15.942200
C -33.302100 -12.613900 -14.262300
H -33.228500 -11.884300 -13.690000
C -32.872700 -14.907600 -14.729300
C -32.769900 -13.829000 -13.881900
H -32.345100 -13.917400 -13.059600
Cl -32.176100 -16.439000 -14.266000
H -39.773700 -9.037200 -15.522100
H -39.272500 -10.394400 -15.986200
N -39.260800 -9.525500 -15.995500
N -38.432200 -7.535100 -16.743800
C -38.398300 -8.894400 -16.782800
H -38.137500 -5.210200 -16.986500
N -37.568000 -9.617200 -17.539700
C -37.568000 -6.888000 -17.539700
N -37.568000 -5.557800 -17.539700
H -36.998500 -5.210200 -18.093000
C -36.737600 -8.894400 -18.296600
N -36.703700 -7.535100 -18.335600
N -35.875200 -9.525500 -19.083900
H -35.863500 -10.394400 -19.093200
H -35.362300 -9.037200 -19.557300
