18
Fragment
Cl -46.331300 -9.725600 -16.753100
H -45.400400 -7.939100 -14.829000
C -45.287000 -9.866200 -15.374600
C -45.031600 -8.764200 -14.612200
H -44.941400 -11.829500 -15.614100
C -44.747100 -11.093600 -15.080100
C -44.216100 -8.903400 -13.517000
H -44.036700 -13.221000 -13.564300
H -44.031400 -8.165600 -12.981000
C -43.912900 -11.232200 -13.987600
C -43.671100 -10.123000 -13.207200
C -43.316400 -12.579100 -13.669100
H -43.129300 -10.202900 -12.456500
H -42.849100 -12.520200 -12.821100
C -42.362600 -13.090700 -14.710400
O -42.291900 -14.368000 -14.765700
H -41.797600 -14.614800 -15.385400
O -41.732000 -12.346900 -15.432800
18
Fragment
Cl -46.331300 -6.006200 -11.758500
H -45.400400 -7.792700 -9.834400
C -45.287000 -5.865600 -10.380000
C -45.031600 -6.967600 -9.617600
H -44.941400 -3.902300 -10.619500
C -44.747100 -4.638200 -10.085500
C -44.216100 -6.828400 -8.522400
H -44.036700 -2.510800 -8.569700
H -44.031400 -7.566200 -7.986400
C -43.912900 -4.499600 -8.993000
C -43.671100 -5.608800 -8.212600
C -43.316400 -3.152700 -8.674500
H -43.129300 -5.528900 -7.461900
H -42.849100 -3.211600 -7.826500
C -42.362600 -2.641100 -9.715800
O -42.291900 -1.363800 -9.771100
H -41.797600 -1.117000 -10.390800
O -41.732000 -3.384900 -10.438200
36
Fragment
Cl -46.331300 -9.725600 -16.753100
H -45.400400 -7.939100 -14.829000
C -45.287000 -9.866200 -15.374600
C -45.031600 -8.764200 -14.612200
H -44.941400 -11.829500 -15.614100
C -44.747100 -11.093600 -15.080100
C -44.216100 -8.903400 -13.517000
H -44.036700 -13.221000 -13.564300
H -44.031400 -8.165600 -12.981000
C -43.912900 -11.232200 -13.987600
C -43.671100 -10.123000 -13.207200
C -43.316400 -12.579100 -13.669100
H -43.129300 -10.202900 -12.456500
H -42.849100 -12.520200 -12.821100
C -42.362600 -13.090700 -14.710400
O -42.291900 -14.368000 -14.765700
H -41.797600 -14.614800 -15.385400
O -41.732000 -12.346900 -15.432800
Cl -46.331300 -6.006200 -11.758500
H -45.400400 -7.792700 -9.834400
C -45.287000 -5.865600 -10.380000
C -45.031600 -6.967600 -9.617600
H -44.941400 -3.902300 -10.619500
C -44.747100 -4.638200 -10.085500
C -44.216100 -6.828400 -8.522400
H -44.036700 -2.510800 -8.569700
H -44.031400 -7.566200 -7.986400
C -43.912900 -4.499600 -8.993000
C -43.671100 -5.608800 -8.212600
C -43.316400 -3.152700 -8.674500
H -43.129300 -5.528900 -7.461900
H -42.849100 -3.211600 -7.826500
C -42.362600 -2.641100 -9.715800
O -42.291900 -1.363800 -9.771100
H -41.797600 -1.117000 -10.390800
O -41.732000 -3.384900 -10.438200
