18
Fragment
Cl -46.331300 -9.725600 -16.753100
H -45.400400 -7.939100 -14.829000
C -45.287000 -9.866200 -15.374600
C -45.031600 -8.764200 -14.612200
H -44.941400 -11.829500 -15.614100
C -44.747100 -11.093600 -15.080100
C -44.216100 -8.903400 -13.517000
H -44.036700 -13.221000 -13.564300
H -44.031400 -8.165600 -12.981000
C -43.912900 -11.232200 -13.987600
C -43.671100 -10.123000 -13.207200
C -43.316400 -12.579100 -13.669100
H -43.129300 -10.202900 -12.456500
H -42.849100 -12.520200 -12.821100
C -42.362600 -13.090700 -14.710400
O -42.291900 -14.368000 -14.765700
H -41.797600 -14.614800 -15.385400
O -41.732000 -12.346900 -15.432800
18
Fragment
O -51.673600 -7.317800 -10.438200
H -51.607900 -5.049900 -10.390800
O -51.113700 -5.296700 -9.771100
C -51.042900 -6.574100 -9.715800
H -50.556400 -7.144600 -7.826500
H -50.276200 -9.461900 -7.461900
C -50.089100 -7.085700 -8.674500
C -49.734500 -9.541700 -8.212600
C -49.492700 -8.432600 -8.993000
H -49.374200 -11.499200 -7.986400
H -49.368800 -6.443700 -8.569700
C -49.189500 -10.761300 -8.522400
C -48.658400 -8.571200 -10.085500
H -48.464100 -7.835200 -10.619500
C -48.373900 -10.900600 -9.617600
C -48.118500 -9.798600 -10.380000
H -48.005100 -11.725700 -9.834400
Cl -47.074300 -9.939200 -11.758500
36
Fragment
Cl -46.331300 -9.725600 -16.753100
H -45.400400 -7.939100 -14.829000
C -45.287000 -9.866200 -15.374600
C -45.031600 -8.764200 -14.612200
H -44.941400 -11.829500 -15.614100
C -44.747100 -11.093600 -15.080100
C -44.216100 -8.903400 -13.517000
H -44.036700 -13.221000 -13.564300
H -44.031400 -8.165600 -12.981000
C -43.912900 -11.232200 -13.987600
C -43.671100 -10.123000 -13.207200
C -43.316400 -12.579100 -13.669100
H -43.129300 -10.202900 -12.456500
H -42.849100 -12.520200 -12.821100
C -42.362600 -13.090700 -14.710400
O -42.291900 -14.368000 -14.765700
H -41.797600 -14.614800 -15.385400
O -41.732000 -12.346900 -15.432800
O -51.673600 -7.317800 -10.438200
H -51.607900 -5.049900 -10.390800
O -51.113700 -5.296700 -9.771100
C -51.042900 -6.574100 -9.715800
H -50.556400 -7.144600 -7.826500
H -50.276200 -9.461900 -7.461900
C -50.089100 -7.085700 -8.674500
C -49.734500 -9.541700 -8.212600
C -49.492700 -8.432600 -8.993000
H -49.374200 -11.499200 -7.986400
H -49.368800 -6.443700 -8.569700
C -49.189500 -10.761300 -8.522400
C -48.658400 -8.571200 -10.085500
H -48.464100 -7.835200 -10.619500
C -48.373900 -10.900600 -9.617600
C -48.118500 -9.798600 -10.380000
H -48.005100 -11.725700 -9.834400
Cl -47.074300 -9.939200 -11.758500
