18
Fragment
O -36.289200 -11.311800 -14.304700
H -36.259700 -9.079800 -14.423700
O -35.664000 -9.289800 -14.955900
C -35.572800 -10.575900 -14.971500
H -34.891100 -11.205300 -16.789000
C -34.511900 -11.119200 -15.900700
H -34.453900 -13.481600 -17.136800
C -34.029800 -13.564300 -16.313200
C -33.943500 -12.461200 -15.483600
H -33.785400 -10.477300 -15.953100
H -33.567400 -15.525700 -16.509400
C -33.498500 -14.791700 -15.942200
C -33.302100 -12.613900 -14.262300
H -33.228500 -11.884300 -13.690000
C -32.872700 -14.907600 -14.729300
C -32.769900 -13.829000 -13.881900
H -32.345100 -13.917400 -13.059600
Cl -32.176100 -16.439000 -14.266000
18
Fragment
O -36.980400 -20.270200 -9.293300
H -36.951000 -22.502200 -9.412300
O -36.355300 -22.292200 -9.944500
C -36.264100 -21.006100 -9.960200
H -35.582300 -20.376700 -11.777700
C -35.203200 -20.462800 -10.889400
H -35.145200 -18.100400 -12.125500
C -34.721100 -18.017700 -11.301900
C -34.634800 -19.120800 -10.472200
H -34.476700 -21.104700 -10.941800
H -34.258700 -16.056300 -11.498000
C -34.189800 -16.790300 -10.930800
C -33.993400 -18.968100 -9.250900
H -33.919800 -19.697700 -8.678600
C -33.564000 -16.674400 -9.718000
C -33.461200 -17.753000 -8.870600
H -33.036400 -17.664600 -8.048200
Cl -32.867300 -15.143000 -9.254700
36
Fragment
O -36.289200 -11.311800 -14.304700
H -36.259700 -9.079800 -14.423700
O -35.664000 -9.289800 -14.955900
C -35.572800 -10.575900 -14.971500
H -34.891100 -11.205300 -16.789000
C -34.511900 -11.119200 -15.900700
H -34.453900 -13.481600 -17.136800
C -34.029800 -13.564300 -16.313200
C -33.943500 -12.461200 -15.483600
H -33.785400 -10.477300 -15.953100
H -33.567400 -15.525700 -16.509400
C -33.498500 -14.791700 -15.942200
C -33.302100 -12.613900 -14.262300
H -33.228500 -11.884300 -13.690000
C -32.872700 -14.907600 -14.729300
C -32.769900 -13.829000 -13.881900
H -32.345100 -13.917400 -13.059600
Cl -32.176100 -16.439000 -14.266000
O -36.980400 -20.270200 -9.293300
H -36.951000 -22.502200 -9.412300
O -36.355300 -22.292200 -9.944500
C -36.264100 -21.006100 -9.960200
H -35.582300 -20.376700 -11.777700
C -35.203200 -20.462800 -10.889400
H -35.145200 -18.100400 -12.125500
C -34.721100 -18.017700 -11.301900
C -34.634800 -19.120800 -10.472200
H -34.476700 -21.104700 -10.941800
H -34.258700 -16.056300 -11.498000
C -34.189800 -16.790300 -10.930800
C -33.993400 -18.968100 -9.250900
H -33.919800 -19.697700 -8.678600
C -33.564000 -16.674400 -9.718000
C -33.461200 -17.753000 -8.870600
H -33.036400 -17.664600 -8.048200
Cl -32.867300 -15.143000 -9.254700
