18
Fragment
O -36.289200 -11.311800 -14.304700
H -36.259700 -9.079800 -14.423700
O -35.664000 -9.289800 -14.955900
C -35.572800 -10.575900 -14.971500
H -34.891100 -11.205300 -16.789000
C -34.511900 -11.119200 -15.900700
H -34.453900 -13.481600 -17.136800
C -34.029800 -13.564300 -16.313200
C -33.943500 -12.461200 -15.483600
H -33.785400 -10.477300 -15.953100
H -33.567400 -15.525700 -16.509400
C -33.498500 -14.791700 -15.942200
C -33.302100 -12.613900 -14.262300
H -33.228500 -11.884300 -13.690000
C -32.872700 -14.907600 -14.729300
C -32.769900 -13.829000 -13.881900
H -32.345100 -13.917400 -13.059600
Cl -32.176100 -16.439000 -14.266000
18
Fragment
O -36.289200 -3.416300 -14.304700
H -36.259700 -1.184300 -14.423700
O -35.664000 -1.394300 -14.955900
C -35.572800 -2.680400 -14.971500
H -34.891100 -3.309800 -16.789000
C -34.511900 -3.223700 -15.900700
H -34.453900 -5.586100 -17.136800
C -34.029800 -5.668800 -16.313200
C -33.943500 -4.565700 -15.483600
H -33.785400 -2.581800 -15.953100
H -33.567400 -7.630200 -16.509400
C -33.498500 -6.896200 -15.942200
C -33.302100 -4.718400 -14.262300
H -33.228500 -3.988800 -13.690000
C -32.872700 -7.012100 -14.729300
C -32.769900 -5.933500 -13.881900
H -32.345100 -6.021900 -13.059600
Cl -32.176100 -8.543500 -14.266000
36
Fragment
O -36.289200 -11.311800 -14.304700
H -36.259700 -9.079800 -14.423700
O -35.664000 -9.289800 -14.955900
C -35.572800 -10.575900 -14.971500
H -34.891100 -11.205300 -16.789000
C -34.511900 -11.119200 -15.900700
H -34.453900 -13.481600 -17.136800
C -34.029800 -13.564300 -16.313200
C -33.943500 -12.461200 -15.483600
H -33.785400 -10.477300 -15.953100
H -33.567400 -15.525700 -16.509400
C -33.498500 -14.791700 -15.942200
C -33.302100 -12.613900 -14.262300
H -33.228500 -11.884300 -13.690000
C -32.872700 -14.907600 -14.729300
C -32.769900 -13.829000 -13.881900
H -32.345100 -13.917400 -13.059600
Cl -32.176100 -16.439000 -14.266000
O -36.289200 -3.416300 -14.304700
H -36.259700 -1.184300 -14.423700
O -35.664000 -1.394300 -14.955900
C -35.572800 -2.680400 -14.971500
H -34.891100 -3.309800 -16.789000
C -34.511900 -3.223700 -15.900700
H -34.453900 -5.586100 -17.136800
C -34.029800 -5.668800 -16.313200
C -33.943500 -4.565700 -15.483600
H -33.785400 -2.581800 -15.953100
H -33.567400 -7.630200 -16.509400
C -33.498500 -6.896200 -15.942200
C -33.302100 -4.718400 -14.262300
H -33.228500 -3.988800 -13.690000
C -32.872700 -7.012100 -14.729300
C -32.769900 -5.933500 -13.881900
H -32.345100 -6.021900 -13.059600
Cl -32.176100 -8.543500 -14.266000
