16
Fragment
Cl -20.278000 -17.866600 -7.993500
Cl -20.246600 -23.140200 -9.441500
H -19.502700 -22.993300 -7.361700
N -19.126000 -20.136100 -8.170500
C -19.057600 -23.150100 -8.125900
C -18.885200 -18.861300 -8.201300
H -18.775300 -23.969700 -8.081400
N -18.003900 -20.880500 -8.354900
C -17.921700 -22.249400 -8.372700
C -17.614400 -18.243100 -8.387100
H -17.572900 -17.378400 -8.403600
C -16.724100 -20.417000 -8.569400
N -16.674300 -22.601800 -8.595500
C -16.527700 -19.007900 -8.574900
N -15.912400 -21.453100 -8.712700
H -15.597800 -18.646300 -8.760000
16
Fragment
Cl -19.426200 -30.265400 -11.420700
Cl -19.394700 -24.991800 -12.868700
H -18.650900 -25.138700 -10.788900
N -18.274100 -27.995900 -11.597700
C -18.205800 -24.981900 -11.553200
C -18.033400 -29.270700 -11.628600
H -17.923400 -24.162300 -11.508600
N -17.152100 -27.251500 -11.782100
C -17.069800 -25.882600 -11.799900
C -16.762600 -29.888900 -11.814300
H -16.721000 -30.753600 -11.830800
C -15.872300 -27.715000 -11.996700
N -15.822400 -25.530200 -12.022700
C -15.675900 -29.124100 -12.002100
N -15.060600 -26.678900 -12.139900
H -14.745900 -29.485700 -12.187200
32
Fragment
Cl -20.278000 -17.866600 -7.993500
Cl -20.246600 -23.140200 -9.441500
H -19.502700 -22.993300 -7.361700
N -19.126000 -20.136100 -8.170500
C -19.057600 -23.150100 -8.125900
C -18.885200 -18.861300 -8.201300
H -18.775300 -23.969700 -8.081400
N -18.003900 -20.880500 -8.354900
C -17.921700 -22.249400 -8.372700
C -17.614400 -18.243100 -8.387100
H -17.572900 -17.378400 -8.403600
C -16.724100 -20.417000 -8.569400
N -16.674300 -22.601800 -8.595500
C -16.527700 -19.007900 -8.574900
N -15.912400 -21.453100 -8.712700
H -15.597800 -18.646300 -8.760000
Cl -19.426200 -30.265400 -11.420700
Cl -19.394700 -24.991800 -12.868700
H -18.650900 -25.138700 -10.788900
N -18.274100 -27.995900 -11.597700
C -18.205800 -24.981900 -11.553200
C -18.033400 -29.270700 -11.628600
H -17.923400 -24.162300 -11.508600
N -17.152100 -27.251500 -11.782100
C -17.069800 -25.882600 -11.799900
C -16.762600 -29.888900 -11.814300
H -16.721000 -30.753600 -11.830800
C -15.872300 -27.715000 -11.996700
N -15.822400 -25.530200 -12.022700
C -15.675900 -29.124100 -12.002100
N -15.060600 -26.678900 -12.139900
H -14.745900 -29.485700 -12.187200
