16
Fragment
Cl -20.278000 -17.866600 -7.993500
Cl -20.246600 -23.140200 -9.441500
H -19.502700 -22.993300 -7.361700
N -19.126000 -20.136100 -8.170500
C -19.057600 -23.150100 -8.125900
C -18.885200 -18.861300 -8.201300
H -18.775300 -23.969700 -8.081400
N -18.003900 -20.880500 -8.354900
C -17.921700 -22.249400 -8.372700
C -17.614400 -18.243100 -8.387100
H -17.572900 -17.378400 -8.403600
C -16.724100 -20.417000 -8.569400
N -16.674300 -22.601800 -8.595500
C -16.527700 -19.007900 -8.574900
N -15.912400 -21.453100 -8.712700
H -15.597800 -18.646300 -8.760000
16
Fragment
H -16.076500 -25.522300 -8.376100
N -15.761800 -28.329100 -8.423400
C -15.146500 -25.883900 -8.561200
N -15.000000 -29.477800 -8.540600
C -14.950100 -27.293000 -8.566700
H -14.101400 -24.254400 -8.732600
C -14.059800 -25.119100 -8.749000
C -13.752600 -29.125400 -8.763400
N -13.670300 -27.756500 -8.781200
H -12.899000 -30.845700 -9.054700
C -12.789000 -25.737300 -8.934800
C -12.616600 -30.026100 -9.010200
N -12.548300 -27.012100 -8.965600
H -12.171500 -29.869300 -9.774400
Cl -11.427700 -30.016200 -7.694600
Cl -11.396200 -24.742600 -9.142700
32
Fragment
Cl -20.278000 -17.866600 -7.993500
Cl -20.246600 -23.140200 -9.441500
H -19.502700 -22.993300 -7.361700
N -19.126000 -20.136100 -8.170500
C -19.057600 -23.150100 -8.125900
C -18.885200 -18.861300 -8.201300
H -18.775300 -23.969700 -8.081400
N -18.003900 -20.880500 -8.354900
C -17.921700 -22.249400 -8.372700
C -17.614400 -18.243100 -8.387100
H -17.572900 -17.378400 -8.403600
C -16.724100 -20.417000 -8.569400
N -16.674300 -22.601800 -8.595500
C -16.527700 -19.007900 -8.574900
N -15.912400 -21.453100 -8.712700
H -15.597800 -18.646300 -8.760000
H -16.076500 -25.522300 -8.376100
N -15.761800 -28.329100 -8.423400
C -15.146500 -25.883900 -8.561200
N -15.000000 -29.477800 -8.540600
C -14.950100 -27.293000 -8.566700
H -14.101400 -24.254400 -8.732600
C -14.059800 -25.119100 -8.749000
C -13.752600 -29.125400 -8.763400
N -13.670300 -27.756500 -8.781200
H -12.899000 -30.845700 -9.054700
C -12.789000 -25.737300 -8.934800
C -12.616600 -30.026100 -9.010200
N -12.548300 -27.012100 -8.965600
H -12.171500 -29.869300 -9.774400
Cl -11.427700 -30.016200 -7.694600
Cl -11.396200 -24.742600 -9.142700
