16
Fragment
Cl -20.278000 -17.866600 -7.993500
Cl -20.246600 -23.140200 -9.441500
H -19.502700 -22.993300 -7.361700
N -19.126000 -20.136100 -8.170500
C -19.057600 -23.150100 -8.125900
C -18.885200 -18.861300 -8.201300
H -18.775300 -23.969700 -8.081400
N -18.003900 -20.880500 -8.354900
C -17.921700 -22.249400 -8.372700
C -17.614400 -18.243100 -8.387100
H -17.572900 -17.378400 -8.403600
C -16.724100 -20.417000 -8.569400
N -16.674300 -22.601800 -8.595500
C -16.527700 -19.007900 -8.574900
N -15.912400 -21.453100 -8.712700
H -15.597800 -18.646300 -8.760000
16
Fragment
H -16.928300 -22.609700 -4.948900
N -16.613600 -19.802900 -4.996200
C -15.998300 -22.248100 -5.134000
N -15.851800 -18.654200 -5.113400
C -15.802000 -20.839000 -5.139500
H -14.953200 -23.877600 -5.305300
C -14.911600 -23.012900 -5.321800
C -14.604400 -19.006600 -5.336200
N -14.522100 -20.375500 -5.354000
H -13.750800 -17.286300 -5.627500
C -13.640800 -22.394700 -5.507600
C -13.468400 -18.105900 -5.582900
N -13.400100 -21.119900 -5.538400
H -13.023300 -18.262700 -6.347200
Cl -12.279500 -18.115800 -4.267400
Cl -12.248000 -23.389400 -5.715400
32
Fragment
Cl -20.278000 -17.866600 -7.993500
Cl -20.246600 -23.140200 -9.441500
H -19.502700 -22.993300 -7.361700
N -19.126000 -20.136100 -8.170500
C -19.057600 -23.150100 -8.125900
C -18.885200 -18.861300 -8.201300
H -18.775300 -23.969700 -8.081400
N -18.003900 -20.880500 -8.354900
C -17.921700 -22.249400 -8.372700
C -17.614400 -18.243100 -8.387100
H -17.572900 -17.378400 -8.403600
C -16.724100 -20.417000 -8.569400
N -16.674300 -22.601800 -8.595500
C -16.527700 -19.007900 -8.574900
N -15.912400 -21.453100 -8.712700
H -15.597800 -18.646300 -8.760000
H -16.928300 -22.609700 -4.948900
N -16.613600 -19.802900 -4.996200
C -15.998300 -22.248100 -5.134000
N -15.851800 -18.654200 -5.113400
C -15.802000 -20.839000 -5.139500
H -14.953200 -23.877600 -5.305300
C -14.911600 -23.012900 -5.321800
C -14.604400 -19.006600 -5.336200
N -14.522100 -20.375500 -5.354000
H -13.750800 -17.286300 -5.627500
C -13.640800 -22.394700 -5.507600
C -13.468400 -18.105900 -5.582900
N -13.400100 -21.119900 -5.538400
H -13.023300 -18.262700 -6.347200
Cl -12.279500 -18.115800 -4.267400
Cl -12.248000 -23.389400 -5.715400
