16
Fragment
Cl -20.278000 -17.866600 -7.993500
Cl -20.246600 -23.140200 -9.441500
H -19.502700 -22.993300 -7.361700
N -19.126000 -20.136100 -8.170500
C -19.057600 -23.150100 -8.125900
C -18.885200 -18.861300 -8.201300
H -18.775300 -23.969700 -8.081400
N -18.003900 -20.880500 -8.354900
C -17.921700 -22.249400 -8.372700
C -17.614400 -18.243100 -8.387100
H -17.572900 -17.378400 -8.403600
C -16.724100 -20.417000 -8.569400
N -16.674300 -22.601800 -8.595500
C -16.527700 -19.007900 -8.574900
N -15.912400 -21.453100 -8.712700
H -15.597800 -18.646300 -8.760000
16
Fragment
Cl -21.129900 -30.265400 -4.566200
Cl -21.098400 -24.991800 -6.014300
H -20.354600 -25.138700 -3.934500
N -19.977800 -27.995900 -4.743300
C -19.909500 -24.981900 -4.698700
C -19.737100 -29.270700 -4.774100
H -19.627100 -24.162300 -4.654200
N -18.855800 -27.251500 -4.927700
C -18.773500 -25.882600 -4.945500
C -18.466300 -29.888900 -4.959900
H -18.424700 -30.753600 -4.976300
C -17.575900 -27.715000 -5.142200
N -17.526100 -25.530200 -5.168300
C -17.379600 -29.124100 -5.147700
N -16.764300 -26.678900 -5.285500
H -16.449600 -29.485700 -5.332800
32
Fragment
Cl -20.278000 -17.866600 -7.993500
Cl -20.246600 -23.140200 -9.441500
H -19.502700 -22.993300 -7.361700
N -19.126000 -20.136100 -8.170500
C -19.057600 -23.150100 -8.125900
C -18.885200 -18.861300 -8.201300
H -18.775300 -23.969700 -8.081400
N -18.003900 -20.880500 -8.354900
C -17.921700 -22.249400 -8.372700
C -17.614400 -18.243100 -8.387100
H -17.572900 -17.378400 -8.403600
C -16.724100 -20.417000 -8.569400
N -16.674300 -22.601800 -8.595500
C -16.527700 -19.007900 -8.574900
N -15.912400 -21.453100 -8.712700
H -15.597800 -18.646300 -8.760000
Cl -21.129900 -30.265400 -4.566200
Cl -21.098400 -24.991800 -6.014300
H -20.354600 -25.138700 -3.934500
N -19.977800 -27.995900 -4.743300
C -19.909500 -24.981900 -4.698700
C -19.737100 -29.270700 -4.774100
H -19.627100 -24.162300 -4.654200
N -18.855800 -27.251500 -4.927700
C -18.773500 -25.882600 -4.945500
C -18.466300 -29.888900 -4.959900
H -18.424700 -30.753600 -4.976300
C -17.575900 -27.715000 -5.142200
N -17.526100 -25.530200 -5.168300
C -17.379600 -29.124100 -5.147700
N -16.764300 -26.678900 -5.285500
H -16.449600 -29.485700 -5.332800
