16
Fragment
Cl -20.278000 -17.866600 -7.993500
Cl -20.246600 -23.140200 -9.441500
H -19.502700 -22.993300 -7.361700
N -19.126000 -20.136100 -8.170500
C -19.057600 -23.150100 -8.125900
C -18.885200 -18.861300 -8.201300
H -18.775300 -23.969700 -8.081400
N -18.003900 -20.880500 -8.354900
C -17.921700 -22.249400 -8.372700
C -17.614400 -18.243100 -8.387100
H -17.572900 -17.378400 -8.403600
C -16.724100 -20.417000 -8.569400
N -16.674300 -22.601800 -8.595500
C -16.527700 -19.007900 -8.574900
N -15.912400 -21.453100 -8.712700
H -15.597800 -18.646300 -8.760000
16
Fragment
H -15.224600 -22.609700 -11.803400
N -14.910000 -19.802900 -11.850700
C -14.294700 -22.248100 -11.988400
N -14.148100 -18.654200 -11.967900
C -14.098300 -20.839000 -11.993900
H -13.249500 -23.877600 -12.159800
C -13.208000 -23.012900 -12.176200
C -12.900700 -19.006600 -12.190600
N -12.818500 -20.375500 -12.208500
H -12.047100 -17.286300 -12.482000
C -11.937200 -22.394700 -12.362000
C -11.764800 -18.105900 -12.437400
N -11.696400 -21.119900 -12.392800
H -11.319700 -18.262700 -13.201700
Cl -10.575800 -18.115800 -11.121800
Cl -10.544300 -23.389400 -12.569900
32
Fragment
Cl -20.278000 -17.866600 -7.993500
Cl -20.246600 -23.140200 -9.441500
H -19.502700 -22.993300 -7.361700
N -19.126000 -20.136100 -8.170500
C -19.057600 -23.150100 -8.125900
C -18.885200 -18.861300 -8.201300
H -18.775300 -23.969700 -8.081400
N -18.003900 -20.880500 -8.354900
C -17.921700 -22.249400 -8.372700
C -17.614400 -18.243100 -8.387100
H -17.572900 -17.378400 -8.403600
C -16.724100 -20.417000 -8.569400
N -16.674300 -22.601800 -8.595500
C -16.527700 -19.007900 -8.574900
N -15.912400 -21.453100 -8.712700
H -15.597800 -18.646300 -8.760000
H -15.224600 -22.609700 -11.803400
N -14.910000 -19.802900 -11.850700
C -14.294700 -22.248100 -11.988400
N -14.148100 -18.654200 -11.967900
C -14.098300 -20.839000 -11.993900
H -13.249500 -23.877600 -12.159800
C -13.208000 -23.012900 -12.176200
C -12.900700 -19.006600 -12.190600
N -12.818500 -20.375500 -12.208500
H -12.047100 -17.286300 -12.482000
C -11.937200 -22.394700 -12.362000
C -11.764800 -18.105900 -12.437400
N -11.696400 -21.119900 -12.392800
H -11.319700 -18.262700 -13.201700
Cl -10.575800 -18.115800 -11.121800
Cl -10.544300 -23.389400 -12.569900
