16
Fragment
Cl -20.278000 -17.866600 -7.993500
Cl -20.246600 -23.140200 -9.441500
H -19.502700 -22.993300 -7.361700
N -19.126000 -20.136100 -8.170500
C -19.057600 -23.150100 -8.125900
C -18.885200 -18.861300 -8.201300
H -18.775300 -23.969700 -8.081400
N -18.003900 -20.880500 -8.354900
C -17.921700 -22.249400 -8.372700
C -17.614400 -18.243100 -8.387100
H -17.572900 -17.378400 -8.403600
C -16.724100 -20.417000 -8.569400
N -16.674300 -22.601800 -8.595500
C -16.527700 -19.007900 -8.574900
N -15.912400 -21.453100 -8.712700
H -15.597800 -18.646300 -8.760000
8
Fragment
H -20.117300 -21.033700 -11.279000
H -20.005400 -20.788900 -12.823300
H -19.903000 -19.581500 -11.828000
C -19.691700 -20.508600 -11.960300
C -18.219300 -20.696800 -11.883600
O -17.640700 -21.744700 -12.011100
O -17.580500 -19.567200 -11.656000
H -16.706200 -19.720400 -11.577200
24
Fragment
Cl -20.278000 -17.866600 -7.993500
Cl -20.246600 -23.140200 -9.441500
H -19.502700 -22.993300 -7.361700
N -19.126000 -20.136100 -8.170500
C -19.057600 -23.150100 -8.125900
C -18.885200 -18.861300 -8.201300
H -18.775300 -23.969700 -8.081400
N -18.003900 -20.880500 -8.354900
C -17.921700 -22.249400 -8.372700
C -17.614400 -18.243100 -8.387100
H -17.572900 -17.378400 -8.403600
C -16.724100 -20.417000 -8.569400
N -16.674300 -22.601800 -8.595500
C -16.527700 -19.007900 -8.574900
N -15.912400 -21.453100 -8.712700
H -15.597800 -18.646300 -8.760000
H -20.117300 -21.033700 -11.279000
H -20.005400 -20.788900 -12.823300
H -19.903000 -19.581500 -11.828000
C -19.691700 -20.508600 -11.960300
C -18.219300 -20.696800 -11.883600
O -17.640700 -21.744700 -12.011100
O -17.580500 -19.567200 -11.656000
H -16.706200 -19.720400 -11.577200
