16
Fragment
Cl -20.278000 -17.866600 -7.993500
Cl -20.246600 -23.140200 -9.441500
H -19.502700 -22.993300 -7.361700
N -19.126000 -20.136100 -8.170500
C -19.057600 -23.150100 -8.125900
C -18.885200 -18.861300 -8.201300
H -18.775300 -23.969700 -8.081400
N -18.003900 -20.880500 -8.354900
C -17.921700 -22.249400 -8.372700
C -17.614400 -18.243100 -8.387100
H -17.572900 -17.378400 -8.403600
C -16.724100 -20.417000 -8.569400
N -16.674300 -22.601800 -8.595500
C -16.527700 -19.007900 -8.574900
N -15.912400 -21.453100 -8.712700
H -15.597800 -18.646300 -8.760000
16
Fragment
H -28.054300 -11.770300 -8.376100
N -27.739600 -14.577100 -8.423400
C -27.124300 -12.131900 -8.561200
N -26.977800 -15.725800 -8.540600
C -26.927900 -13.541000 -8.566700
H -26.079200 -10.502400 -8.732600
C -26.037600 -11.367100 -8.749000
C -25.730400 -15.373400 -8.763400
N -25.648100 -14.004500 -8.781200
H -24.876800 -17.093700 -9.054700
C -24.766800 -11.985300 -8.934800
C -24.594400 -16.274100 -9.010200
N -24.526100 -13.260100 -8.965600
H -24.149300 -16.117300 -9.774400
Cl -23.405500 -16.264200 -7.694600
Cl -23.374000 -10.990600 -9.142700
32
Fragment
Cl -20.278000 -17.866600 -7.993500
Cl -20.246600 -23.140200 -9.441500
H -19.502700 -22.993300 -7.361700
N -19.126000 -20.136100 -8.170500
C -19.057600 -23.150100 -8.125900
C -18.885200 -18.861300 -8.201300
H -18.775300 -23.969700 -8.081400
N -18.003900 -20.880500 -8.354900
C -17.921700 -22.249400 -8.372700
C -17.614400 -18.243100 -8.387100
H -17.572900 -17.378400 -8.403600
C -16.724100 -20.417000 -8.569400
N -16.674300 -22.601800 -8.595500
C -16.527700 -19.007900 -8.574900
N -15.912400 -21.453100 -8.712700
H -15.597800 -18.646300 -8.760000
H -28.054300 -11.770300 -8.376100
N -27.739600 -14.577100 -8.423400
C -27.124300 -12.131900 -8.561200
N -26.977800 -15.725800 -8.540600
C -26.927900 -13.541000 -8.566700
H -26.079200 -10.502400 -8.732600
C -26.037600 -11.367100 -8.749000
C -25.730400 -15.373400 -8.763400
N -25.648100 -14.004500 -8.781200
H -24.876800 -17.093700 -9.054700
C -24.766800 -11.985300 -8.934800
C -24.594400 -16.274100 -9.010200
N -24.526100 -13.260100 -8.965600
H -24.149300 -16.117300 -9.774400
Cl -23.405500 -16.264200 -7.694600
Cl -23.374000 -10.990600 -9.142700
