15
Fragment
O -27.667400 -13.079800 -23.375500
C -26.478400 -12.651700 -23.347600
H -26.278000 -11.663900 -25.125900
H -26.068700 -13.456000 -21.593700
C -25.831600 -11.887500 -24.317400
N -25.714200 -12.954700 -22.222900
C -24.526700 -11.453000 -24.092600
C -24.449900 -12.509200 -22.060700
H -24.252200 -10.480200 -25.738400
H -24.210100 -13.344300 -20.321200
N -23.861900 -10.716300 -24.986100
N -23.825400 -11.765500 -22.953100
N -23.805800 -12.848400 -20.926500
H -23.034400 -10.466800 -24.821800
H -22.980800 -12.573800 -20.789600
15
Fragment
H -23.704500 -7.412300 -24.555200
H -22.981500 -6.674100 -23.333200
C -22.882500 -7.363500 -24.023500
H -22.717700 -8.230900 -23.598300
H -22.265600 -5.196000 -25.582700
N -21.750200 -7.022000 -24.899700
C -21.497900 -5.595100 -25.120200
H -21.369000 -5.148800 -24.256900
O -21.343000 -9.191100 -25.281600
C -21.054700 -7.990800 -25.481900
H -20.693400 -5.486500 -25.669200
H -20.212800 -7.007800 -27.075700
C -19.897400 -7.604400 -26.366700
H -19.508000 -8.410300 -26.765900
H -19.216300 -7.144000 -25.830600
30
Fragment
O -27.667400 -13.079800 -23.375500
C -26.478400 -12.651700 -23.347600
H -26.278000 -11.663900 -25.125900
H -26.068700 -13.456000 -21.593700
C -25.831600 -11.887500 -24.317400
N -25.714200 -12.954700 -22.222900
C -24.526700 -11.453000 -24.092600
C -24.449900 -12.509200 -22.060700
H -24.252200 -10.480200 -25.738400
H -24.210100 -13.344300 -20.321200
N -23.861900 -10.716300 -24.986100
N -23.825400 -11.765500 -22.953100
N -23.805800 -12.848400 -20.926500
H -23.034400 -10.466800 -24.821800
H -22.980800 -12.573800 -20.789600
H -23.704500 -7.412300 -24.555200
H -22.981500 -6.674100 -23.333200
C -22.882500 -7.363500 -24.023500
H -22.717700 -8.230900 -23.598300
H -22.265600 -5.196000 -25.582700
N -21.750200 -7.022000 -24.899700
C -21.497900 -5.595100 -25.120200
H -21.369000 -5.148800 -24.256900
O -21.343000 -9.191100 -25.281600
C -21.054700 -7.990800 -25.481900
H -20.693400 -5.486500 -25.669200
H -20.212800 -7.007800 -27.075700
C -19.897400 -7.604400 -26.366700
H -19.508000 -8.410300 -26.765900
H -19.216300 -7.144000 -25.830600
