15
Fragment
H -19.728600 -21.595200 -23.714100
O -19.584300 -20.891600 -26.039200
H -19.419600 -22.771100 -21.823800
N -19.231200 -22.152700 -24.179700
C -19.034700 -21.906500 -25.545700
N -18.917600 -23.362000 -22.240300
C -18.675000 -23.229300 -23.549600
H -18.575100 -24.040300 -21.796100
C -18.238700 -22.836100 -26.214900
H -18.057800 -22.731200 -27.141300
N -17.920200 -24.115000 -24.179700
C -17.710800 -23.916200 -25.518100
N -16.947100 -24.854800 -26.109700
H -16.766600 -24.797900 -26.968700
H -16.629600 -25.525400 -25.636900
16
Fragment
H -19.799700 -27.442100 -28.554600
C -18.826700 -27.274400 -28.480200
H -18.778100 -29.125400 -27.558100
H -18.681700 -26.477700 -27.911400
O -18.456100 -26.117800 -30.619900
C -18.198600 -27.073200 -29.876600
C -18.123200 -28.471100 -27.908200
H -17.713000 -29.939500 -29.383300
H -17.519400 -28.200700 -27.172300
N -17.400800 -28.084900 -30.092400
C -17.311000 -29.087600 -29.078800
H -17.179300 -28.771000 -31.954200
C -16.668000 -28.217400 -31.328900
H -16.523700 -27.330400 -31.719700
H -16.370300 -29.248000 -28.816700
H -15.801800 -28.640600 -31.151500
31
Fragment
H -19.728600 -21.595200 -23.714100
O -19.584300 -20.891600 -26.039200
H -19.419600 -22.771100 -21.823800
N -19.231200 -22.152700 -24.179700
C -19.034700 -21.906500 -25.545700
N -18.917600 -23.362000 -22.240300
C -18.675000 -23.229300 -23.549600
H -18.575100 -24.040300 -21.796100
C -18.238700 -22.836100 -26.214900
H -18.057800 -22.731200 -27.141300
N -17.920200 -24.115000 -24.179700
C -17.710800 -23.916200 -25.518100
N -16.947100 -24.854800 -26.109700
H -16.766600 -24.797900 -26.968700
H -16.629600 -25.525400 -25.636900
H -19.799700 -27.442100 -28.554600
C -18.826700 -27.274400 -28.480200
H -18.778100 -29.125400 -27.558100
H -18.681700 -26.477700 -27.911400
O -18.456100 -26.117800 -30.619900
C -18.198600 -27.073200 -29.876600
C -18.123200 -28.471100 -27.908200
H -17.713000 -29.939500 -29.383300
H -17.519400 -28.200700 -27.172300
N -17.400800 -28.084900 -30.092400
C -17.311000 -29.087600 -29.078800
H -17.179300 -28.771000 -31.954200
C -16.668000 -28.217400 -31.328900
H -16.523700 -27.330400 -31.719700
H -16.370300 -29.248000 -28.816700
H -15.801800 -28.640600 -31.151500
