15
Fragment
O -27.667400 -13.079800 -23.375500
C -26.478400 -12.651700 -23.347600
H -26.278000 -11.663900 -25.125900
H -26.068700 -13.456000 -21.593700
C -25.831600 -11.887500 -24.317400
N -25.714200 -12.954700 -22.222900
C -24.526700 -11.453000 -24.092600
C -24.449900 -12.509200 -22.060700
H -24.252200 -10.480200 -25.738400
H -24.210100 -13.344300 -20.321200
N -23.861900 -10.716300 -24.986100
N -23.825400 -11.765500 -22.953100
N -23.805800 -12.848400 -20.926500
H -23.034400 -10.466800 -24.821800
H -22.980800 -12.573800 -20.789600
15
Fragment
H -33.279200 -11.347500 -24.555200
H -32.556200 -10.609300 -23.333200
C -32.457200 -11.298700 -24.023500
H -32.292400 -12.166100 -23.598300
H -31.840300 -9.131200 -25.582700
N -31.324900 -10.957200 -24.899700
C -31.072600 -9.530300 -25.120200
H -30.943700 -9.084000 -24.256900
O -30.917700 -13.126300 -25.281600
C -30.629400 -11.926000 -25.481900
H -30.268100 -9.421700 -25.669200
H -29.787500 -10.943000 -27.075700
C -29.472100 -11.539600 -26.366700
H -29.082700 -12.345500 -26.765900
H -28.791000 -11.079200 -25.830600
30
Fragment
O -27.667400 -13.079800 -23.375500
C -26.478400 -12.651700 -23.347600
H -26.278000 -11.663900 -25.125900
H -26.068700 -13.456000 -21.593700
C -25.831600 -11.887500 -24.317400
N -25.714200 -12.954700 -22.222900
C -24.526700 -11.453000 -24.092600
C -24.449900 -12.509200 -22.060700
H -24.252200 -10.480200 -25.738400
H -24.210100 -13.344300 -20.321200
N -23.861900 -10.716300 -24.986100
N -23.825400 -11.765500 -22.953100
N -23.805800 -12.848400 -20.926500
H -23.034400 -10.466800 -24.821800
H -22.980800 -12.573800 -20.789600
H -33.279200 -11.347500 -24.555200
H -32.556200 -10.609300 -23.333200
C -32.457200 -11.298700 -24.023500
H -32.292400 -12.166100 -23.598300
H -31.840300 -9.131200 -25.582700
N -31.324900 -10.957200 -24.899700
C -31.072600 -9.530300 -25.120200
H -30.943700 -9.084000 -24.256900
O -30.917700 -13.126300 -25.281600
C -30.629400 -11.926000 -25.481900
H -30.268100 -9.421700 -25.669200
H -29.787500 -10.943000 -27.075700
C -29.472100 -11.539600 -26.366700
H -29.082700 -12.345500 -26.765900
H -28.791000 -11.079200 -25.830600
