15
Fragment
O -27.667400 -13.079800 -23.375500
C -26.478400 -12.651700 -23.347600
H -26.278000 -11.663900 -25.125900
H -26.068700 -13.456000 -21.593700
C -25.831600 -11.887500 -24.317400
N -25.714200 -12.954700 -22.222900
C -24.526700 -11.453000 -24.092600
C -24.449900 -12.509200 -22.060700
H -24.252200 -10.480200 -25.738400
H -24.210100 -13.344300 -20.321200
N -23.861900 -10.716300 -24.986100
N -23.825400 -11.765500 -22.953100
N -23.805800 -12.848400 -20.926500
H -23.034400 -10.466800 -24.821800
H -22.980800 -12.573800 -20.789600
15
Fragment
H -29.663000 -16.674200 -29.744700
H -29.414000 -14.609000 -25.654800
N -28.834800 -16.955200 -29.641400
N -28.751200 -15.921800 -27.584500
N -28.599600 -14.916800 -25.522200
H -28.451000 -17.436100 -30.270700
H -28.172900 -14.725500 -24.775700
C -28.157500 -16.649800 -28.524100
C -28.011800 -15.674700 -26.451700
N -26.893900 -17.118100 -28.412800
C -26.725600 -16.184700 -26.247100
H -26.549500 -17.577000 -29.080300
H -26.271900 -16.047700 -25.422800
C -26.124800 -16.900100 -27.284700
O -24.941500 -17.362100 -27.276500
30
Fragment
O -27.667400 -13.079800 -23.375500
C -26.478400 -12.651700 -23.347600
H -26.278000 -11.663900 -25.125900
H -26.068700 -13.456000 -21.593700
C -25.831600 -11.887500 -24.317400
N -25.714200 -12.954700 -22.222900
C -24.526700 -11.453000 -24.092600
C -24.449900 -12.509200 -22.060700
H -24.252200 -10.480200 -25.738400
H -24.210100 -13.344300 -20.321200
N -23.861900 -10.716300 -24.986100
N -23.825400 -11.765500 -22.953100
N -23.805800 -12.848400 -20.926500
H -23.034400 -10.466800 -24.821800
H -22.980800 -12.573800 -20.789600
H -29.663000 -16.674200 -29.744700
H -29.414000 -14.609000 -25.654800
N -28.834800 -16.955200 -29.641400
N -28.751200 -15.921800 -27.584500
N -28.599600 -14.916800 -25.522200
H -28.451000 -17.436100 -30.270700
H -28.172900 -14.725500 -24.775700
C -28.157500 -16.649800 -28.524100
C -28.011800 -15.674700 -26.451700
N -26.893900 -17.118100 -28.412800
C -26.725600 -16.184700 -26.247100
H -26.549500 -17.577000 -29.080300
H -26.271900 -16.047700 -25.422800
C -26.124800 -16.900100 -27.284700
O -24.941500 -17.362100 -27.276500
