15
Fragment
O -27.667400 -13.079800 -23.375500
C -26.478400 -12.651700 -23.347600
H -26.278000 -11.663900 -25.125900
H -26.068700 -13.456000 -21.593700
C -25.831600 -11.887500 -24.317400
N -25.714200 -12.954700 -22.222900
C -24.526700 -11.453000 -24.092600
C -24.449900 -12.509200 -22.060700
H -24.252200 -10.480200 -25.738400
H -24.210100 -13.344300 -20.321200
N -23.861900 -10.716300 -24.986100
N -23.825400 -11.765500 -22.953100
N -23.805800 -12.848400 -20.926500
H -23.034400 -10.466800 -24.821800
H -22.980800 -12.573800 -20.789600
15
Fragment
H -22.001200 -10.872200 -22.539100
H -21.752300 -12.937400 -18.449200
N -21.173100 -10.591200 -22.435800
N -21.089500 -11.624600 -20.378900
N -20.937800 -12.629600 -18.316600
H -20.789200 -10.110300 -23.065100
H -20.511200 -12.820900 -17.570100
C -20.495700 -10.896600 -21.318500
C -20.350000 -11.871700 -19.246100
N -19.232100 -10.428300 -21.207200
C -19.063900 -11.361700 -19.041500
H -18.887700 -9.969400 -21.874700
H -18.610200 -11.498700 -18.217200
C -18.463100 -10.646300 -20.079100
O -17.279700 -10.184300 -20.070900
30
Fragment
O -27.667400 -13.079800 -23.375500
C -26.478400 -12.651700 -23.347600
H -26.278000 -11.663900 -25.125900
H -26.068700 -13.456000 -21.593700
C -25.831600 -11.887500 -24.317400
N -25.714200 -12.954700 -22.222900
C -24.526700 -11.453000 -24.092600
C -24.449900 -12.509200 -22.060700
H -24.252200 -10.480200 -25.738400
H -24.210100 -13.344300 -20.321200
N -23.861900 -10.716300 -24.986100
N -23.825400 -11.765500 -22.953100
N -23.805800 -12.848400 -20.926500
H -23.034400 -10.466800 -24.821800
H -22.980800 -12.573800 -20.789600
H -22.001200 -10.872200 -22.539100
H -21.752300 -12.937400 -18.449200
N -21.173100 -10.591200 -22.435800
N -21.089500 -11.624600 -20.378900
N -20.937800 -12.629600 -18.316600
H -20.789200 -10.110300 -23.065100
H -20.511200 -12.820900 -17.570100
C -20.495700 -10.896600 -21.318500
C -20.350000 -11.871700 -19.246100
N -19.232100 -10.428300 -21.207200
C -19.063900 -11.361700 -19.041500
H -18.887700 -9.969400 -21.874700
H -18.610200 -11.498700 -18.217200
C -18.463100 -10.646300 -20.079100
O -17.279700 -10.184300 -20.070900
