15
Fragment
O -27.667400 -13.079800 -23.375500
C -26.478400 -12.651700 -23.347600
H -26.278000 -11.663900 -25.125900
H -26.068700 -13.456000 -21.593700
C -25.831600 -11.887500 -24.317400
N -25.714200 -12.954700 -22.222900
C -24.526700 -11.453000 -24.092600
C -24.449900 -12.509200 -22.060700
H -24.252200 -10.480200 -25.738400
H -24.210100 -13.344300 -20.321200
N -23.861900 -10.716300 -24.986100
N -23.825400 -11.765500 -22.953100
N -23.805800 -12.848400 -20.926500
H -23.034400 -10.466800 -24.821800
H -22.980800 -12.573800 -20.789600
15
Fragment
O -29.580400 -10.531400 -16.169900
C -28.391300 -10.959500 -16.142000
H -28.190900 -11.947300 -17.920300
H -27.981600 -10.155200 -14.388100
C -27.744500 -11.723700 -17.111900
N -27.627100 -10.656500 -15.017300
C -26.439600 -12.158200 -16.887000
C -26.362900 -11.102000 -14.855100
H -26.165100 -13.131000 -18.532800
H -26.123000 -10.266900 -13.115600
N -25.774800 -12.894900 -17.780500
N -25.738300 -11.845700 -15.747500
N -25.718700 -10.762800 -13.720900
H -24.947300 -13.144400 -17.616200
H -24.893800 -11.037400 -13.584000
30
Fragment
O -27.667400 -13.079800 -23.375500
C -26.478400 -12.651700 -23.347600
H -26.278000 -11.663900 -25.125900
H -26.068700 -13.456000 -21.593700
C -25.831600 -11.887500 -24.317400
N -25.714200 -12.954700 -22.222900
C -24.526700 -11.453000 -24.092600
C -24.449900 -12.509200 -22.060700
H -24.252200 -10.480200 -25.738400
H -24.210100 -13.344300 -20.321200
N -23.861900 -10.716300 -24.986100
N -23.825400 -11.765500 -22.953100
N -23.805800 -12.848400 -20.926500
H -23.034400 -10.466800 -24.821800
H -22.980800 -12.573800 -20.789600
O -29.580400 -10.531400 -16.169900
C -28.391300 -10.959500 -16.142000
H -28.190900 -11.947300 -17.920300
H -27.981600 -10.155200 -14.388100
C -27.744500 -11.723700 -17.111900
N -27.627100 -10.656500 -15.017300
C -26.439600 -12.158200 -16.887000
C -26.362900 -11.102000 -14.855100
H -26.165100 -13.131000 -18.532800
H -26.123000 -10.266900 -13.115600
N -25.774800 -12.894900 -17.780500
N -25.738300 -11.845700 -15.747500
N -25.718700 -10.762800 -13.720900
H -24.947300 -13.144400 -17.616200
H -24.893800 -11.037400 -13.584000
