15
Fragment
H -19.728600 -21.595200 -23.714100
O -19.584300 -20.891600 -26.039200
H -19.419600 -22.771100 -21.823800
N -19.231200 -22.152700 -24.179700
C -19.034700 -21.906500 -25.545700
N -18.917600 -23.362000 -22.240300
C -18.675000 -23.229300 -23.549600
H -18.575100 -24.040300 -21.796100
C -18.238700 -22.836100 -26.214900
H -18.057800 -22.731200 -27.141300
N -17.920200 -24.115000 -24.179700
C -17.710800 -23.916200 -25.518100
N -16.947100 -24.854800 -26.109700
H -16.766600 -24.797900 -26.968700
H -16.629600 -25.525400 -25.636900
16
Fragment
H -21.157100 -26.740200 -23.497500
H -20.279800 -27.476800 -25.426900
O -20.225500 -28.074700 -21.277200
C -20.178400 -26.866800 -23.415900
C -19.861200 -27.993900 -22.466700
H -19.769900 -26.020000 -23.108400
C -19.567700 -27.316600 -24.757900
H -19.118900 -29.342300 -25.052400
N -19.109500 -28.896700 -23.080500
H -19.084100 -30.218400 -21.612100
H -18.952700 -26.624500 -25.107800
C -18.808500 -28.608900 -24.464300
H -18.672200 -30.823000 -23.036800
C -18.585700 -30.049500 -22.439200
H -17.834600 -28.483700 -24.594900
H -17.639800 -29.904700 -22.227600
31
Fragment
H -19.728600 -21.595200 -23.714100
O -19.584300 -20.891600 -26.039200
H -19.419600 -22.771100 -21.823800
N -19.231200 -22.152700 -24.179700
C -19.034700 -21.906500 -25.545700
N -18.917600 -23.362000 -22.240300
C -18.675000 -23.229300 -23.549600
H -18.575100 -24.040300 -21.796100
C -18.238700 -22.836100 -26.214900
H -18.057800 -22.731200 -27.141300
N -17.920200 -24.115000 -24.179700
C -17.710800 -23.916200 -25.518100
N -16.947100 -24.854800 -26.109700
H -16.766600 -24.797900 -26.968700
H -16.629600 -25.525400 -25.636900
H -21.157100 -26.740200 -23.497500
H -20.279800 -27.476800 -25.426900
O -20.225500 -28.074700 -21.277200
C -20.178400 -26.866800 -23.415900
C -19.861200 -27.993900 -22.466700
H -19.769900 -26.020000 -23.108400
C -19.567700 -27.316600 -24.757900
H -19.118900 -29.342300 -25.052400
N -19.109500 -28.896700 -23.080500
H -19.084100 -30.218400 -21.612100
H -18.952700 -26.624500 -25.107800
C -18.808500 -28.608900 -24.464300
H -18.672200 -30.823000 -23.036800
C -18.585700 -30.049500 -22.439200
H -17.834600 -28.483700 -24.594900
H -17.639800 -29.904700 -22.227600
