15
Fragment
O -27.667400 -13.079800 -23.375500
C -26.478400 -12.651700 -23.347600
H -26.278000 -11.663900 -25.125900
H -26.068700 -13.456000 -21.593700
C -25.831600 -11.887500 -24.317400
N -25.714200 -12.954700 -22.222900
C -24.526700 -11.453000 -24.092600
C -24.449900 -12.509200 -22.060700
H -24.252200 -10.480200 -25.738400
H -24.210100 -13.344300 -20.321200
N -23.861900 -10.716300 -24.986100
N -23.825400 -11.765500 -22.953100
N -23.805800 -12.848400 -20.926500
H -23.034400 -10.466800 -24.821800
H -22.980800 -12.573800 -20.789600
15
Fragment
H -29.663000 -8.803800 -29.744700
H -29.414000 -6.738600 -25.654800
N -28.834800 -9.084800 -29.641400
N -28.751200 -8.051400 -27.584500
N -28.599600 -7.046400 -25.522200
H -28.451000 -9.565700 -30.270700
H -28.172900 -6.855100 -24.775700
C -28.157500 -8.779400 -28.524100
C -28.011800 -7.804300 -26.451700
N -26.893900 -9.247700 -28.412800
C -26.725600 -8.314300 -26.247100
H -26.549500 -9.706600 -29.080300
H -26.271900 -8.177300 -25.422800
C -26.124800 -9.029700 -27.284700
O -24.941500 -9.491700 -27.276500
30
Fragment
O -27.667400 -13.079800 -23.375500
C -26.478400 -12.651700 -23.347600
H -26.278000 -11.663900 -25.125900
H -26.068700 -13.456000 -21.593700
C -25.831600 -11.887500 -24.317400
N -25.714200 -12.954700 -22.222900
C -24.526700 -11.453000 -24.092600
C -24.449900 -12.509200 -22.060700
H -24.252200 -10.480200 -25.738400
H -24.210100 -13.344300 -20.321200
N -23.861900 -10.716300 -24.986100
N -23.825400 -11.765500 -22.953100
N -23.805800 -12.848400 -20.926500
H -23.034400 -10.466800 -24.821800
H -22.980800 -12.573800 -20.789600
H -29.663000 -8.803800 -29.744700
H -29.414000 -6.738600 -25.654800
N -28.834800 -9.084800 -29.641400
N -28.751200 -8.051400 -27.584500
N -28.599600 -7.046400 -25.522200
H -28.451000 -9.565700 -30.270700
H -28.172900 -6.855100 -24.775700
C -28.157500 -8.779400 -28.524100
C -28.011800 -7.804300 -26.451700
N -26.893900 -9.247700 -28.412800
C -26.725600 -8.314300 -26.247100
H -26.549500 -9.706600 -29.080300
H -26.271900 -8.177300 -25.422800
C -26.124800 -9.029700 -27.284700
O -24.941500 -9.491700 -27.276500
