15
Fragment
H -19.728600 -21.595200 -23.714100
O -19.584300 -20.891600 -26.039200
H -19.419600 -22.771100 -21.823800
N -19.231200 -22.152700 -24.179700
C -19.034700 -21.906500 -25.545700
N -18.917600 -23.362000 -22.240300
C -18.675000 -23.229300 -23.549600
H -18.575100 -24.040300 -21.796100
C -18.238700 -22.836100 -26.214900
H -18.057800 -22.731200 -27.141300
N -17.920200 -24.115000 -24.179700
C -17.710800 -23.916200 -25.518100
N -16.947100 -24.854800 -26.109700
H -16.766600 -24.797900 -26.968700
H -16.629600 -25.525400 -25.636900
16
Fragment
H -19.643300 -16.774200 -23.497500
H -18.766000 -17.510900 -25.426900
O -18.711700 -18.108700 -21.277200
C -18.664600 -16.900800 -23.415900
C -18.347400 -18.027900 -22.466700
H -18.256100 -16.054100 -23.108400
C -18.053900 -17.350700 -24.757900
H -17.605100 -19.376300 -25.052400
N -17.595700 -18.930800 -23.080500
H -17.570300 -20.252400 -21.612100
H -17.438900 -16.658500 -25.107800
C -17.294700 -18.642900 -24.464300
H -17.158400 -20.857000 -23.036800
C -17.071900 -20.083500 -22.439200
H -16.320800 -18.517700 -24.594900
H -16.126000 -19.938700 -22.227600
31
Fragment
H -19.728600 -21.595200 -23.714100
O -19.584300 -20.891600 -26.039200
H -19.419600 -22.771100 -21.823800
N -19.231200 -22.152700 -24.179700
C -19.034700 -21.906500 -25.545700
N -18.917600 -23.362000 -22.240300
C -18.675000 -23.229300 -23.549600
H -18.575100 -24.040300 -21.796100
C -18.238700 -22.836100 -26.214900
H -18.057800 -22.731200 -27.141300
N -17.920200 -24.115000 -24.179700
C -17.710800 -23.916200 -25.518100
N -16.947100 -24.854800 -26.109700
H -16.766600 -24.797900 -26.968700
H -16.629600 -25.525400 -25.636900
H -19.643300 -16.774200 -23.497500
H -18.766000 -17.510900 -25.426900
O -18.711700 -18.108700 -21.277200
C -18.664600 -16.900800 -23.415900
C -18.347400 -18.027900 -22.466700
H -18.256100 -16.054100 -23.108400
C -18.053900 -17.350700 -24.757900
H -17.605100 -19.376300 -25.052400
N -17.595700 -18.930800 -23.080500
H -17.570300 -20.252400 -21.612100
H -17.438900 -16.658500 -25.107800
C -17.294700 -18.642900 -24.464300
H -17.158400 -20.857000 -23.036800
C -17.071900 -20.083500 -22.439200
H -16.320800 -18.517700 -24.594900
H -16.126000 -19.938700 -22.227600
