15
Fragment
H -19.728600 -21.595200 -23.714100
O -19.584300 -20.891600 -26.039200
H -19.419600 -22.771100 -21.823800
N -19.231200 -22.152700 -24.179700
C -19.034700 -21.906500 -25.545700
N -18.917600 -23.362000 -22.240300
C -18.675000 -23.229300 -23.549600
H -18.575100 -24.040300 -21.796100
C -18.238700 -22.836100 -26.214900
H -18.057800 -22.731200 -27.141300
N -17.920200 -24.115000 -24.179700
C -17.710800 -23.916200 -25.518100
N -16.947100 -24.854800 -26.109700
H -16.766600 -24.797900 -26.968700
H -16.629600 -25.525400 -25.636900
16
Fragment
H -16.705100 -23.464900 -29.904300
C -15.770900 -23.403400 -29.583400
H -15.757200 -22.890100 -28.736900
O -15.481100 -25.587500 -28.490400
H -15.428200 -22.241000 -31.278500
C -15.171500 -24.793700 -29.385900
C -14.884400 -22.748900 -30.623900
H -14.578100 -24.140100 -32.178800
N -14.281400 -25.001900 -30.369000
H -14.238500 -22.132700 -30.197400
C -14.151700 -23.913800 -31.315100
H -13.888800 -26.655900 -31.407100
H -13.811000 -26.858000 -29.821300
C -13.598700 -26.252500 -30.562100
H -13.200200 -23.691600 -31.473800
H -12.632100 -26.096500 -30.589800
31
Fragment
H -19.728600 -21.595200 -23.714100
O -19.584300 -20.891600 -26.039200
H -19.419600 -22.771100 -21.823800
N -19.231200 -22.152700 -24.179700
C -19.034700 -21.906500 -25.545700
N -18.917600 -23.362000 -22.240300
C -18.675000 -23.229300 -23.549600
H -18.575100 -24.040300 -21.796100
C -18.238700 -22.836100 -26.214900
H -18.057800 -22.731200 -27.141300
N -17.920200 -24.115000 -24.179700
C -17.710800 -23.916200 -25.518100
N -16.947100 -24.854800 -26.109700
H -16.766600 -24.797900 -26.968700
H -16.629600 -25.525400 -25.636900
H -16.705100 -23.464900 -29.904300
C -15.770900 -23.403400 -29.583400
H -15.757200 -22.890100 -28.736900
O -15.481100 -25.587500 -28.490400
H -15.428200 -22.241000 -31.278500
C -15.171500 -24.793700 -29.385900
C -14.884400 -22.748900 -30.623900
H -14.578100 -24.140100 -32.178800
N -14.281400 -25.001900 -30.369000
H -14.238500 -22.132700 -30.197400
C -14.151700 -23.913800 -31.315100
H -13.888800 -26.655900 -31.407100
H -13.811000 -26.858000 -29.821300
C -13.598700 -26.252500 -30.562100
H -13.200200 -23.691600 -31.473800
H -12.632100 -26.096500 -30.589800
