15
Fragment
O -27.667400 -13.079800 -23.375500
C -26.478400 -12.651700 -23.347600
H -26.278000 -11.663900 -25.125900
H -26.068700 -13.456000 -21.593700
C -25.831600 -11.887500 -24.317400
N -25.714200 -12.954700 -22.222900
C -24.526700 -11.453000 -24.092600
C -24.449900 -12.509200 -22.060700
H -24.252200 -10.480200 -25.738400
H -24.210100 -13.344300 -20.321200
N -23.861900 -10.716300 -24.986100
N -23.825400 -11.765500 -22.953100
N -23.805800 -12.848400 -20.926500
H -23.034400 -10.466800 -24.821800
H -22.980800 -12.573800 -20.789600
15
Fragment
H -31.575900 -14.807400 -22.539100
H -31.327000 -16.872600 -18.449200
N -30.747800 -14.526400 -22.435800
N -30.664200 -15.559800 -20.378900
N -30.512500 -16.564800 -18.316600
H -30.363900 -14.045500 -23.065100
H -30.085900 -16.756100 -17.570100
C -30.070400 -14.831800 -21.318500
C -29.924700 -15.806900 -19.246100
N -28.806800 -14.363500 -21.207200
C -28.638600 -15.296900 -19.041500
H -28.462400 -13.904600 -21.874700
H -28.184900 -15.433900 -18.217200
C -28.037800 -14.581500 -20.079100
O -26.854400 -14.119500 -20.070900
30
Fragment
O -27.667400 -13.079800 -23.375500
C -26.478400 -12.651700 -23.347600
H -26.278000 -11.663900 -25.125900
H -26.068700 -13.456000 -21.593700
C -25.831600 -11.887500 -24.317400
N -25.714200 -12.954700 -22.222900
C -24.526700 -11.453000 -24.092600
C -24.449900 -12.509200 -22.060700
H -24.252200 -10.480200 -25.738400
H -24.210100 -13.344300 -20.321200
N -23.861900 -10.716300 -24.986100
N -23.825400 -11.765500 -22.953100
N -23.805800 -12.848400 -20.926500
H -23.034400 -10.466800 -24.821800
H -22.980800 -12.573800 -20.789600
H -31.575900 -14.807400 -22.539100
H -31.327000 -16.872600 -18.449200
N -30.747800 -14.526400 -22.435800
N -30.664200 -15.559800 -20.378900
N -30.512500 -16.564800 -18.316600
H -30.363900 -14.045500 -23.065100
H -30.085900 -16.756100 -17.570100
C -30.070400 -14.831800 -21.318500
C -29.924700 -15.806900 -19.246100
N -28.806800 -14.363500 -21.207200
C -28.638600 -15.296900 -19.041500
H -28.462400 -13.904600 -21.874700
H -28.184900 -15.433900 -18.217200
C -28.037800 -14.581500 -20.079100
O -26.854400 -14.119500 -20.070900
