15
Fragment
H -19.728600 -21.595200 -23.714100
O -19.584300 -20.891600 -26.039200
H -19.419600 -22.771100 -21.823800
N -19.231200 -22.152700 -24.179700
C -19.034700 -21.906500 -25.545700
N -18.917600 -23.362000 -22.240300
C -18.675000 -23.229300 -23.549600
H -18.575100 -24.040300 -21.796100
C -18.238700 -22.836100 -26.214900
H -18.057800 -22.731200 -27.141300
N -17.920200 -24.115000 -24.179700
C -17.710800 -23.916200 -25.518100
N -16.947100 -24.854800 -26.109700
H -16.766600 -24.797900 -26.968700
H -16.629600 -25.525400 -25.636900
15
Fragment
H -22.934500 -19.883500 -15.993400
H -22.730000 -21.390900 -16.094300
N -22.581200 -20.579000 -16.400900
C -21.814400 -20.402700 -17.492100
N -21.662600 -19.092800 -17.864400
H -21.356000 -22.349800 -17.856000
C -21.231100 -21.459600 -18.164500
H -21.138000 -16.943300 -18.964700
C -20.938300 -18.869200 -18.945200
N -20.767300 -17.617600 -19.392500
C -20.453700 -21.211800 -19.304400
N -20.360700 -19.868400 -19.660600
H -20.284300 -17.469800 -20.112600
H -19.906000 -19.657600 -20.384500
O -19.848400 -22.046100 -20.005100
30
Fragment
H -19.728600 -21.595200 -23.714100
O -19.584300 -20.891600 -26.039200
H -19.419600 -22.771100 -21.823800
N -19.231200 -22.152700 -24.179700
C -19.034700 -21.906500 -25.545700
N -18.917600 -23.362000 -22.240300
C -18.675000 -23.229300 -23.549600
H -18.575100 -24.040300 -21.796100
C -18.238700 -22.836100 -26.214900
H -18.057800 -22.731200 -27.141300
N -17.920200 -24.115000 -24.179700
C -17.710800 -23.916200 -25.518100
N -16.947100 -24.854800 -26.109700
H -16.766600 -24.797900 -26.968700
H -16.629600 -25.525400 -25.636900
H -22.934500 -19.883500 -15.993400
H -22.730000 -21.390900 -16.094300
N -22.581200 -20.579000 -16.400900
C -21.814400 -20.402700 -17.492100
N -21.662600 -19.092800 -17.864400
H -21.356000 -22.349800 -17.856000
C -21.231100 -21.459600 -18.164500
H -21.138000 -16.943300 -18.964700
C -20.938300 -18.869200 -18.945200
N -20.767300 -17.617600 -19.392500
C -20.453700 -21.211800 -19.304400
N -20.360700 -19.868400 -19.660600
H -20.284300 -17.469800 -20.112600
H -19.906000 -19.657600 -20.384500
O -19.848400 -22.046100 -20.005100
