15
Fragment
O -27.667400 -13.079800 -23.375500
C -26.478400 -12.651700 -23.347600
H -26.278000 -11.663900 -25.125900
H -26.068700 -13.456000 -21.593700
C -25.831600 -11.887500 -24.317400
N -25.714200 -12.954700 -22.222900
C -24.526700 -11.453000 -24.092600
C -24.449900 -12.509200 -22.060700
H -24.252200 -10.480200 -25.738400
H -24.210100 -13.344300 -20.321200
N -23.861900 -10.716300 -24.986100
N -23.825400 -11.765500 -22.953100
N -23.805800 -12.848400 -20.926500
H -23.034400 -10.466800 -24.821800
H -22.980800 -12.573800 -20.789600
15
Fragment
H -27.289900 -14.118700 -29.407500
H -26.537900 -13.000300 -30.270700
C -26.460100 -13.894400 -29.878700
H -26.299800 -14.550000 -30.590600
H -26.038400 -13.555200 -27.067100
H -25.750600 -12.223500 -27.905800
C -25.421200 -13.120700 -27.689700
N -25.325400 -13.917200 -28.923300
H -24.535200 -13.053100 -27.276100
C -24.337800 -14.690100 -29.210000
O -24.325800 -15.407100 -30.221700
H -23.509600 -14.875100 -27.309200
C -23.165500 -14.728700 -28.215700
H -22.682200 -13.877100 -28.247400
H -22.556300 -15.459000 -28.454900
30
Fragment
O -27.667400 -13.079800 -23.375500
C -26.478400 -12.651700 -23.347600
H -26.278000 -11.663900 -25.125900
H -26.068700 -13.456000 -21.593700
C -25.831600 -11.887500 -24.317400
N -25.714200 -12.954700 -22.222900
C -24.526700 -11.453000 -24.092600
C -24.449900 -12.509200 -22.060700
H -24.252200 -10.480200 -25.738400
H -24.210100 -13.344300 -20.321200
N -23.861900 -10.716300 -24.986100
N -23.825400 -11.765500 -22.953100
N -23.805800 -12.848400 -20.926500
H -23.034400 -10.466800 -24.821800
H -22.980800 -12.573800 -20.789600
H -27.289900 -14.118700 -29.407500
H -26.537900 -13.000300 -30.270700
C -26.460100 -13.894400 -29.878700
H -26.299800 -14.550000 -30.590600
H -26.038400 -13.555200 -27.067100
H -25.750600 -12.223500 -27.905800
C -25.421200 -13.120700 -27.689700
N -25.325400 -13.917200 -28.923300
H -24.535200 -13.053100 -27.276100
C -24.337800 -14.690100 -29.210000
O -24.325800 -15.407100 -30.221700
H -23.509600 -14.875100 -27.309200
C -23.165500 -14.728700 -28.215700
H -22.682200 -13.877100 -28.247400
H -22.556300 -15.459000 -28.454900
