23
Fragment
H -14.613200 -2.490100 -17.539200
H -14.196000 -3.684200 -19.478400
C -13.937800 -3.157600 -17.545600
C -13.688700 -3.868100 -18.696400
H -13.379700 -2.925000 -15.595900
C -13.207300 -3.410500 -16.393800
H -13.149800 -5.584500 -20.493500
C -12.698800 -4.858600 -18.733500
N -12.439700 -5.504900 -19.956300
C -12.223900 -4.379300 -16.427700
H -12.049800 -6.303700 -19.900100
C -11.948500 -5.109500 -17.581600
H -11.719800 -4.553000 -15.640400
H -11.144100 -6.945600 -18.041500
C -10.836600 -6.125600 -17.579500
H -10.617300 -6.366900 -16.644900
N -9.620900 -5.618300 -18.249200
H -9.257300 -6.844300 -19.823800
C -8.974300 -6.098100 -19.308800
N -8.958200 -4.537600 -17.752200
C -7.931600 -4.446800 -18.568200
N -7.876600 -5.385600 -19.545200
H -7.272400 -3.768700 -18.479100
23
Fragment
H -14.613200 -7.316800 -17.539200
H -14.196000 -8.510900 -19.478400
C -13.937800 -7.984300 -17.545600
C -13.688700 -8.694800 -18.696400
H -13.379700 -7.751700 -15.595900
C -13.207300 -8.237200 -16.393800
H -13.149800 -10.411200 -20.493500
C -12.698800 -9.685300 -18.733500
N -12.439700 -10.331600 -19.956300
C -12.223900 -9.206000 -16.427700
H -12.049800 -11.130400 -19.900100
C -11.948500 -9.936200 -17.581600
H -11.719800 -9.379700 -15.640400
H -11.144100 -11.772300 -18.041500
C -10.836600 -10.952300 -17.579500
H -10.617300 -11.193600 -16.644900
N -9.620900 -10.445000 -18.249200
H -9.257300 -11.671000 -19.823800
C -8.974300 -10.924800 -19.308800
N -8.958200 -9.364300 -17.752200
C -7.931600 -9.273500 -18.568200
N -7.876600 -10.212300 -19.545200
H -7.272400 -8.595400 -18.479100
46
Fragment
H -14.613200 -2.490100 -17.539200
H -14.196000 -3.684200 -19.478400
C -13.937800 -3.157600 -17.545600
C -13.688700 -3.868100 -18.696400
H -13.379700 -2.925000 -15.595900
C -13.207300 -3.410500 -16.393800
H -13.149800 -5.584500 -20.493500
C -12.698800 -4.858600 -18.733500
N -12.439700 -5.504900 -19.956300
C -12.223900 -4.379300 -16.427700
H -12.049800 -6.303700 -19.900100
C -11.948500 -5.109500 -17.581600
H -11.719800 -4.553000 -15.640400
H -11.144100 -6.945600 -18.041500
C -10.836600 -6.125600 -17.579500
H -10.617300 -6.366900 -16.644900
N -9.620900 -5.618300 -18.249200
H -9.257300 -6.844300 -19.823800
C -8.974300 -6.098100 -19.308800
N -8.958200 -4.537600 -17.752200
C -7.931600 -4.446800 -18.568200
N -7.876600 -5.385600 -19.545200
H -7.272400 -3.768700 -18.479100
H -14.613200 -7.316800 -17.539200
H -14.196000 -8.510900 -19.478400
C -13.937800 -7.984300 -17.545600
C -13.688700 -8.694800 -18.696400
H -13.379700 -7.751700 -15.595900
C -13.207300 -8.237200 -16.393800
H -13.149800 -10.411200 -20.493500
C -12.698800 -9.685300 -18.733500
N -12.439700 -10.331600 -19.956300
C -12.223900 -9.206000 -16.427700
H -12.049800 -11.130400 -19.900100
C -11.948500 -9.936200 -17.581600
H -11.719800 -9.379700 -15.640400
H -11.144100 -11.772300 -18.041500
C -10.836600 -10.952300 -17.579500
H -10.617300 -11.193600 -16.644900
N -9.620900 -10.445000 -18.249200
H -9.257300 -11.671000 -19.823800
C -8.974300 -10.924800 -19.308800
N -8.958200 -9.364300 -17.752200
C -7.931600 -9.273500 -18.568200
N -7.876600 -10.212300 -19.545200
H -7.272400 -8.595400 -18.479100
