23
Fragment
H -14.613200 -2.490100 -17.539200
H -14.196000 -3.684200 -19.478400
C -13.937800 -3.157600 -17.545600
C -13.688700 -3.868100 -18.696400
H -13.379700 -2.925000 -15.595900
C -13.207300 -3.410500 -16.393800
H -13.149800 -5.584500 -20.493500
C -12.698800 -4.858600 -18.733500
N -12.439700 -5.504900 -19.956300
C -12.223900 -4.379300 -16.427700
H -12.049800 -6.303700 -19.900100
C -11.948500 -5.109500 -17.581600
H -11.719800 -4.553000 -15.640400
H -11.144100 -6.945600 -18.041500
C -10.836600 -6.125600 -17.579500
H -10.617300 -6.366900 -16.644900
N -9.620900 -5.618300 -18.249200
H -9.257300 -6.844300 -19.823800
C -8.974300 -6.098100 -19.308800
N -8.958200 -4.537600 -17.752200
C -7.931600 -4.446800 -18.568200
N -7.876600 -5.385600 -19.545200
H -7.272400 -3.768700 -18.479100
23
Fragment
H -12.396700 -1.355300 -13.310200
N -11.792600 -2.972300 -12.244200
C -11.737500 -2.033500 -13.221200
N -10.710900 -2.124200 -14.037100
C -10.694900 -3.684700 -12.480500
H -10.411900 -4.430900 -11.965500
N -10.048300 -3.204900 -13.540100
H -9.051900 -3.953500 -15.144400
C -8.832500 -3.712200 -14.209800
H -8.525000 -4.532300 -13.747800
H -7.949400 -2.139700 -16.149000
C -7.720700 -2.696200 -14.207700
H -7.619300 -3.890300 -11.889200
C -7.445300 -1.965900 -15.361700
N -7.229400 -3.091500 -11.833100
C -6.970400 -2.445200 -13.055900
H -6.519300 -3.171100 -11.295800
C -6.461900 -0.997200 -15.395600
H -6.289500 -0.511600 -16.193500
C -5.980500 -1.454800 -13.093000
C -5.731400 -0.744300 -14.243700
H -5.473200 -1.270900 -12.311000
H -5.056000 -0.076700 -14.250100
46
Fragment
H -14.613200 -2.490100 -17.539200
H -14.196000 -3.684200 -19.478400
C -13.937800 -3.157600 -17.545600
C -13.688700 -3.868100 -18.696400
H -13.379700 -2.925000 -15.595900
C -13.207300 -3.410500 -16.393800
H -13.149800 -5.584500 -20.493500
C -12.698800 -4.858600 -18.733500
N -12.439700 -5.504900 -19.956300
C -12.223900 -4.379300 -16.427700
H -12.049800 -6.303700 -19.900100
C -11.948500 -5.109500 -17.581600
H -11.719800 -4.553000 -15.640400
H -11.144100 -6.945600 -18.041500
C -10.836600 -6.125600 -17.579500
H -10.617300 -6.366900 -16.644900
N -9.620900 -5.618300 -18.249200
H -9.257300 -6.844300 -19.823800
C -8.974300 -6.098100 -19.308800
N -8.958200 -4.537600 -17.752200
C -7.931600 -4.446800 -18.568200
N -7.876600 -5.385600 -19.545200
H -7.272400 -3.768700 -18.479100
H -12.396700 -1.355300 -13.310200
N -11.792600 -2.972300 -12.244200
C -11.737500 -2.033500 -13.221200
N -10.710900 -2.124200 -14.037100
C -10.694900 -3.684700 -12.480500
H -10.411900 -4.430900 -11.965500
N -10.048300 -3.204900 -13.540100
H -9.051900 -3.953500 -15.144400
C -8.832500 -3.712200 -14.209800
H -8.525000 -4.532300 -13.747800
H -7.949400 -2.139700 -16.149000
C -7.720700 -2.696200 -14.207700
H -7.619300 -3.890300 -11.889200
C -7.445300 -1.965900 -15.361700
N -7.229400 -3.091500 -11.833100
C -6.970400 -2.445200 -13.055900
H -6.519300 -3.171100 -11.295800
C -6.461900 -0.997200 -15.395600
H -6.289500 -0.511600 -16.193500
C -5.980500 -1.454800 -13.093000
C -5.731400 -0.744300 -14.243700
H -5.473200 -1.270900 -12.311000
H -5.056000 -0.076700 -14.250100
