23
Fragment
H -14.613200 -2.490100 -17.539200
H -14.196000 -3.684200 -19.478400
C -13.937800 -3.157600 -17.545600
C -13.688700 -3.868100 -18.696400
H -13.379700 -2.925000 -15.595900
C -13.207300 -3.410500 -16.393800
H -13.149800 -5.584500 -20.493500
C -12.698800 -4.858600 -18.733500
N -12.439700 -5.504900 -19.956300
C -12.223900 -4.379300 -16.427700
H -12.049800 -6.303700 -19.900100
C -11.948500 -5.109500 -17.581600
H -11.719800 -4.553000 -15.640400
H -11.144100 -6.945600 -18.041500
C -10.836600 -6.125600 -17.579500
H -10.617300 -6.366900 -16.644900
N -9.620900 -5.618300 -18.249200
H -9.257300 -6.844300 -19.823800
C -8.974300 -6.098100 -19.308800
N -8.958200 -4.537600 -17.752200
C -7.931600 -4.446800 -18.568200
N -7.876600 -5.385600 -19.545200
H -7.272400 -3.768700 -18.479100
23
Fragment
H -9.557600 -6.182000 -23.906600
N -8.953500 -7.799000 -22.840600
C -8.898400 -6.860200 -23.817600
N -7.871800 -6.950900 -24.633600
C -7.855700 -8.511400 -23.076900
H -7.572800 -9.257600 -22.562000
N -7.209200 -8.031600 -24.136600
H -6.212800 -8.780200 -25.740900
C -5.993400 -8.538900 -24.806300
H -5.685900 -9.359000 -24.344300
H -5.110200 -6.966400 -26.745400
C -4.881500 -7.522900 -24.804200
H -4.780200 -8.717000 -22.485700
C -4.606200 -6.792600 -25.958100
N -4.390300 -7.918200 -22.429500
C -4.131300 -7.271900 -23.652300
H -3.680200 -7.997800 -21.892300
C -3.622800 -5.823900 -25.992000
H -3.450300 -5.338300 -26.789900
C -3.141400 -6.281500 -23.689400
C -2.892300 -5.571000 -24.840200
H -2.634000 -6.097600 -22.907400
H -2.216900 -4.903400 -24.846600
46
Fragment
H -14.613200 -2.490100 -17.539200
H -14.196000 -3.684200 -19.478400
C -13.937800 -3.157600 -17.545600
C -13.688700 -3.868100 -18.696400
H -13.379700 -2.925000 -15.595900
C -13.207300 -3.410500 -16.393800
H -13.149800 -5.584500 -20.493500
C -12.698800 -4.858600 -18.733500
N -12.439700 -5.504900 -19.956300
C -12.223900 -4.379300 -16.427700
H -12.049800 -6.303700 -19.900100
C -11.948500 -5.109500 -17.581600
H -11.719800 -4.553000 -15.640400
H -11.144100 -6.945600 -18.041500
C -10.836600 -6.125600 -17.579500
H -10.617300 -6.366900 -16.644900
N -9.620900 -5.618300 -18.249200
H -9.257300 -6.844300 -19.823800
C -8.974300 -6.098100 -19.308800
N -8.958200 -4.537600 -17.752200
C -7.931600 -4.446800 -18.568200
N -7.876600 -5.385600 -19.545200
H -7.272400 -3.768700 -18.479100
H -9.557600 -6.182000 -23.906600
N -8.953500 -7.799000 -22.840600
C -8.898400 -6.860200 -23.817600
N -7.871800 -6.950900 -24.633600
C -7.855700 -8.511400 -23.076900
H -7.572800 -9.257600 -22.562000
N -7.209200 -8.031600 -24.136600
H -6.212800 -8.780200 -25.740900
C -5.993400 -8.538900 -24.806300
H -5.685900 -9.359000 -24.344300
H -5.110200 -6.966400 -26.745400
C -4.881500 -7.522900 -24.804200
H -4.780200 -8.717000 -22.485700
C -4.606200 -6.792600 -25.958100
N -4.390300 -7.918200 -22.429500
C -4.131300 -7.271900 -23.652300
H -3.680200 -7.997800 -21.892300
C -3.622800 -5.823900 -25.992000
H -3.450300 -5.338300 -26.789900
C -3.141400 -6.281500 -23.689400
C -2.892300 -5.571000 -24.840200
H -2.634000 -6.097600 -22.907400
H -2.216900 -4.903400 -24.846600
