17
Fragment
H -7.132000 -5.515900 -67.816200
O -6.823800 -4.498200 -70.079200
H -6.537800 -6.515800 -65.810900
C -6.239500 -5.811500 -67.677700
C -5.875000 -6.400000 -66.480300
C -5.725100 -5.048300 -69.967500
H -5.661900 -5.086400 -72.763900
H -5.631700 -3.770500 -72.036500
C -5.289100 -5.658800 -68.671000
N -5.117900 -4.501200 -72.233300
N -4.863200 -5.133200 -70.988200
N -4.630700 -6.812900 -66.227100
H -4.056900 -5.527600 -70.955800
C -3.991200 -6.076200 -68.410000
C -3.710000 -6.640600 -67.185400
H -3.310100 -5.974400 -69.065500
H -2.819000 -6.921900 -67.010800
17
Fragment
H -13.371500 -5.515900 -67.816200
O -13.063300 -4.498200 -70.079200
H -12.777300 -6.515800 -65.810900
C -12.479000 -5.811500 -67.677700
C -12.114500 -6.400000 -66.480300
C -11.964600 -5.048300 -69.967500
H -11.901400 -5.086400 -72.763900
H -11.871200 -3.770500 -72.036500
C -11.528600 -5.658800 -68.671000
N -11.357400 -4.501200 -72.233300
N -11.102700 -5.133200 -70.988200
N -10.870200 -6.812900 -66.227100
H -10.296400 -5.527600 -70.955800
C -10.230700 -6.076200 -68.410000
C -9.949500 -6.640600 -67.185400
H -9.549600 -5.974400 -69.065500
H -9.058500 -6.921900 -67.010800
34
Fragment
H -7.132000 -5.515900 -67.816200
O -6.823800 -4.498200 -70.079200
H -6.537800 -6.515800 -65.810900
C -6.239500 -5.811500 -67.677700
C -5.875000 -6.400000 -66.480300
C -5.725100 -5.048300 -69.967500
H -5.661900 -5.086400 -72.763900
H -5.631700 -3.770500 -72.036500
C -5.289100 -5.658800 -68.671000
N -5.117900 -4.501200 -72.233300
N -4.863200 -5.133200 -70.988200
N -4.630700 -6.812900 -66.227100
H -4.056900 -5.527600 -70.955800
C -3.991200 -6.076200 -68.410000
C -3.710000 -6.640600 -67.185400
H -3.310100 -5.974400 -69.065500
H -2.819000 -6.921900 -67.010800
H -13.371500 -5.515900 -67.816200
O -13.063300 -4.498200 -70.079200
H -12.777300 -6.515800 -65.810900
C -12.479000 -5.811500 -67.677700
C -12.114500 -6.400000 -66.480300
C -11.964600 -5.048300 -69.967500
H -11.901400 -5.086400 -72.763900
H -11.871200 -3.770500 -72.036500
C -11.528600 -5.658800 -68.671000
N -11.357400 -4.501200 -72.233300
N -11.102700 -5.133200 -70.988200
N -10.870200 -6.812900 -66.227100
H -10.296400 -5.527600 -70.955800
C -10.230700 -6.076200 -68.410000
C -9.949500 -6.640600 -67.185400
H -9.549600 -5.974400 -69.065500
H -9.058500 -6.921900 -67.010800
