17
Fragment
H -7.132000 -5.515900 -67.816200
O -6.823800 -4.498200 -70.079200
H -6.537800 -6.515800 -65.810900
C -6.239500 -5.811500 -67.677700
C -5.875000 -6.400000 -66.480300
C -5.725100 -5.048300 -69.967500
H -5.661900 -5.086400 -72.763900
H -5.631700 -3.770500 -72.036500
C -5.289100 -5.658800 -68.671000
N -5.117900 -4.501200 -72.233300
N -4.863200 -5.133200 -70.988200
N -4.630700 -6.812900 -66.227100
H -4.056900 -5.527600 -70.955800
C -3.991200 -6.076200 -68.410000
C -3.710000 -6.640600 -67.185400
H -3.310100 -5.974400 -69.065500
H -2.819000 -6.921900 -67.010800
17
Fragment
H -4.595300 -5.036600 -76.815700
H -4.104100 -4.089100 -74.761000
C -3.704300 -4.755400 -76.641000
C -3.423100 -4.190900 -75.416400
H -3.357300 -3.642300 -72.870700
N -2.783500 -4.927700 -77.599300
N -2.551100 -3.247900 -72.838200
N -2.296300 -2.616000 -71.593100
C -2.125200 -3.773500 -75.155500
H -1.782600 -1.885200 -71.789900
H -1.752400 -3.201200 -71.062600
C -1.689200 -3.163100 -73.859000
C -1.539300 -4.514800 -77.346200
C -1.174800 -3.926200 -76.148700
H -0.876500 -4.630600 -78.015600
O -0.590400 -2.613000 -73.747200
H -0.282200 -3.630600 -76.010200
34
Fragment
H -7.132000 -5.515900 -67.816200
O -6.823800 -4.498200 -70.079200
H -6.537800 -6.515800 -65.810900
C -6.239500 -5.811500 -67.677700
C -5.875000 -6.400000 -66.480300
C -5.725100 -5.048300 -69.967500
H -5.661900 -5.086400 -72.763900
H -5.631700 -3.770500 -72.036500
C -5.289100 -5.658800 -68.671000
N -5.117900 -4.501200 -72.233300
N -4.863200 -5.133200 -70.988200
N -4.630700 -6.812900 -66.227100
H -4.056900 -5.527600 -70.955800
C -3.991200 -6.076200 -68.410000
C -3.710000 -6.640600 -67.185400
H -3.310100 -5.974400 -69.065500
H -2.819000 -6.921900 -67.010800
H -4.595300 -5.036600 -76.815700
H -4.104100 -4.089100 -74.761000
C -3.704300 -4.755400 -76.641000
C -3.423100 -4.190900 -75.416400
H -3.357300 -3.642300 -72.870700
N -2.783500 -4.927700 -77.599300
N -2.551100 -3.247900 -72.838200
N -2.296300 -2.616000 -71.593100
C -2.125200 -3.773500 -75.155500
H -1.782600 -1.885200 -71.789900
H -1.752400 -3.201200 -71.062600
C -1.689200 -3.163100 -73.859000
C -1.539300 -4.514800 -77.346200
C -1.174800 -3.926200 -76.148700
H -0.876500 -4.630600 -78.015600
O -0.590400 -2.613000 -73.747200
H -0.282200 -3.630600 -76.010200
