17
Fragment
H -7.132000 -5.515900 -67.816200
O -6.823800 -4.498200 -70.079200
H -6.537800 -6.515800 -65.810900
C -6.239500 -5.811500 -67.677700
C -5.875000 -6.400000 -66.480300
C -5.725100 -5.048300 -69.967500
H -5.661900 -5.086400 -72.763900
H -5.631700 -3.770500 -72.036500
C -5.289100 -5.658800 -68.671000
N -5.117900 -4.501200 -72.233300
N -4.863200 -5.133200 -70.988200
N -4.630700 -6.812900 -66.227100
H -4.056900 -5.527600 -70.955800
C -3.991200 -6.076200 -68.410000
C -3.710000 -6.640600 -67.185400
H -3.310100 -5.974400 -69.065500
H -2.819000 -6.921900 -67.010800
17
Fragment
H -0.892500 -5.515900 -67.816200
O -0.584300 -4.498200 -70.079200
H -0.298300 -6.515800 -65.810900
C 0.000000 -5.811500 -67.677700
C 0.364500 -6.400000 -66.480300
C 0.514400 -5.048300 -69.967500
H 0.577600 -5.086400 -72.763900
H 0.607800 -3.770500 -72.036500
C 0.950400 -5.658800 -68.671000
N 1.121600 -4.501200 -72.233300
N 1.376300 -5.133200 -70.988200
N 1.608800 -6.812900 -66.227100
H 2.182600 -5.527600 -70.955800
C 2.248300 -6.076200 -68.410000
C 2.529500 -6.640600 -67.185400
H 2.929400 -5.974400 -69.065500
H 3.420500 -6.921900 -67.010800
34
Fragment
H -7.132000 -5.515900 -67.816200
O -6.823800 -4.498200 -70.079200
H -6.537800 -6.515800 -65.810900
C -6.239500 -5.811500 -67.677700
C -5.875000 -6.400000 -66.480300
C -5.725100 -5.048300 -69.967500
H -5.661900 -5.086400 -72.763900
H -5.631700 -3.770500 -72.036500
C -5.289100 -5.658800 -68.671000
N -5.117900 -4.501200 -72.233300
N -4.863200 -5.133200 -70.988200
N -4.630700 -6.812900 -66.227100
H -4.056900 -5.527600 -70.955800
C -3.991200 -6.076200 -68.410000
C -3.710000 -6.640600 -67.185400
H -3.310100 -5.974400 -69.065500
H -2.819000 -6.921900 -67.010800
H -0.892500 -5.515900 -67.816200
O -0.584300 -4.498200 -70.079200
H -0.298300 -6.515800 -65.810900
C 0.000000 -5.811500 -67.677700
C 0.364500 -6.400000 -66.480300
C 0.514400 -5.048300 -69.967500
H 0.577600 -5.086400 -72.763900
H 0.607800 -3.770500 -72.036500
C 0.950400 -5.658800 -68.671000
N 1.121600 -4.501200 -72.233300
N 1.376300 -5.133200 -70.988200
N 1.608800 -6.812900 -66.227100
H 2.182600 -5.527600 -70.955800
C 2.248300 -6.076200 -68.410000
C 2.529500 -6.640600 -67.185400
H 2.929400 -5.974400 -69.065500
H 3.420500 -6.921900 -67.010800
