17
Fragment
H -7.132000 -5.515900 -67.816200
O -6.823800 -4.498200 -70.079200
H -6.537800 -6.515800 -65.810900
C -6.239500 -5.811500 -67.677700
C -5.875000 -6.400000 -66.480300
C -5.725100 -5.048300 -69.967500
H -5.661900 -5.086400 -72.763900
H -5.631700 -3.770500 -72.036500
C -5.289100 -5.658800 -68.671000
N -5.117900 -4.501200 -72.233300
N -4.863200 -5.133200 -70.988200
N -4.630700 -6.812900 -66.227100
H -4.056900 -5.527600 -70.955800
C -3.991200 -6.076200 -68.410000
C -3.710000 -6.640600 -67.185400
H -3.310100 -5.974400 -69.065500
H -2.819000 -6.921900 -67.010800
17
Fragment
H -7.132000 -1.745400 -67.816200
O -6.823800 -0.727700 -70.079200
H -6.537800 -2.745300 -65.810900
C -6.239500 -2.041000 -67.677700
C -5.875000 -2.629500 -66.480300
C -5.725100 -1.277800 -69.967500
H -5.661900 -1.315900 -72.763900
H -5.631700 0.000000 -72.036500
C -5.289100 -1.888300 -68.671000
N -5.117900 -0.730700 -72.233300
N -4.863200 -1.362700 -70.988200
N -4.630700 -3.042400 -66.227100
H -4.056900 -1.757100 -70.955800
C -3.991200 -2.305700 -68.410000
C -3.710000 -2.870100 -67.185400
H -3.310100 -2.203900 -69.065500
H -2.819000 -3.151400 -67.010800
34
Fragment
H -7.132000 -5.515900 -67.816200
O -6.823800 -4.498200 -70.079200
H -6.537800 -6.515800 -65.810900
C -6.239500 -5.811500 -67.677700
C -5.875000 -6.400000 -66.480300
C -5.725100 -5.048300 -69.967500
H -5.661900 -5.086400 -72.763900
H -5.631700 -3.770500 -72.036500
C -5.289100 -5.658800 -68.671000
N -5.117900 -4.501200 -72.233300
N -4.863200 -5.133200 -70.988200
N -4.630700 -6.812900 -66.227100
H -4.056900 -5.527600 -70.955800
C -3.991200 -6.076200 -68.410000
C -3.710000 -6.640600 -67.185400
H -3.310100 -5.974400 -69.065500
H -2.819000 -6.921900 -67.010800
H -7.132000 -1.745400 -67.816200
O -6.823800 -0.727700 -70.079200
H -6.537800 -2.745300 -65.810900
C -6.239500 -2.041000 -67.677700
C -5.875000 -2.629500 -66.480300
C -5.725100 -1.277800 -69.967500
H -5.661900 -1.315900 -72.763900
H -5.631700 0.000000 -72.036500
C -5.289100 -1.888300 -68.671000
N -5.117900 -0.730700 -72.233300
N -4.863200 -1.362700 -70.988200
N -4.630700 -3.042400 -66.227100
H -4.056900 -1.757100 -70.955800
C -3.991200 -2.305700 -68.410000
C -3.710000 -2.870100 -67.185400
H -3.310100 -2.203900 -69.065500
H -2.819000 -3.151400 -67.010800
