34
Fragment
H -22.464000 -25.780500 -17.473700
H -22.402500 -22.412300 -20.219300
N -22.168600 -23.835300 -18.931500
C -21.788900 -22.740700 -19.596800
N -21.732400 -25.415400 -17.293800
C -21.329500 -24.362200 -18.003400
H -21.219200 -25.748600 -16.705300
N -20.654200 -22.047700 -19.489800
C -20.064800 -23.754700 -17.857300
C -19.810700 -22.629300 -18.616700
H -19.117600 -19.677300 -18.373200
N -18.957200 -24.075100 -17.085800
H -18.771900 -17.878800 -20.078300
N -18.523700 -22.255100 -18.312100
C -18.177800 -19.829600 -18.226400
C -18.067600 -23.161200 -17.389200
H -18.016700 -19.870700 -17.298000
H -17.944700 -21.100900 -19.822200
C -17.893800 -17.810400 -19.731000
C -17.783600 -21.142000 -18.893800
N -17.437700 -18.716500 -18.808000
H -17.189500 -23.092800 -17.041900
N -17.004200 -16.896500 -20.034400
H -16.843800 -21.294300 -18.746900
C -16.150700 -18.342300 -18.503400
C -15.896600 -17.216800 -19.262900
N -15.307200 -18.923900 -17.630300
H -14.742200 -15.223000 -20.414800
C -14.631900 -16.609400 -19.116700
N -14.229100 -15.556100 -19.826400
C -14.172500 -18.230800 -17.523300
N -13.792800 -17.136200 -18.188600
H -13.558900 -18.559300 -16.900800
H -13.497500 -15.191100 -19.646400
34
Fragment
H -19.262600 -15.982400 -17.473700
H -19.201100 -12.614200 -20.219300
N -18.967200 -14.037300 -18.931500
C -18.587600 -12.942700 -19.596800
N -18.531000 -15.617400 -17.293800
C -18.128100 -14.564100 -18.003400
H -18.017800 -15.950500 -16.705300
N -17.452900 -12.249600 -19.489800
C -16.863400 -13.956700 -17.857300
C -16.609400 -12.831200 -18.616700
H -15.916200 -9.879200 -18.373200
N -15.755900 -14.277000 -17.085800
H -15.570500 -8.080700 -20.078300
N -15.322400 -12.457000 -18.312100
C -14.976500 -10.031500 -18.226400
C -14.866200 -13.363100 -17.389200
H -14.815400 -10.072700 -17.298000
H -14.743300 -11.302800 -19.822200
C -14.692500 -8.012300 -19.731000
C -14.582200 -11.343900 -18.893800
N -14.236300 -8.918400 -18.808000
H -13.988200 -13.294700 -17.041900
N -13.802800 -7.098400 -20.034400
H -13.642400 -11.496200 -18.746900
C -12.949300 -8.544200 -18.503400
C -12.695200 -7.418800 -19.262900
N -12.105800 -9.125800 -17.630300
H -11.540900 -5.424900 -20.414800
C -11.430600 -6.811300 -19.116700
N -11.027700 -5.758100 -19.826400
C -10.971100 -8.432800 -17.523300
N -10.591500 -7.338200 -18.188600
H -10.357600 -8.761300 -16.900800
H -10.296100 -5.393000 -19.646400
68
Fragment
H -22.464000 -25.780500 -17.473700
H -22.402500 -22.412300 -20.219300
N -22.168600 -23.835300 -18.931500
C -21.788900 -22.740700 -19.596800
N -21.732400 -25.415400 -17.293800
C -21.329500 -24.362200 -18.003400
H -21.219200 -25.748600 -16.705300
N -20.654200 -22.047700 -19.489800
C -20.064800 -23.754700 -17.857300
C -19.810700 -22.629300 -18.616700
H -19.117600 -19.677300 -18.373200
N -18.957200 -24.075100 -17.085800
H -18.771900 -17.878800 -20.078300
N -18.523700 -22.255100 -18.312100
C -18.177800 -19.829600 -18.226400
C -18.067600 -23.161200 -17.389200
H -18.016700 -19.870700 -17.298000
H -17.944700 -21.100900 -19.822200
C -17.893800 -17.810400 -19.731000
C -17.783600 -21.142000 -18.893800
N -17.437700 -18.716500 -18.808000
H -17.189500 -23.092800 -17.041900
N -17.004200 -16.896500 -20.034400
H -16.843800 -21.294300 -18.746900
C -16.150700 -18.342300 -18.503400
C -15.896600 -17.216800 -19.262900
N -15.307200 -18.923900 -17.630300
H -14.742200 -15.223000 -20.414800
C -14.631900 -16.609400 -19.116700
N -14.229100 -15.556100 -19.826400
C -14.172500 -18.230800 -17.523300
N -13.792800 -17.136200 -18.188600
H -13.558900 -18.559300 -16.900800
H -13.497500 -15.191100 -19.646400
H -19.262600 -15.982400 -17.473700
H -19.201100 -12.614200 -20.219300
N -18.967200 -14.037300 -18.931500
C -18.587600 -12.942700 -19.596800
N -18.531000 -15.617400 -17.293800
C -18.128100 -14.564100 -18.003400
H -18.017800 -15.950500 -16.705300
N -17.452900 -12.249600 -19.489800
C -16.863400 -13.956700 -17.857300
C -16.609400 -12.831200 -18.616700
H -15.916200 -9.879200 -18.373200
N -15.755900 -14.277000 -17.085800
H -15.570500 -8.080700 -20.078300
N -15.322400 -12.457000 -18.312100
C -14.976500 -10.031500 -18.226400
C -14.866200 -13.363100 -17.389200
H -14.815400 -10.072700 -17.298000
H -14.743300 -11.302800 -19.822200
C -14.692500 -8.012300 -19.731000
C -14.582200 -11.343900 -18.893800
N -14.236300 -8.918400 -18.808000
H -13.988200 -13.294700 -17.041900
N -13.802800 -7.098400 -20.034400
H -13.642400 -11.496200 -18.746900
C -12.949300 -8.544200 -18.503400
C -12.695200 -7.418800 -19.262900
N -12.105800 -9.125800 -17.630300
H -11.540900 -5.424900 -20.414800
C -11.430600 -6.811300 -19.116700
N -11.027700 -5.758100 -19.826400
C -10.971100 -8.432800 -17.523300
N -10.591500 -7.338200 -18.188600
H -10.357600 -8.761300 -16.900800
H -10.296100 -5.393000 -19.646400
