18
Fragment
H -13.915300 -8.046900 -18.220400
C -13.065300 -8.414400 -18.008700
N -12.810800 -8.574800 -16.702400
N -12.292700 -8.699100 -19.043400
H -11.965500 -9.006500 -14.439500
C -11.607000 -9.087600 -16.332300
N -11.358500 -9.236700 -15.033900
C -11.104800 -9.204800 -18.653200
H -10.782800 -9.908200 -21.295800
C -10.704600 -9.426500 -17.342700
H -10.586500 -9.567400 -14.768300
N -10.071500 -9.618000 -19.435900
C -9.985400 -9.507800 -20.890400
H -9.929000 -8.563800 -21.143900
N -9.436000 -9.983300 -17.319200
H -9.186800 -9.981300 -21.206100
C -9.101300 -10.063400 -18.588700
H -8.264300 -10.399800 -18.885200
12
Fragment
F -9.807700 -6.781900 -24.348300
H -9.237800 -8.297800 -26.323800
F -9.087300 -8.723800 -23.782700
C -8.765000 -7.609600 -24.440500
H -8.638300 -6.533000 -27.166700
C -8.442900 -7.877100 -25.886100
O -8.177000 -6.656100 -26.503700
F -7.757600 -7.042200 -23.786200
F -7.358700 -9.933600 -25.408800
C -7.248500 -8.777100 -26.075100
F -7.114200 -9.080700 -27.368800
F -6.104300 -8.208700 -25.685400
30
Fragment
H -13.915300 -8.046900 -18.220400
C -13.065300 -8.414400 -18.008700
N -12.810800 -8.574800 -16.702400
N -12.292700 -8.699100 -19.043400
H -11.965500 -9.006500 -14.439500
C -11.607000 -9.087600 -16.332300
N -11.358500 -9.236700 -15.033900
C -11.104800 -9.204800 -18.653200
H -10.782800 -9.908200 -21.295800
C -10.704600 -9.426500 -17.342700
H -10.586500 -9.567400 -14.768300
N -10.071500 -9.618000 -19.435900
C -9.985400 -9.507800 -20.890400
H -9.929000 -8.563800 -21.143900
N -9.436000 -9.983300 -17.319200
H -9.186800 -9.981300 -21.206100
C -9.101300 -10.063400 -18.588700
H -8.264300 -10.399800 -18.885200
F -9.807700 -6.781900 -24.348300
H -9.237800 -8.297800 -26.323800
F -9.087300 -8.723800 -23.782700
C -8.765000 -7.609600 -24.440500
H -8.638300 -6.533000 -27.166700
C -8.442900 -7.877100 -25.886100
O -8.177000 -6.656100 -26.503700
F -7.757600 -7.042200 -23.786200
F -7.358700 -9.933600 -25.408800
C -7.248500 -8.777100 -26.075100
F -7.114200 -9.080700 -27.368800
F -6.104300 -8.208700 -25.685400
