34
Fragment
H -22.464000 -25.780500 -17.473700
H -22.402500 -22.412300 -20.219300
N -22.168600 -23.835300 -18.931500
C -21.788900 -22.740700 -19.596800
N -21.732400 -25.415400 -17.293800
C -21.329500 -24.362200 -18.003400
H -21.219200 -25.748600 -16.705300
N -20.654200 -22.047700 -19.489800
C -20.064800 -23.754700 -17.857300
C -19.810700 -22.629300 -18.616700
H -19.117600 -19.677300 -18.373200
N -18.957200 -24.075100 -17.085800
H -18.771900 -17.878800 -20.078300
N -18.523700 -22.255100 -18.312100
C -18.177800 -19.829600 -18.226400
C -18.067600 -23.161200 -17.389200
H -18.016700 -19.870700 -17.298000
H -17.944700 -21.100900 -19.822200
C -17.893800 -17.810400 -19.731000
C -17.783600 -21.142000 -18.893800
N -17.437700 -18.716500 -18.808000
H -17.189500 -23.092800 -17.041900
N -17.004200 -16.896500 -20.034400
H -16.843800 -21.294300 -18.746900
C -16.150700 -18.342300 -18.503400
C -15.896600 -17.216800 -19.262900
N -15.307200 -18.923900 -17.630300
H -14.742200 -15.223000 -20.414800
C -14.631900 -16.609400 -19.116700
N -14.229100 -15.556100 -19.826400
C -14.172500 -18.230800 -17.523300
N -13.792800 -17.136200 -18.188600
H -13.558900 -18.559300 -16.900800
H -13.497500 -15.191100 -19.646400
12
Fragment
F -18.158800 -16.669700 -13.906800
C -16.943100 -17.131600 -13.611800
F -16.920500 -18.419500 -13.951000
F -16.790700 -17.059300 -12.289600
O -16.095600 -16.513400 -15.713800
H -16.004700 -15.397200 -14.073500
C -15.893300 -16.312300 -14.349400
H -15.870400 -15.794600 -16.151000
C -14.460600 -16.687400 -13.973900
F -14.200500 -17.989400 -14.139600
F -14.170900 -16.376100 -12.713500
F -13.618000 -16.021000 -14.767300
46
Fragment
H -22.464000 -25.780500 -17.473700
H -22.402500 -22.412300 -20.219300
N -22.168600 -23.835300 -18.931500
C -21.788900 -22.740700 -19.596800
N -21.732400 -25.415400 -17.293800
C -21.329500 -24.362200 -18.003400
H -21.219200 -25.748600 -16.705300
N -20.654200 -22.047700 -19.489800
C -20.064800 -23.754700 -17.857300
C -19.810700 -22.629300 -18.616700
H -19.117600 -19.677300 -18.373200
N -18.957200 -24.075100 -17.085800
H -18.771900 -17.878800 -20.078300
N -18.523700 -22.255100 -18.312100
C -18.177800 -19.829600 -18.226400
C -18.067600 -23.161200 -17.389200
H -18.016700 -19.870700 -17.298000
H -17.944700 -21.100900 -19.822200
C -17.893800 -17.810400 -19.731000
C -17.783600 -21.142000 -18.893800
N -17.437700 -18.716500 -18.808000
H -17.189500 -23.092800 -17.041900
N -17.004200 -16.896500 -20.034400
H -16.843800 -21.294300 -18.746900
C -16.150700 -18.342300 -18.503400
C -15.896600 -17.216800 -19.262900
N -15.307200 -18.923900 -17.630300
H -14.742200 -15.223000 -20.414800
C -14.631900 -16.609400 -19.116700
N -14.229100 -15.556100 -19.826400
C -14.172500 -18.230800 -17.523300
N -13.792800 -17.136200 -18.188600
H -13.558900 -18.559300 -16.900800
H -13.497500 -15.191100 -19.646400
F -18.158800 -16.669700 -13.906800
C -16.943100 -17.131600 -13.611800
F -16.920500 -18.419500 -13.951000
F -16.790700 -17.059300 -12.289600
O -16.095600 -16.513400 -15.713800
H -16.004700 -15.397200 -14.073500
C -15.893300 -16.312300 -14.349400
H -15.870400 -15.794600 -16.151000
C -14.460600 -16.687400 -13.973900
F -14.200500 -17.989400 -14.139600
F -14.170900 -16.376100 -12.713500
F -13.618000 -16.021000 -14.767300
