34
Fragment
H -22.464000 -25.780500 -17.473700
H -22.402500 -22.412300 -20.219300
N -22.168600 -23.835300 -18.931500
C -21.788900 -22.740700 -19.596800
N -21.732400 -25.415400 -17.293800
C -21.329500 -24.362200 -18.003400
H -21.219200 -25.748600 -16.705300
N -20.654200 -22.047700 -19.489800
C -20.064800 -23.754700 -17.857300
C -19.810700 -22.629300 -18.616700
H -19.117600 -19.677300 -18.373200
N -18.957200 -24.075100 -17.085800
H -18.771900 -17.878800 -20.078300
N -18.523700 -22.255100 -18.312100
C -18.177800 -19.829600 -18.226400
C -18.067600 -23.161200 -17.389200
H -18.016700 -19.870700 -17.298000
H -17.944700 -21.100900 -19.822200
C -17.893800 -17.810400 -19.731000
C -17.783600 -21.142000 -18.893800
N -17.437700 -18.716500 -18.808000
H -17.189500 -23.092800 -17.041900
N -17.004200 -16.896500 -20.034400
H -16.843800 -21.294300 -18.746900
C -16.150700 -18.342300 -18.503400
C -15.896600 -17.216800 -19.262900
N -15.307200 -18.923900 -17.630300
H -14.742200 -15.223000 -20.414800
C -14.631900 -16.609400 -19.116700
N -14.229100 -15.556100 -19.826400
C -14.172500 -18.230800 -17.523300
N -13.792800 -17.136200 -18.188600
H -13.558900 -18.559300 -16.900800
H -13.497500 -15.191100 -19.646400
34
Fragment
H -12.087400 -15.982400 -17.473700
H -12.025900 -12.614200 -20.219300
N -11.792000 -14.037300 -18.931500
C -11.412400 -12.942700 -19.596800
N -11.355800 -15.617400 -17.293800
C -10.952900 -14.564100 -18.003400
H -10.842600 -15.950500 -16.705300
N -10.277700 -12.249600 -19.489800
C -9.688200 -13.956700 -17.857300
C -9.434200 -12.831200 -18.616700
H -8.741000 -9.879200 -18.373200
N -8.580700 -14.277000 -17.085800
H -8.395300 -8.080700 -20.078300
N -8.147200 -12.457000 -18.312100
C -7.801300 -10.031500 -18.226400
C -7.691000 -13.363100 -17.389200
H -7.640200 -10.072700 -17.298000
H -7.568100 -11.302800 -19.822200
C -7.517300 -8.012300 -19.731000
C -7.407000 -11.343900 -18.893800
N -7.061100 -8.918400 -18.808000
H -6.813000 -13.294700 -17.041900
N -6.627600 -7.098400 -20.034400
H -6.467200 -11.496200 -18.746900
C -5.774100 -8.544200 -18.503400
C -5.520000 -7.418800 -19.262900
N -4.930600 -9.125800 -17.630300
H -4.365700 -5.424900 -20.414800
C -4.255400 -6.811300 -19.116700
N -3.852500 -5.758100 -19.826400
C -3.795900 -8.432800 -17.523300
N -3.416300 -7.338200 -18.188600
H -3.182400 -8.761300 -16.900800
H -3.120900 -5.393000 -19.646400
68
Fragment
H -22.464000 -25.780500 -17.473700
H -22.402500 -22.412300 -20.219300
N -22.168600 -23.835300 -18.931500
C -21.788900 -22.740700 -19.596800
N -21.732400 -25.415400 -17.293800
C -21.329500 -24.362200 -18.003400
H -21.219200 -25.748600 -16.705300
N -20.654200 -22.047700 -19.489800
C -20.064800 -23.754700 -17.857300
C -19.810700 -22.629300 -18.616700
H -19.117600 -19.677300 -18.373200
N -18.957200 -24.075100 -17.085800
H -18.771900 -17.878800 -20.078300
N -18.523700 -22.255100 -18.312100
C -18.177800 -19.829600 -18.226400
C -18.067600 -23.161200 -17.389200
H -18.016700 -19.870700 -17.298000
H -17.944700 -21.100900 -19.822200
C -17.893800 -17.810400 -19.731000
C -17.783600 -21.142000 -18.893800
N -17.437700 -18.716500 -18.808000
H -17.189500 -23.092800 -17.041900
N -17.004200 -16.896500 -20.034400
H -16.843800 -21.294300 -18.746900
C -16.150700 -18.342300 -18.503400
C -15.896600 -17.216800 -19.262900
N -15.307200 -18.923900 -17.630300
H -14.742200 -15.223000 -20.414800
C -14.631900 -16.609400 -19.116700
N -14.229100 -15.556100 -19.826400
C -14.172500 -18.230800 -17.523300
N -13.792800 -17.136200 -18.188600
H -13.558900 -18.559300 -16.900800
H -13.497500 -15.191100 -19.646400
H -12.087400 -15.982400 -17.473700
H -12.025900 -12.614200 -20.219300
N -11.792000 -14.037300 -18.931500
C -11.412400 -12.942700 -19.596800
N -11.355800 -15.617400 -17.293800
C -10.952900 -14.564100 -18.003400
H -10.842600 -15.950500 -16.705300
N -10.277700 -12.249600 -19.489800
C -9.688200 -13.956700 -17.857300
C -9.434200 -12.831200 -18.616700
H -8.741000 -9.879200 -18.373200
N -8.580700 -14.277000 -17.085800
H -8.395300 -8.080700 -20.078300
N -8.147200 -12.457000 -18.312100
C -7.801300 -10.031500 -18.226400
C -7.691000 -13.363100 -17.389200
H -7.640200 -10.072700 -17.298000
H -7.568100 -11.302800 -19.822200
C -7.517300 -8.012300 -19.731000
C -7.407000 -11.343900 -18.893800
N -7.061100 -8.918400 -18.808000
H -6.813000 -13.294700 -17.041900
N -6.627600 -7.098400 -20.034400
H -6.467200 -11.496200 -18.746900
C -5.774100 -8.544200 -18.503400
C -5.520000 -7.418800 -19.262900
N -4.930600 -9.125800 -17.630300
H -4.365700 -5.424900 -20.414800
C -4.255400 -6.811300 -19.116700
N -3.852500 -5.758100 -19.826400
C -3.795900 -8.432800 -17.523300
N -3.416300 -7.338200 -18.188600
H -3.182400 -8.761300 -16.900800
H -3.120900 -5.393000 -19.646400
