18
Fragment
H -13.915300 -8.046900 -18.220400
C -13.065300 -8.414400 -18.008700
N -12.810800 -8.574800 -16.702400
N -12.292700 -8.699100 -19.043400
H -11.965500 -9.006500 -14.439500
C -11.607000 -9.087600 -16.332300
N -11.358500 -9.236700 -15.033900
C -11.104800 -9.204800 -18.653200
H -10.782800 -9.908200 -21.295800
C -10.704600 -9.426500 -17.342700
H -10.586500 -9.567400 -14.768300
N -10.071500 -9.618000 -19.435900
C -9.985400 -9.507800 -20.890400
H -9.929000 -8.563800 -21.143900
N -9.436000 -9.983300 -17.319200
H -9.186800 -9.981300 -21.206100
C -9.101300 -10.063400 -18.588700
H -8.264300 -10.399800 -18.885200
18
Fragment
H -16.215900 -10.710900 -16.986400
C -15.378900 -11.047200 -17.282900
H -15.293400 -11.129300 -14.665500
N -15.044100 -11.127400 -18.552400
H -14.551200 -12.546900 -14.727700
C -14.494800 -11.602900 -14.981200
N -14.408700 -11.492700 -16.435600
H -13.893700 -11.543300 -21.103300
C -13.775600 -11.684100 -18.528900
H -13.697400 -11.202500 -14.575800
C -13.375400 -11.905900 -17.218400
N -13.121700 -11.874000 -20.837700
C -12.873100 -12.023100 -19.539300
H -12.514700 -12.104200 -21.432100
N -12.187500 -12.411600 -16.828200
N -11.669400 -12.535900 -19.169200
C -11.414900 -12.696300 -17.862900
H -10.564900 -13.063700 -17.651200
36
Fragment
H -13.915300 -8.046900 -18.220400
C -13.065300 -8.414400 -18.008700
N -12.810800 -8.574800 -16.702400
N -12.292700 -8.699100 -19.043400
H -11.965500 -9.006500 -14.439500
C -11.607000 -9.087600 -16.332300
N -11.358500 -9.236700 -15.033900
C -11.104800 -9.204800 -18.653200
H -10.782800 -9.908200 -21.295800
C -10.704600 -9.426500 -17.342700
H -10.586500 -9.567400 -14.768300
N -10.071500 -9.618000 -19.435900
C -9.985400 -9.507800 -20.890400
H -9.929000 -8.563800 -21.143900
N -9.436000 -9.983300 -17.319200
H -9.186800 -9.981300 -21.206100
C -9.101300 -10.063400 -18.588700
H -8.264300 -10.399800 -18.885200
H -16.215900 -10.710900 -16.986400
C -15.378900 -11.047200 -17.282900
H -15.293400 -11.129300 -14.665500
N -15.044100 -11.127400 -18.552400
H -14.551200 -12.546900 -14.727700
C -14.494800 -11.602900 -14.981200
N -14.408700 -11.492700 -16.435600
H -13.893700 -11.543300 -21.103300
C -13.775600 -11.684100 -18.528900
H -13.697400 -11.202500 -14.575800
C -13.375400 -11.905900 -17.218400
N -13.121700 -11.874000 -20.837700
C -12.873100 -12.023100 -19.539300
H -12.514700 -12.104200 -21.432100
N -12.187500 -12.411600 -16.828200
N -11.669400 -12.535900 -19.169200
C -11.414900 -12.696300 -17.862900
H -10.564900 -13.063700 -17.651200
