18
Fragment
H -13.915300 -8.046900 -18.220400
C -13.065300 -8.414400 -18.008700
N -12.810800 -8.574800 -16.702400
N -12.292700 -8.699100 -19.043400
H -11.965500 -9.006500 -14.439500
C -11.607000 -9.087600 -16.332300
N -11.358500 -9.236700 -15.033900
C -11.104800 -9.204800 -18.653200
H -10.782800 -9.908200 -21.295800
C -10.704600 -9.426500 -17.342700
H -10.586500 -9.567400 -14.768300
N -10.071500 -9.618000 -19.435900
C -9.985400 -9.507800 -20.890400
H -9.929000 -8.563800 -21.143900
N -9.436000 -9.983300 -17.319200
H -9.186800 -9.981300 -21.206100
C -9.101300 -10.063400 -18.588700
H -8.264300 -10.399800 -18.885200
12
Fragment
F -11.584400 -3.337600 -18.561300
F -11.468000 -5.418500 -18.048700
H -11.316900 -4.485100 -21.307700
O -11.163800 -5.095300 -20.696900
C -10.769800 -4.381200 -18.494200
C -10.145100 -4.633700 -19.846600
F -9.859300 -4.101100 -17.554200
H -9.786500 -3.772100 -20.205300
F -9.425100 -6.812000 -19.299800
C -9.041600 -5.642900 -19.813100
F -8.596500 -5.882900 -21.031800
F -8.001500 -5.233300 -19.081900
30
Fragment
H -13.915300 -8.046900 -18.220400
C -13.065300 -8.414400 -18.008700
N -12.810800 -8.574800 -16.702400
N -12.292700 -8.699100 -19.043400
H -11.965500 -9.006500 -14.439500
C -11.607000 -9.087600 -16.332300
N -11.358500 -9.236700 -15.033900
C -11.104800 -9.204800 -18.653200
H -10.782800 -9.908200 -21.295800
C -10.704600 -9.426500 -17.342700
H -10.586500 -9.567400 -14.768300
N -10.071500 -9.618000 -19.435900
C -9.985400 -9.507800 -20.890400
H -9.929000 -8.563800 -21.143900
N -9.436000 -9.983300 -17.319200
H -9.186800 -9.981300 -21.206100
C -9.101300 -10.063400 -18.588700
H -8.264300 -10.399800 -18.885200
F -11.584400 -3.337600 -18.561300
F -11.468000 -5.418500 -18.048700
H -11.316900 -4.485100 -21.307700
O -11.163800 -5.095300 -20.696900
C -10.769800 -4.381200 -18.494200
C -10.145100 -4.633700 -19.846600
F -9.859300 -4.101100 -17.554200
H -9.786500 -3.772100 -20.205300
F -9.425100 -6.812000 -19.299800
C -9.041600 -5.642900 -19.813100
F -8.596500 -5.882900 -21.031800
F -8.001500 -5.233300 -19.081900
