18
Fragment
H -13.915300 -8.046900 -18.220400
C -13.065300 -8.414400 -18.008700
N -12.810800 -8.574800 -16.702400
N -12.292700 -8.699100 -19.043400
H -11.965500 -9.006500 -14.439500
C -11.607000 -9.087600 -16.332300
N -11.358500 -9.236700 -15.033900
C -11.104800 -9.204800 -18.653200
H -10.782800 -9.908200 -21.295800
C -10.704600 -9.426500 -17.342700
H -10.586500 -9.567400 -14.768300
N -10.071500 -9.618000 -19.435900
C -9.985400 -9.507800 -20.890400
H -9.929000 -8.563800 -21.143900
N -9.436000 -9.983300 -17.319200
H -9.186800 -9.981300 -21.206100
C -9.101300 -10.063400 -18.588700
H -8.264300 -10.399800 -18.885200
12
Fragment
F -17.866500 -3.031100 -16.789700
F -17.271500 -2.381500 -14.839800
C -16.826500 -2.621500 -16.058500
F -16.442900 -1.452400 -16.571800
H -16.081500 -4.492300 -15.666300
F -16.008700 -4.163300 -18.317300
C -15.722900 -3.630800 -16.025000
C -15.098300 -3.883200 -17.377400
O -14.704200 -3.169100 -15.174600
H -14.551200 -3.779300 -14.563900
F -14.400000 -2.845900 -17.822900
F -14.283600 -4.926800 -17.310300
30
Fragment
H -13.915300 -8.046900 -18.220400
C -13.065300 -8.414400 -18.008700
N -12.810800 -8.574800 -16.702400
N -12.292700 -8.699100 -19.043400
H -11.965500 -9.006500 -14.439500
C -11.607000 -9.087600 -16.332300
N -11.358500 -9.236700 -15.033900
C -11.104800 -9.204800 -18.653200
H -10.782800 -9.908200 -21.295800
C -10.704600 -9.426500 -17.342700
H -10.586500 -9.567400 -14.768300
N -10.071500 -9.618000 -19.435900
C -9.985400 -9.507800 -20.890400
H -9.929000 -8.563800 -21.143900
N -9.436000 -9.983300 -17.319200
H -9.186800 -9.981300 -21.206100
C -9.101300 -10.063400 -18.588700
H -8.264300 -10.399800 -18.885200
F -17.866500 -3.031100 -16.789700
F -17.271500 -2.381500 -14.839800
C -16.826500 -2.621500 -16.058500
F -16.442900 -1.452400 -16.571800
H -16.081500 -4.492300 -15.666300
F -16.008700 -4.163300 -18.317300
C -15.722900 -3.630800 -16.025000
C -15.098300 -3.883200 -17.377400
O -14.704200 -3.169100 -15.174600
H -14.551200 -3.779300 -14.563900
F -14.400000 -2.845900 -17.822900
F -14.283600 -4.926800 -17.310300
