18
Fragment
H -13.915300 -8.046900 -18.220400
C -13.065300 -8.414400 -18.008700
N -12.810800 -8.574800 -16.702400
N -12.292700 -8.699100 -19.043400
H -11.965500 -9.006500 -14.439500
C -11.607000 -9.087600 -16.332300
N -11.358500 -9.236700 -15.033900
C -11.104800 -9.204800 -18.653200
H -10.782800 -9.908200 -21.295800
C -10.704600 -9.426500 -17.342700
H -10.586500 -9.567400 -14.768300
N -10.071500 -9.618000 -19.435900
C -9.985400 -9.507800 -20.890400
H -9.929000 -8.563800 -21.143900
N -9.436000 -9.983300 -17.319200
H -9.186800 -9.981300 -21.206100
C -9.101300 -10.063400 -18.588700
H -8.264300 -10.399800 -18.885200
12
Fragment
F -9.427300 -9.947900 -12.565800
H -8.557700 -11.512400 -14.358200
H -8.390100 -9.893400 -15.675900
O -8.211400 -9.684700 -14.961200
C -8.147100 -10.308700 -12.729600
C -7.918500 -10.771500 -14.151300
F -7.874100 -11.228700 -11.835400
F -7.409700 -9.227800 -12.443300
C -6.516900 -11.252000 -14.402400
F -6.391300 -11.601700 -15.684300
F -6.178600 -12.287200 -13.659900
F -5.593600 -10.289800 -14.194400
30
Fragment
H -13.915300 -8.046900 -18.220400
C -13.065300 -8.414400 -18.008700
N -12.810800 -8.574800 -16.702400
N -12.292700 -8.699100 -19.043400
H -11.965500 -9.006500 -14.439500
C -11.607000 -9.087600 -16.332300
N -11.358500 -9.236700 -15.033900
C -11.104800 -9.204800 -18.653200
H -10.782800 -9.908200 -21.295800
C -10.704600 -9.426500 -17.342700
H -10.586500 -9.567400 -14.768300
N -10.071500 -9.618000 -19.435900
C -9.985400 -9.507800 -20.890400
H -9.929000 -8.563800 -21.143900
N -9.436000 -9.983300 -17.319200
H -9.186800 -9.981300 -21.206100
C -9.101300 -10.063400 -18.588700
H -8.264300 -10.399800 -18.885200
F -9.427300 -9.947900 -12.565800
H -8.557700 -11.512400 -14.358200
H -8.390100 -9.893400 -15.675900
O -8.211400 -9.684700 -14.961200
C -8.147100 -10.308700 -12.729600
C -7.918500 -10.771500 -14.151300
F -7.874100 -11.228700 -11.835400
F -7.409700 -9.227800 -12.443300
C -6.516900 -11.252000 -14.402400
F -6.391300 -11.601700 -15.684300
F -6.178600 -12.287200 -13.659900
F -5.593600 -10.289800 -14.194400
