22
Fragment
H -9.137000 -34.260700 -11.810000
O -8.994400 -36.777700 -12.181000
H -8.714400 -31.987400 -12.269600
C -8.688400 -34.003400 -12.607100
C -8.473800 -36.395200 -13.208900
C -8.442200 -32.669400 -12.873200
C -8.270600 -34.963700 -13.522000
O -8.184600 -38.609100 -14.021300
C -7.987800 -37.431600 -14.229300
C -7.781300 -32.363500 -14.057200
C -7.608400 -34.559300 -14.693600
H -7.605700 -31.447700 -14.239300
N -7.374600 -33.262600 -14.955800
C -7.254300 -36.933500 -15.416600
C -7.087900 -35.561800 -15.657200
H -6.773600 -38.788600 -16.148700
C -6.686800 -37.853800 -16.300500
N -6.430400 -35.094500 -16.732400
C -5.998400 -37.381800 -17.399400
C -5.909600 -36.000800 -17.569000
H -5.598100 -37.977900 -18.019900
H -5.446900 -35.678900 -18.333400
16
Fragment
O -2.789100 -39.112600 -17.137500
H -2.141200 -38.440500 -19.398700
N -1.826300 -39.895600 -17.250000
O -1.549200 -40.724300 -16.368600
C -1.359700 -38.978100 -19.462200
C -1.012800 -39.839300 -18.418300
H -0.781700 -38.297900 -21.268900
C -0.567600 -38.912400 -20.576900
C 0.123900 -40.642500 -18.508400
H 0.360000 -41.211400 -17.785900
C 0.572100 -39.753700 -20.712300
C 0.903700 -40.611700 -19.639000
H 0.980300 -39.195100 -22.524900
N 1.297600 -39.747000 -21.843100
H 1.669900 -41.169400 -19.699500
H 1.834700 -40.405400 -21.974200
38
Fragment
H -9.137000 -34.260700 -11.810000
O -8.994400 -36.777700 -12.181000
H -8.714400 -31.987400 -12.269600
C -8.688400 -34.003400 -12.607100
C -8.473800 -36.395200 -13.208900
C -8.442200 -32.669400 -12.873200
C -8.270600 -34.963700 -13.522000
O -8.184600 -38.609100 -14.021300
C -7.987800 -37.431600 -14.229300
C -7.781300 -32.363500 -14.057200
C -7.608400 -34.559300 -14.693600
H -7.605700 -31.447700 -14.239300
N -7.374600 -33.262600 -14.955800
C -7.254300 -36.933500 -15.416600
C -7.087900 -35.561800 -15.657200
H -6.773600 -38.788600 -16.148700
C -6.686800 -37.853800 -16.300500
N -6.430400 -35.094500 -16.732400
C -5.998400 -37.381800 -17.399400
C -5.909600 -36.000800 -17.569000
H -5.598100 -37.977900 -18.019900
H -5.446900 -35.678900 -18.333400
O -2.789100 -39.112600 -17.137500
H -2.141200 -38.440500 -19.398700
N -1.826300 -39.895600 -17.250000
O -1.549200 -40.724300 -16.368600
C -1.359700 -38.978100 -19.462200
C -1.012800 -39.839300 -18.418300
H -0.781700 -38.297900 -21.268900
C -0.567600 -38.912400 -20.576900
C 0.123900 -40.642500 -18.508400
H 0.360000 -41.211400 -17.785900
C 0.572100 -39.753700 -20.712300
C 0.903700 -40.611700 -19.639000
H 0.980300 -39.195100 -22.524900
N 1.297600 -39.747000 -21.843100
H 1.669900 -41.169400 -19.699500
H 1.834700 -40.405400 -21.974200
