22
Fragment
H -9.137000 -34.260700 -11.810000
O -8.994400 -36.777700 -12.181000
H -8.714400 -31.987400 -12.269600
C -8.688400 -34.003400 -12.607100
C -8.473800 -36.395200 -13.208900
C -8.442200 -32.669400 -12.873200
C -8.270600 -34.963700 -13.522000
O -8.184600 -38.609100 -14.021300
C -7.987800 -37.431600 -14.229300
C -7.781300 -32.363500 -14.057200
C -7.608400 -34.559300 -14.693600
H -7.605700 -31.447700 -14.239300
N -7.374600 -33.262600 -14.955800
C -7.254300 -36.933500 -15.416600
C -7.087900 -35.561800 -15.657200
H -6.773600 -38.788600 -16.148700
C -6.686800 -37.853800 -16.300500
N -6.430400 -35.094500 -16.732400
C -5.998400 -37.381800 -17.399400
C -5.909600 -36.000800 -17.569000
H -5.598100 -37.977900 -18.019900
H -5.446900 -35.678900 -18.333400
16
Fragment
H -8.927100 -30.700000 -6.142200
H -8.891600 -32.179000 -6.174000
N -8.869200 -31.429200 -6.628700
C -8.047100 -31.326700 -7.720400
H -7.987200 -29.277200 -7.786800
H -7.844200 -33.342500 -8.043100
C -7.691200 -30.065000 -8.226300
C -7.606800 -32.486900 -8.381000
C -6.913100 -29.969700 -9.359400
C -6.835400 -32.389000 -9.514000
H -6.667400 -29.118300 -9.702500
H -6.540200 -33.171900 -9.964100
C -6.490800 -31.132700 -9.995200
N -5.667100 -31.054700 -11.186000
O -5.372600 -29.932300 -11.617200
O -5.280000 -32.100500 -11.712400
38
Fragment
H -9.137000 -34.260700 -11.810000
O -8.994400 -36.777700 -12.181000
H -8.714400 -31.987400 -12.269600
C -8.688400 -34.003400 -12.607100
C -8.473800 -36.395200 -13.208900
C -8.442200 -32.669400 -12.873200
C -8.270600 -34.963700 -13.522000
O -8.184600 -38.609100 -14.021300
C -7.987800 -37.431600 -14.229300
C -7.781300 -32.363500 -14.057200
C -7.608400 -34.559300 -14.693600
H -7.605700 -31.447700 -14.239300
N -7.374600 -33.262600 -14.955800
C -7.254300 -36.933500 -15.416600
C -7.087900 -35.561800 -15.657200
H -6.773600 -38.788600 -16.148700
C -6.686800 -37.853800 -16.300500
N -6.430400 -35.094500 -16.732400
C -5.998400 -37.381800 -17.399400
C -5.909600 -36.000800 -17.569000
H -5.598100 -37.977900 -18.019900
H -5.446900 -35.678900 -18.333400
H -8.927100 -30.700000 -6.142200
H -8.891600 -32.179000 -6.174000
N -8.869200 -31.429200 -6.628700
C -8.047100 -31.326700 -7.720400
H -7.987200 -29.277200 -7.786800
H -7.844200 -33.342500 -8.043100
C -7.691200 -30.065000 -8.226300
C -7.606800 -32.486900 -8.381000
C -6.913100 -29.969700 -9.359400
C -6.835400 -32.389000 -9.514000
H -6.667400 -29.118300 -9.702500
H -6.540200 -33.171900 -9.964100
C -6.490800 -31.132700 -9.995200
N -5.667100 -31.054700 -11.186000
O -5.372600 -29.932300 -11.617200
O -5.280000 -32.100500 -11.712400
