22
Fragment
H -9.137000 -34.260700 -11.810000
O -8.994400 -36.777700 -12.181000
H -8.714400 -31.987400 -12.269600
C -8.688400 -34.003400 -12.607100
C -8.473800 -36.395200 -13.208900
C -8.442200 -32.669400 -12.873200
C -8.270600 -34.963700 -13.522000
O -8.184600 -38.609100 -14.021300
C -7.987800 -37.431600 -14.229300
C -7.781300 -32.363500 -14.057200
C -7.608400 -34.559300 -14.693600
H -7.605700 -31.447700 -14.239300
N -7.374600 -33.262600 -14.955800
C -7.254300 -36.933500 -15.416600
C -7.087900 -35.561800 -15.657200
H -6.773600 -38.788600 -16.148700
C -6.686800 -37.853800 -16.300500
N -6.430400 -35.094500 -16.732400
C -5.998400 -37.381800 -17.399400
C -5.909600 -36.000800 -17.569000
H -5.598100 -37.977900 -18.019900
H -5.446900 -35.678900 -18.333400
22
Fragment
H -11.805800 -32.436000 -13.934300
H -11.779100 -30.130000 -14.245700
C -11.388500 -32.090400 -14.714500
C -11.376800 -30.706100 -14.884200
N -10.854000 -32.962300 -15.572600
C -10.757300 -30.201900 -16.013500
H -10.728900 -29.265500 -16.170900
C -10.259700 -32.471000 -16.670400
C -10.176400 -31.089700 -16.917900
N -9.851300 -34.752500 -17.359400
C -9.708500 -33.449700 -17.640800
C -9.521300 -30.553500 -18.135800
H -9.476600 -36.559700 -18.048500
O -9.459900 -29.369000 -18.383400
C -9.377000 -35.635400 -18.247400
C -9.084400 -33.006500 -18.820300
C -8.949400 -31.566600 -19.137300
C -8.747500 -35.293400 -19.443200
C -8.609100 -33.952000 -19.725000
O -8.435900 -31.161500 -20.162600
H -8.427400 -35.959200 -20.040500
H -8.190900 -33.674200 -20.531900
44
Fragment
H -9.137000 -34.260700 -11.810000
O -8.994400 -36.777700 -12.181000
H -8.714400 -31.987400 -12.269600
C -8.688400 -34.003400 -12.607100
C -8.473800 -36.395200 -13.208900
C -8.442200 -32.669400 -12.873200
C -8.270600 -34.963700 -13.522000
O -8.184600 -38.609100 -14.021300
C -7.987800 -37.431600 -14.229300
C -7.781300 -32.363500 -14.057200
C -7.608400 -34.559300 -14.693600
H -7.605700 -31.447700 -14.239300
N -7.374600 -33.262600 -14.955800
C -7.254300 -36.933500 -15.416600
C -7.087900 -35.561800 -15.657200
H -6.773600 -38.788600 -16.148700
C -6.686800 -37.853800 -16.300500
N -6.430400 -35.094500 -16.732400
C -5.998400 -37.381800 -17.399400
C -5.909600 -36.000800 -17.569000
H -5.598100 -37.977900 -18.019900
H -5.446900 -35.678900 -18.333400
H -11.805800 -32.436000 -13.934300
H -11.779100 -30.130000 -14.245700
C -11.388500 -32.090400 -14.714500
C -11.376800 -30.706100 -14.884200
N -10.854000 -32.962300 -15.572600
C -10.757300 -30.201900 -16.013500
H -10.728900 -29.265500 -16.170900
C -10.259700 -32.471000 -16.670400
C -10.176400 -31.089700 -16.917900
N -9.851300 -34.752500 -17.359400
C -9.708500 -33.449700 -17.640800
C -9.521300 -30.553500 -18.135800
H -9.476600 -36.559700 -18.048500
O -9.459900 -29.369000 -18.383400
C -9.377000 -35.635400 -18.247400
C -9.084400 -33.006500 -18.820300
C -8.949400 -31.566600 -19.137300
C -8.747500 -35.293400 -19.443200
C -8.609100 -33.952000 -19.725000
O -8.435900 -31.161500 -20.162600
H -8.427400 -35.959200 -20.040500
H -8.190900 -33.674200 -20.531900
