22
Fragment
H -9.137000 -34.260700 -11.810000
O -8.994400 -36.777700 -12.181000
H -8.714400 -31.987400 -12.269600
C -8.688400 -34.003400 -12.607100
C -8.473800 -36.395200 -13.208900
C -8.442200 -32.669400 -12.873200
C -8.270600 -34.963700 -13.522000
O -8.184600 -38.609100 -14.021300
C -7.987800 -37.431600 -14.229300
C -7.781300 -32.363500 -14.057200
C -7.608400 -34.559300 -14.693600
H -7.605700 -31.447700 -14.239300
N -7.374600 -33.262600 -14.955800
C -7.254300 -36.933500 -15.416600
C -7.087900 -35.561800 -15.657200
H -6.773600 -38.788600 -16.148700
C -6.686800 -37.853800 -16.300500
N -6.430400 -35.094500 -16.732400
C -5.998400 -37.381800 -17.399400
C -5.909600 -36.000800 -17.569000
H -5.598100 -37.977900 -18.019900
H -5.446900 -35.678900 -18.333400
16
Fragment
O -12.621200 -43.782400 -9.467600
O -12.528600 -41.614200 -9.562800
N -12.234200 -42.736600 -9.994000
C -11.410400 -42.814600 -11.184800
H -11.361100 -44.853800 -11.215900
H -11.233900 -40.800200 -11.477400
C -11.065900 -44.070900 -11.665900
C -10.988100 -41.651600 -11.820500
C -10.294400 -44.168800 -12.799000
C -10.210000 -41.746900 -12.953700
H -10.057000 -45.024400 -13.136900
H -9.914000 -40.959100 -13.393200
C -9.854100 -43.008600 -13.459600
N -9.032000 -43.111100 -14.551300
H -9.009700 -43.860900 -15.006000
H -8.974100 -42.381900 -15.037800
38
Fragment
H -9.137000 -34.260700 -11.810000
O -8.994400 -36.777700 -12.181000
H -8.714400 -31.987400 -12.269600
C -8.688400 -34.003400 -12.607100
C -8.473800 -36.395200 -13.208900
C -8.442200 -32.669400 -12.873200
C -8.270600 -34.963700 -13.522000
O -8.184600 -38.609100 -14.021300
C -7.987800 -37.431600 -14.229300
C -7.781300 -32.363500 -14.057200
C -7.608400 -34.559300 -14.693600
H -7.605700 -31.447700 -14.239300
N -7.374600 -33.262600 -14.955800
C -7.254300 -36.933500 -15.416600
C -7.087900 -35.561800 -15.657200
H -6.773600 -38.788600 -16.148700
C -6.686800 -37.853800 -16.300500
N -6.430400 -35.094500 -16.732400
C -5.998400 -37.381800 -17.399400
C -5.909600 -36.000800 -17.569000
H -5.598100 -37.977900 -18.019900
H -5.446900 -35.678900 -18.333400
O -12.621200 -43.782400 -9.467600
O -12.528600 -41.614200 -9.562800
N -12.234200 -42.736600 -9.994000
C -11.410400 -42.814600 -11.184800
H -11.361100 -44.853800 -11.215900
H -11.233900 -40.800200 -11.477400
C -11.065900 -44.070900 -11.665900
C -10.988100 -41.651600 -11.820500
C -10.294400 -44.168800 -12.799000
C -10.210000 -41.746900 -12.953700
H -10.057000 -45.024400 -13.136900
H -9.914000 -40.959100 -13.393200
C -9.854100 -43.008600 -13.459600
N -9.032000 -43.111100 -14.551300
H -9.009700 -43.860900 -15.006000
H -8.974100 -42.381900 -15.037800
