22
Fragment
H -9.137000 -34.260700 -11.810000
O -8.994400 -36.777700 -12.181000
H -8.714400 -31.987400 -12.269600
C -8.688400 -34.003400 -12.607100
C -8.473800 -36.395200 -13.208900
C -8.442200 -32.669400 -12.873200
C -8.270600 -34.963700 -13.522000
O -8.184600 -38.609100 -14.021300
C -7.987800 -37.431600 -14.229300
C -7.781300 -32.363500 -14.057200
C -7.608400 -34.559300 -14.693600
H -7.605700 -31.447700 -14.239300
N -7.374600 -33.262600 -14.955800
C -7.254300 -36.933500 -15.416600
C -7.087900 -35.561800 -15.657200
H -6.773600 -38.788600 -16.148700
C -6.686800 -37.853800 -16.300500
N -6.430400 -35.094500 -16.732400
C -5.998400 -37.381800 -17.399400
C -5.909600 -36.000800 -17.569000
H -5.598100 -37.977900 -18.019900
H -5.446900 -35.678900 -18.333400
16
Fragment
O -6.835300 -35.512500 -10.159800
O -6.349500 -37.583700 -9.763400
N -6.290600 -36.579800 -10.466700
C -5.546200 -36.633000 -11.709600
H -5.456400 -38.671800 -11.813100
H -5.446600 -34.604100 -11.954000
C -5.197300 -37.867800 -12.247400
C -5.188100 -35.438700 -12.328500
C -4.470300 -37.911500 -13.419800
C -4.451600 -35.482800 -13.493300
H -4.235200 -38.751200 -13.798800
H -4.196300 -34.674200 -13.919500
C -4.076200 -36.718300 -14.057600
N -3.280500 -36.725800 -15.168600
H -3.185500 -35.963900 -15.630800
H -3.178100 -37.494200 -15.630800
38
Fragment
H -9.137000 -34.260700 -11.810000
O -8.994400 -36.777700 -12.181000
H -8.714400 -31.987400 -12.269600
C -8.688400 -34.003400 -12.607100
C -8.473800 -36.395200 -13.208900
C -8.442200 -32.669400 -12.873200
C -8.270600 -34.963700 -13.522000
O -8.184600 -38.609100 -14.021300
C -7.987800 -37.431600 -14.229300
C -7.781300 -32.363500 -14.057200
C -7.608400 -34.559300 -14.693600
H -7.605700 -31.447700 -14.239300
N -7.374600 -33.262600 -14.955800
C -7.254300 -36.933500 -15.416600
C -7.087900 -35.561800 -15.657200
H -6.773600 -38.788600 -16.148700
C -6.686800 -37.853800 -16.300500
N -6.430400 -35.094500 -16.732400
C -5.998400 -37.381800 -17.399400
C -5.909600 -36.000800 -17.569000
H -5.598100 -37.977900 -18.019900
H -5.446900 -35.678900 -18.333400
O -6.835300 -35.512500 -10.159800
O -6.349500 -37.583700 -9.763400
N -6.290600 -36.579800 -10.466700
C -5.546200 -36.633000 -11.709600
H -5.456400 -38.671800 -11.813100
H -5.446600 -34.604100 -11.954000
C -5.197300 -37.867800 -12.247400
C -5.188100 -35.438700 -12.328500
C -4.470300 -37.911500 -13.419800
C -4.451600 -35.482800 -13.493300
H -4.235200 -38.751200 -13.798800
H -4.196300 -34.674200 -13.919500
C -4.076200 -36.718300 -14.057600
N -3.280500 -36.725800 -15.168600
H -3.185500 -35.963900 -15.630800
H -3.178100 -37.494200 -15.630800
