22
Fragment
H -9.137000 -34.260700 -11.810000
O -8.994400 -36.777700 -12.181000
H -8.714400 -31.987400 -12.269600
C -8.688400 -34.003400 -12.607100
C -8.473800 -36.395200 -13.208900
C -8.442200 -32.669400 -12.873200
C -8.270600 -34.963700 -13.522000
O -8.184600 -38.609100 -14.021300
C -7.987800 -37.431600 -14.229300
C -7.781300 -32.363500 -14.057200
C -7.608400 -34.559300 -14.693600
H -7.605700 -31.447700 -14.239300
N -7.374600 -33.262600 -14.955800
C -7.254300 -36.933500 -15.416600
C -7.087900 -35.561800 -15.657200
H -6.773600 -38.788600 -16.148700
C -6.686800 -37.853800 -16.300500
N -6.430400 -35.094500 -16.732400
C -5.998400 -37.381800 -17.399400
C -5.909600 -36.000800 -17.569000
H -5.598100 -37.977900 -18.019900
H -5.446900 -35.678900 -18.333400
22
Fragment
H -7.651800 -45.356100 -11.238100
H -7.415400 -47.641100 -11.729500
O -7.406800 -42.843400 -11.607400
C -7.233700 -45.633900 -12.044900
C -7.095200 -46.975300 -12.326700
C -6.893400 -43.248500 -12.632700
C -6.758400 -44.688400 -12.949700
C -6.465700 -47.317300 -13.522600
O -6.382800 -41.050900 -13.386600
H -6.366200 -48.241600 -13.721500
C -6.321500 -42.235400 -13.634200
C -6.134200 -45.131600 -14.129200
N -5.991500 -46.434400 -14.410500
C -5.666400 -42.771600 -14.852000
C -5.583100 -44.152900 -15.099500
H -5.113900 -40.947400 -15.599100
C -5.085500 -41.883800 -15.756400
N -4.988700 -44.644200 -16.197400
C -4.465900 -42.388000 -16.885700
C -4.454200 -43.772300 -17.055500
H -4.063700 -41.811900 -17.524300
H -4.036900 -44.117900 -17.835700
44
Fragment
H -9.137000 -34.260700 -11.810000
O -8.994400 -36.777700 -12.181000
H -8.714400 -31.987400 -12.269600
C -8.688400 -34.003400 -12.607100
C -8.473800 -36.395200 -13.208900
C -8.442200 -32.669400 -12.873200
C -8.270600 -34.963700 -13.522000
O -8.184600 -38.609100 -14.021300
C -7.987800 -37.431600 -14.229300
C -7.781300 -32.363500 -14.057200
C -7.608400 -34.559300 -14.693600
H -7.605700 -31.447700 -14.239300
N -7.374600 -33.262600 -14.955800
C -7.254300 -36.933500 -15.416600
C -7.087900 -35.561800 -15.657200
H -6.773600 -38.788600 -16.148700
C -6.686800 -37.853800 -16.300500
N -6.430400 -35.094500 -16.732400
C -5.998400 -37.381800 -17.399400
C -5.909600 -36.000800 -17.569000
H -5.598100 -37.977900 -18.019900
H -5.446900 -35.678900 -18.333400
H -7.651800 -45.356100 -11.238100
H -7.415400 -47.641100 -11.729500
O -7.406800 -42.843400 -11.607400
C -7.233700 -45.633900 -12.044900
C -7.095200 -46.975300 -12.326700
C -6.893400 -43.248500 -12.632700
C -6.758400 -44.688400 -12.949700
C -6.465700 -47.317300 -13.522600
O -6.382800 -41.050900 -13.386600
H -6.366200 -48.241600 -13.721500
C -6.321500 -42.235400 -13.634200
C -6.134200 -45.131600 -14.129200
N -5.991500 -46.434400 -14.410500
C -5.666400 -42.771600 -14.852000
C -5.583100 -44.152900 -15.099500
H -5.113900 -40.947400 -15.599100
C -5.085500 -41.883800 -15.756400
N -4.988700 -44.644200 -16.197400
C -4.465900 -42.388000 -16.885700
C -4.454200 -43.772300 -17.055500
H -4.063700 -41.811900 -17.524300
H -4.036900 -44.117900 -17.835700
