22
Fragment
H -9.137000 -34.260700 -11.810000
O -8.994400 -36.777700 -12.181000
H -8.714400 -31.987400 -12.269600
C -8.688400 -34.003400 -12.607100
C -8.473800 -36.395200 -13.208900
C -8.442200 -32.669400 -12.873200
C -8.270600 -34.963700 -13.522000
O -8.184600 -38.609100 -14.021300
C -7.987800 -37.431600 -14.229300
C -7.781300 -32.363500 -14.057200
C -7.608400 -34.559300 -14.693600
H -7.605700 -31.447700 -14.239300
N -7.374600 -33.262600 -14.955800
C -7.254300 -36.933500 -15.416600
C -7.087900 -35.561800 -15.657200
H -6.773600 -38.788600 -16.148700
C -6.686800 -37.853800 -16.300500
N -6.430400 -35.094500 -16.732400
C -5.998400 -37.381800 -17.399400
C -5.909600 -36.000800 -17.569000
H -5.598100 -37.977900 -18.019900
H -5.446900 -35.678900 -18.333400
16
Fragment
H -10.338000 -28.723500 -9.795700
H -10.173300 -29.487500 -12.070500
N -9.801000 -28.065100 -9.926800
H -9.483600 -27.513200 -9.245100
C -9.407000 -28.929800 -12.130900
C -9.075500 -28.071800 -11.057600
H -8.863300 -29.529500 -13.984100
C -8.627300 -28.960600 -13.261500
C -7.935800 -27.230500 -11.193100
H -7.721700 -26.616000 -10.501000
C -7.490500 -28.157400 -13.351600
C -7.143700 -27.296200 -12.307800
O -6.954100 -29.042400 -15.401300
N -6.677000 -28.213700 -14.519900
H -6.362200 -26.758600 -12.371200
O -5.714200 -27.430700 -14.632500
38
Fragment
H -9.137000 -34.260700 -11.810000
O -8.994400 -36.777700 -12.181000
H -8.714400 -31.987400 -12.269600
C -8.688400 -34.003400 -12.607100
C -8.473800 -36.395200 -13.208900
C -8.442200 -32.669400 -12.873200
C -8.270600 -34.963700 -13.522000
O -8.184600 -38.609100 -14.021300
C -7.987800 -37.431600 -14.229300
C -7.781300 -32.363500 -14.057200
C -7.608400 -34.559300 -14.693600
H -7.605700 -31.447700 -14.239300
N -7.374600 -33.262600 -14.955800
C -7.254300 -36.933500 -15.416600
C -7.087900 -35.561800 -15.657200
H -6.773600 -38.788600 -16.148700
C -6.686800 -37.853800 -16.300500
N -6.430400 -35.094500 -16.732400
C -5.998400 -37.381800 -17.399400
C -5.909600 -36.000800 -17.569000
H -5.598100 -37.977900 -18.019900
H -5.446900 -35.678900 -18.333400
H -10.338000 -28.723500 -9.795700
H -10.173300 -29.487500 -12.070500
N -9.801000 -28.065100 -9.926800
H -9.483600 -27.513200 -9.245100
C -9.407000 -28.929800 -12.130900
C -9.075500 -28.071800 -11.057600
H -8.863300 -29.529500 -13.984100
C -8.627300 -28.960600 -13.261500
C -7.935800 -27.230500 -11.193100
H -7.721700 -26.616000 -10.501000
C -7.490500 -28.157400 -13.351600
C -7.143700 -27.296200 -12.307800
O -6.954100 -29.042400 -15.401300
N -6.677000 -28.213700 -14.519900
H -6.362200 -26.758600 -12.371200
O -5.714200 -27.430700 -14.632500
