22
Fragment
H -9.137000 -34.260700 -11.810000
O -8.994400 -36.777700 -12.181000
H -8.714400 -31.987400 -12.269600
C -8.688400 -34.003400 -12.607100
C -8.473800 -36.395200 -13.208900
C -8.442200 -32.669400 -12.873200
C -8.270600 -34.963700 -13.522000
O -8.184600 -38.609100 -14.021300
C -7.987800 -37.431600 -14.229300
C -7.781300 -32.363500 -14.057200
C -7.608400 -34.559300 -14.693600
H -7.605700 -31.447700 -14.239300
N -7.374600 -33.262600 -14.955800
C -7.254300 -36.933500 -15.416600
C -7.087900 -35.561800 -15.657200
H -6.773600 -38.788600 -16.148700
C -6.686800 -37.853800 -16.300500
N -6.430400 -35.094500 -16.732400
C -5.998400 -37.381800 -17.399400
C -5.909600 -36.000800 -17.569000
H -5.598100 -37.977900 -18.019900
H -5.446900 -35.678900 -18.333400
16
Fragment
O -4.776900 -35.512500 -20.749800
O -4.291000 -37.583700 -20.353400
N -4.232100 -36.579800 -21.056700
C -3.487700 -36.633000 -22.299600
H -3.397900 -38.671800 -22.403100
H -3.388100 -34.604100 -22.544000
C -3.138800 -37.867800 -22.837400
C -3.129600 -35.438700 -22.918500
C -2.411800 -37.911500 -24.009800
C -2.393100 -35.482800 -24.083300
H -2.176700 -38.751200 -24.388700
H -2.137800 -34.674200 -24.509500
C -2.017800 -36.718300 -24.647600
N -1.222000 -36.725800 -25.758600
H -1.127000 -35.963900 -26.220800
H -1.119700 -37.494200 -26.220800
38
Fragment
H -9.137000 -34.260700 -11.810000
O -8.994400 -36.777700 -12.181000
H -8.714400 -31.987400 -12.269600
C -8.688400 -34.003400 -12.607100
C -8.473800 -36.395200 -13.208900
C -8.442200 -32.669400 -12.873200
C -8.270600 -34.963700 -13.522000
O -8.184600 -38.609100 -14.021300
C -7.987800 -37.431600 -14.229300
C -7.781300 -32.363500 -14.057200
C -7.608400 -34.559300 -14.693600
H -7.605700 -31.447700 -14.239300
N -7.374600 -33.262600 -14.955800
C -7.254300 -36.933500 -15.416600
C -7.087900 -35.561800 -15.657200
H -6.773600 -38.788600 -16.148700
C -6.686800 -37.853800 -16.300500
N -6.430400 -35.094500 -16.732400
C -5.998400 -37.381800 -17.399400
C -5.909600 -36.000800 -17.569000
H -5.598100 -37.977900 -18.019900
H -5.446900 -35.678900 -18.333400
O -4.776900 -35.512500 -20.749800
O -4.291000 -37.583700 -20.353400
N -4.232100 -36.579800 -21.056700
C -3.487700 -36.633000 -22.299600
H -3.397900 -38.671800 -22.403100
H -3.388100 -34.604100 -22.544000
C -3.138800 -37.867800 -22.837400
C -3.129600 -35.438700 -22.918500
C -2.411800 -37.911500 -24.009800
C -2.393100 -35.482800 -24.083300
H -2.176700 -38.751200 -24.388700
H -2.137800 -34.674200 -24.509500
C -2.017800 -36.718300 -24.647600
N -1.222000 -36.725800 -25.758600
H -1.127000 -35.963900 -26.220800
H -1.119700 -37.494200 -26.220800
