23
Fragment
H -9.245200 -12.446800 -29.895600
H -9.048900 -13.808100 -32.009900
C -8.459500 -12.709400 -30.316700
C -8.355100 -13.462900 -31.495900
H -7.301900 -11.482600 -28.083600
C -7.191600 -12.436800 -29.908800
C -7.037100 -13.579300 -31.723500
O -7.017600 -14.852300 -33.572700
C -6.702100 -11.756600 -28.739000
H -6.621000 -9.913200 -26.573900
H -6.342400 -11.313400 -25.891300
N -6.330800 -14.273600 -32.738300
O -6.283900 -12.969300 -30.784400
C -5.930000 -10.538300 -26.303800
N -5.457800 -11.524900 -28.589700
O -5.146700 -9.406800 -24.290300
O -5.101700 -14.264600 -32.725400
N -5.088800 -10.918100 -27.427700
C -4.927100 -9.888600 -25.378800
C -3.788300 -10.549600 -27.247800
N -3.725900 -9.951200 -25.998300
H -2.958300 -9.628300 -25.636200
O -2.861800 -10.699100 -28.006900
23
Fragment
H -2.521300 -12.446800 -29.895600
H -2.325000 -13.808100 -32.009900
C -1.735600 -12.709400 -30.316700
C -1.631200 -13.462900 -31.495900
H -0.578000 -11.482600 -28.083600
C -0.467700 -12.436800 -29.908800
C -0.313200 -13.579300 -31.723500
O -0.293700 -14.852300 -33.572700
C 0.021800 -11.756600 -28.739000
H 0.102900 -9.913200 -26.573900
H 0.381500 -11.313400 -25.891300
N 0.393100 -14.273600 -32.738300
O 0.440000 -12.969300 -30.784400
C 0.793900 -10.538300 -26.303800
N 1.266100 -11.524900 -28.589700
O 1.577200 -9.406800 -24.290300
O 1.622200 -14.264600 -32.725400
N 1.635100 -10.918100 -27.427700
C 1.796800 -9.888600 -25.378800
C 2.935600 -10.549600 -27.247800
N 2.998000 -9.951200 -25.998300
H 3.765600 -9.628300 -25.636200
O 3.862100 -10.699100 -28.006900
46
Fragment
H -9.245200 -12.446800 -29.895600
H -9.048900 -13.808100 -32.009900
C -8.459500 -12.709400 -30.316700
C -8.355100 -13.462900 -31.495900
H -7.301900 -11.482600 -28.083600
C -7.191600 -12.436800 -29.908800
C -7.037100 -13.579300 -31.723500
O -7.017600 -14.852300 -33.572700
C -6.702100 -11.756600 -28.739000
H -6.621000 -9.913200 -26.573900
H -6.342400 -11.313400 -25.891300
N -6.330800 -14.273600 -32.738300
O -6.283900 -12.969300 -30.784400
C -5.930000 -10.538300 -26.303800
N -5.457800 -11.524900 -28.589700
O -5.146700 -9.406800 -24.290300
O -5.101700 -14.264600 -32.725400
N -5.088800 -10.918100 -27.427700
C -4.927100 -9.888600 -25.378800
C -3.788300 -10.549600 -27.247800
N -3.725900 -9.951200 -25.998300
H -2.958300 -9.628300 -25.636200
O -2.861800 -10.699100 -28.006900
H -2.521300 -12.446800 -29.895600
H -2.325000 -13.808100 -32.009900
C -1.735600 -12.709400 -30.316700
C -1.631200 -13.462900 -31.495900
H -0.578000 -11.482600 -28.083600
C -0.467700 -12.436800 -29.908800
C -0.313200 -13.579300 -31.723500
O -0.293700 -14.852300 -33.572700
C 0.021800 -11.756600 -28.739000
H 0.102900 -9.913200 -26.573900
H 0.381500 -11.313400 -25.891300
N 0.393100 -14.273600 -32.738300
O 0.440000 -12.969300 -30.784400
C 0.793900 -10.538300 -26.303800
N 1.266100 -11.524900 -28.589700
O 1.577200 -9.406800 -24.290300
O 1.622200 -14.264600 -32.725400
N 1.635100 -10.918100 -27.427700
C 1.796800 -9.888600 -25.378800
C 2.935600 -10.549600 -27.247800
N 2.998000 -9.951200 -25.998300
H 3.765600 -9.628300 -25.636200
O 3.862100 -10.699100 -28.006900
