23
Fragment
O -7.894200 -21.248300 -21.807200
H -7.655500 -21.555400 -18.992300
N -7.528600 -22.422600 -21.737200
O -7.413300 -23.175800 -22.704300
C -7.378600 -22.415200 -19.214300
C -7.243300 -22.938500 -20.446600
C -7.008700 -23.454900 -18.329600
H -6.996700 -23.414900 -17.400700
O -6.822500 -24.230400 -20.435500
C -6.672100 -24.533500 -19.104700
C -6.239200 -25.867100 -18.777900
H -6.161700 -28.481500 -17.517100
H -6.141700 -26.127700 -17.889800
N -5.991300 -26.690000 -19.726800
N -5.578300 -27.943600 -19.376100
O -5.466300 -28.680900 -21.563000
C -5.347800 -28.476300 -18.044400
C -5.338700 -28.862700 -20.368500
N -4.920500 -30.021400 -19.736200
C -4.884300 -29.887600 -18.369100
H -4.745300 -30.839400 -20.191500
H -4.662300 -27.976400 -17.574700
O -4.558500 -30.732200 -17.577000
23
Fragment
O -7.863100 -23.905700 -15.116400
H -7.759200 -21.149900 -15.118700
H -7.676300 -24.012900 -12.502000
C -7.537200 -23.061100 -14.324300
N -7.501100 -23.194900 -12.957200
C -7.082800 -22.036200 -12.324900
C -7.073800 -21.649800 -14.649000
O -6.955300 -21.854400 -11.130400
N -6.843300 -21.117100 -13.317300
N -6.430200 -19.863500 -12.966600
H -6.279900 -19.301200 -14.803600
H -6.259800 -21.655000 -15.176300
C -6.182400 -19.040600 -13.915500
C -5.749500 -17.707000 -13.588700
O -5.599000 -17.403900 -12.257900
H -5.424800 -16.588400 -15.292700
C -5.412800 -16.628400 -14.363800
C -5.178300 -16.112000 -12.246800
C -5.043000 -15.588700 -13.479100
O -5.008200 -16.349300 -9.989100
N -4.892900 -15.596100 -10.956200
H -4.766000 -14.728900 -13.701200
O -4.527300 -14.421800 -10.886300
46
Fragment
O -7.894200 -21.248300 -21.807200
H -7.655500 -21.555400 -18.992300
N -7.528600 -22.422600 -21.737200
O -7.413300 -23.175800 -22.704300
C -7.378600 -22.415200 -19.214300
C -7.243300 -22.938500 -20.446600
C -7.008700 -23.454900 -18.329600
H -6.996700 -23.414900 -17.400700
O -6.822500 -24.230400 -20.435500
C -6.672100 -24.533500 -19.104700
C -6.239200 -25.867100 -18.777900
H -6.161700 -28.481500 -17.517100
H -6.141700 -26.127700 -17.889800
N -5.991300 -26.690000 -19.726800
N -5.578300 -27.943600 -19.376100
O -5.466300 -28.680900 -21.563000
C -5.347800 -28.476300 -18.044400
C -5.338700 -28.862700 -20.368500
N -4.920500 -30.021400 -19.736200
C -4.884300 -29.887600 -18.369100
H -4.745300 -30.839400 -20.191500
H -4.662300 -27.976400 -17.574700
O -4.558500 -30.732200 -17.577000
O -7.863100 -23.905700 -15.116400
H -7.759200 -21.149900 -15.118700
H -7.676300 -24.012900 -12.502000
C -7.537200 -23.061100 -14.324300
N -7.501100 -23.194900 -12.957200
C -7.082800 -22.036200 -12.324900
C -7.073800 -21.649800 -14.649000
O -6.955300 -21.854400 -11.130400
N -6.843300 -21.117100 -13.317300
N -6.430200 -19.863500 -12.966600
H -6.279900 -19.301200 -14.803600
H -6.259800 -21.655000 -15.176300
C -6.182400 -19.040600 -13.915500
C -5.749500 -17.707000 -13.588700
O -5.599000 -17.403900 -12.257900
H -5.424800 -16.588400 -15.292700
C -5.412800 -16.628400 -14.363800
C -5.178300 -16.112000 -12.246800
C -5.043000 -15.588700 -13.479100
O -5.008200 -16.349300 -9.989100
N -4.892900 -15.596100 -10.956200
H -4.766000 -14.728900 -13.701200
O -4.527300 -14.421800 -10.886300
