23
Fragment
H -9.245200 -12.446800 -29.895600
H -9.048900 -13.808100 -32.009900
C -8.459500 -12.709400 -30.316700
C -8.355100 -13.462900 -31.495900
H -7.301900 -11.482600 -28.083600
C -7.191600 -12.436800 -29.908800
C -7.037100 -13.579300 -31.723500
O -7.017600 -14.852300 -33.572700
C -6.702100 -11.756600 -28.739000
H -6.621000 -9.913200 -26.573900
H -6.342400 -11.313400 -25.891300
N -6.330800 -14.273600 -32.738300
O -6.283900 -12.969300 -30.784400
C -5.930000 -10.538300 -26.303800
N -5.457800 -11.524900 -28.589700
O -5.146700 -9.406800 -24.290300
O -5.101700 -14.264600 -32.725400
N -5.088800 -10.918100 -27.427700
C -4.927100 -9.888600 -25.378800
C -3.788300 -10.549600 -27.247800
N -3.725900 -9.951200 -25.998300
H -2.958300 -9.628300 -25.636200
O -2.861800 -10.699100 -28.006900
17
Fragment
H -14.014900 -15.279900 -27.737500
H -13.897600 -16.525900 -29.794800
N -13.103100 -16.209100 -29.982400
C -13.098900 -15.139700 -27.819200
H -12.884200 -14.201500 -26.063600
H -12.606000 -16.647000 -30.615500
C -12.433100 -15.585700 -28.966700
C -12.420500 -14.498800 -26.813200
C -11.064700 -15.334700 -29.069700
C -11.052000 -14.288600 -26.899700
O -10.922500 -13.171300 -24.823100
H -10.604300 -15.594600 -29.835500
C -10.396600 -14.711200 -28.057300
C -10.316500 -13.665500 -25.811000
H -9.481900 -14.564300 -28.140500
O -9.034600 -13.641000 -25.897500
H -8.497900 -13.219400 -25.072300
40
Fragment
H -9.245200 -12.446800 -29.895600
H -9.048900 -13.808100 -32.009900
C -8.459500 -12.709400 -30.316700
C -8.355100 -13.462900 -31.495900
H -7.301900 -11.482600 -28.083600
C -7.191600 -12.436800 -29.908800
C -7.037100 -13.579300 -31.723500
O -7.017600 -14.852300 -33.572700
C -6.702100 -11.756600 -28.739000
H -6.621000 -9.913200 -26.573900
H -6.342400 -11.313400 -25.891300
N -6.330800 -14.273600 -32.738300
O -6.283900 -12.969300 -30.784400
C -5.930000 -10.538300 -26.303800
N -5.457800 -11.524900 -28.589700
O -5.146700 -9.406800 -24.290300
O -5.101700 -14.264600 -32.725400
N -5.088800 -10.918100 -27.427700
C -4.927100 -9.888600 -25.378800
C -3.788300 -10.549600 -27.247800
N -3.725900 -9.951200 -25.998300
H -2.958300 -9.628300 -25.636200
O -2.861800 -10.699100 -28.006900
H -14.014900 -15.279900 -27.737500
H -13.897600 -16.525900 -29.794800
N -13.103100 -16.209100 -29.982400
C -13.098900 -15.139700 -27.819200
H -12.884200 -14.201500 -26.063600
H -12.606000 -16.647000 -30.615500
C -12.433100 -15.585700 -28.966700
C -12.420500 -14.498800 -26.813200
C -11.064700 -15.334700 -29.069700
C -11.052000 -14.288600 -26.899700
O -10.922500 -13.171300 -24.823100
H -10.604300 -15.594600 -29.835500
C -10.396600 -14.711200 -28.057300
C -10.316500 -13.665500 -25.811000
H -9.481900 -14.564300 -28.140500
O -9.034600 -13.641000 -25.897500
H -8.497900 -13.219400 -25.072300
