23
Fragment
H -9.245200 -12.446800 -29.895600
H -9.048900 -13.808100 -32.009900
C -8.459500 -12.709400 -30.316700
C -8.355100 -13.462900 -31.495900
H -7.301900 -11.482600 -28.083600
C -7.191600 -12.436800 -29.908800
C -7.037100 -13.579300 -31.723500
O -7.017600 -14.852300 -33.572700
C -6.702100 -11.756600 -28.739000
H -6.621000 -9.913200 -26.573900
H -6.342400 -11.313400 -25.891300
N -6.330800 -14.273600 -32.738300
O -6.283900 -12.969300 -30.784400
C -5.930000 -10.538300 -26.303800
N -5.457800 -11.524900 -28.589700
O -5.146700 -9.406800 -24.290300
O -5.101700 -14.264600 -32.725400
N -5.088800 -10.918100 -27.427700
C -4.927100 -9.888600 -25.378800
C -3.788300 -10.549600 -27.247800
N -3.725900 -9.951200 -25.998300
H -2.958300 -9.628300 -25.636200
O -2.861800 -10.699100 -28.006900
23
Fragment
O -15.044000 -13.818000 -36.997700
H -14.947500 -14.888800 -39.368400
N -14.179900 -14.565900 -39.006300
C -14.117500 -13.967600 -37.756800
C -12.978700 -14.628500 -39.625800
N -12.817000 -13.599100 -37.576900
O -12.804100 -10.252500 -32.279200
O -12.759100 -15.110300 -40.714300
N -12.448000 -12.992300 -36.414900
C -11.975800 -13.978900 -38.700800
O -11.621900 -11.547900 -34.220200
N -11.575000 -10.243500 -32.266300
H -11.563400 -13.203700 -39.113300
H -11.284800 -14.603900 -38.430700
C -11.203700 -12.760500 -36.265600
O -10.888200 -9.664900 -31.431800
C -10.868700 -10.937800 -33.281000
C -10.714200 -12.080400 -35.095800
H -10.603900 -13.034600 -36.921000
C -9.550700 -11.054200 -33.508700
C -9.446300 -11.807700 -34.687900
H -8.856900 -10.709000 -32.994700
H -8.660600 -12.070300 -35.109000
46
Fragment
H -9.245200 -12.446800 -29.895600
H -9.048900 -13.808100 -32.009900
C -8.459500 -12.709400 -30.316700
C -8.355100 -13.462900 -31.495900
H -7.301900 -11.482600 -28.083600
C -7.191600 -12.436800 -29.908800
C -7.037100 -13.579300 -31.723500
O -7.017600 -14.852300 -33.572700
C -6.702100 -11.756600 -28.739000
H -6.621000 -9.913200 -26.573900
H -6.342400 -11.313400 -25.891300
N -6.330800 -14.273600 -32.738300
O -6.283900 -12.969300 -30.784400
C -5.930000 -10.538300 -26.303800
N -5.457800 -11.524900 -28.589700
O -5.146700 -9.406800 -24.290300
O -5.101700 -14.264600 -32.725400
N -5.088800 -10.918100 -27.427700
C -4.927100 -9.888600 -25.378800
C -3.788300 -10.549600 -27.247800
N -3.725900 -9.951200 -25.998300
H -2.958300 -9.628300 -25.636200
O -2.861800 -10.699100 -28.006900
O -15.044000 -13.818000 -36.997700
H -14.947500 -14.888800 -39.368400
N -14.179900 -14.565900 -39.006300
C -14.117500 -13.967600 -37.756800
C -12.978700 -14.628500 -39.625800
N -12.817000 -13.599100 -37.576900
O -12.804100 -10.252500 -32.279200
O -12.759100 -15.110300 -40.714300
N -12.448000 -12.992300 -36.414900
C -11.975800 -13.978900 -38.700800
O -11.621900 -11.547900 -34.220200
N -11.575000 -10.243500 -32.266300
H -11.563400 -13.203700 -39.113300
H -11.284800 -14.603900 -38.430700
C -11.203700 -12.760500 -36.265600
O -10.888200 -9.664900 -31.431800
C -10.868700 -10.937800 -33.281000
C -10.714200 -12.080400 -35.095800
H -10.603900 -13.034600 -36.921000
C -9.550700 -11.054200 -33.508700
C -9.446300 -11.807700 -34.687900
H -8.856900 -10.709000 -32.994700
H -8.660600 -12.070300 -35.109000
