23
Fragment
H -9.245200 -12.446800 -29.895600
H -9.048900 -13.808100 -32.009900
C -8.459500 -12.709400 -30.316700
C -8.355100 -13.462900 -31.495900
H -7.301900 -11.482600 -28.083600
C -7.191600 -12.436800 -29.908800
C -7.037100 -13.579300 -31.723500
O -7.017600 -14.852300 -33.572700
C -6.702100 -11.756600 -28.739000
H -6.621000 -9.913200 -26.573900
H -6.342400 -11.313400 -25.891300
N -6.330800 -14.273600 -32.738300
O -6.283900 -12.969300 -30.784400
C -5.930000 -10.538300 -26.303800
N -5.457800 -11.524900 -28.589700
O -5.146700 -9.406800 -24.290300
O -5.101700 -14.264600 -32.725400
N -5.088800 -10.918100 -27.427700
C -4.927100 -9.888600 -25.378800
C -3.788300 -10.549600 -27.247800
N -3.725900 -9.951200 -25.998300
H -2.958300 -9.628300 -25.636200
O -2.861800 -10.699100 -28.006900
23
Fragment
H -15.969100 -12.446800 -29.895600
H -15.772800 -13.808100 -32.009900
C -15.183400 -12.709400 -30.316700
C -15.079000 -13.462900 -31.495900
H -14.025800 -11.482600 -28.083600
C -13.915500 -12.436800 -29.908800
C -13.761000 -13.579300 -31.723500
O -13.741500 -14.852300 -33.572700
C -13.426000 -11.756600 -28.739000
H -13.344900 -9.913200 -26.573900
H -13.066300 -11.313400 -25.891300
N -13.054700 -14.273600 -32.738300
O -13.007800 -12.969300 -30.784400
C -12.653900 -10.538300 -26.303800
N -12.181700 -11.524900 -28.589700
O -11.870600 -9.406800 -24.290300
O -11.825600 -14.264600 -32.725400
N -11.812700 -10.918100 -27.427700
C -11.651000 -9.888600 -25.378800
C -10.512200 -10.549600 -27.247800
N -10.449800 -9.951200 -25.998300
H -9.682200 -9.628300 -25.636200
O -9.585700 -10.699100 -28.006900
46
Fragment
H -9.245200 -12.446800 -29.895600
H -9.048900 -13.808100 -32.009900
C -8.459500 -12.709400 -30.316700
C -8.355100 -13.462900 -31.495900
H -7.301900 -11.482600 -28.083600
C -7.191600 -12.436800 -29.908800
C -7.037100 -13.579300 -31.723500
O -7.017600 -14.852300 -33.572700
C -6.702100 -11.756600 -28.739000
H -6.621000 -9.913200 -26.573900
H -6.342400 -11.313400 -25.891300
N -6.330800 -14.273600 -32.738300
O -6.283900 -12.969300 -30.784400
C -5.930000 -10.538300 -26.303800
N -5.457800 -11.524900 -28.589700
O -5.146700 -9.406800 -24.290300
O -5.101700 -14.264600 -32.725400
N -5.088800 -10.918100 -27.427700
C -4.927100 -9.888600 -25.378800
C -3.788300 -10.549600 -27.247800
N -3.725900 -9.951200 -25.998300
H -2.958300 -9.628300 -25.636200
O -2.861800 -10.699100 -28.006900
H -15.969100 -12.446800 -29.895600
H -15.772800 -13.808100 -32.009900
C -15.183400 -12.709400 -30.316700
C -15.079000 -13.462900 -31.495900
H -14.025800 -11.482600 -28.083600
C -13.915500 -12.436800 -29.908800
C -13.761000 -13.579300 -31.723500
O -13.741500 -14.852300 -33.572700
C -13.426000 -11.756600 -28.739000
H -13.344900 -9.913200 -26.573900
H -13.066300 -11.313400 -25.891300
N -13.054700 -14.273600 -32.738300
O -13.007800 -12.969300 -30.784400
C -12.653900 -10.538300 -26.303800
N -12.181700 -11.524900 -28.589700
O -11.870600 -9.406800 -24.290300
O -11.825600 -14.264600 -32.725400
N -11.812700 -10.918100 -27.427700
C -11.651000 -9.888600 -25.378800
C -10.512200 -10.549600 -27.247800
N -10.449800 -9.951200 -25.998300
H -9.682200 -9.628300 -25.636200
O -9.585700 -10.699100 -28.006900
