23
Fragment
H -9.245200 -12.446800 -29.895600
H -9.048900 -13.808100 -32.009900
C -8.459500 -12.709400 -30.316700
C -8.355100 -13.462900 -31.495900
H -7.301900 -11.482600 -28.083600
C -7.191600 -12.436800 -29.908800
C -7.037100 -13.579300 -31.723500
O -7.017600 -14.852300 -33.572700
C -6.702100 -11.756600 -28.739000
H -6.621000 -9.913200 -26.573900
H -6.342400 -11.313400 -25.891300
N -6.330800 -14.273600 -32.738300
O -6.283900 -12.969300 -30.784400
C -5.930000 -10.538300 -26.303800
N -5.457800 -11.524900 -28.589700
O -5.146700 -9.406800 -24.290300
O -5.101700 -14.264600 -32.725400
N -5.088800 -10.918100 -27.427700
C -4.927100 -9.888600 -25.378800
C -3.788300 -10.549600 -27.247800
N -3.725900 -9.951200 -25.998300
H -2.958300 -9.628300 -25.636200
O -2.861800 -10.699100 -28.006900
23
Fragment
O -6.795100 -21.208300 -36.997700
H -6.698600 -22.279100 -39.368400
N -5.931000 -21.956200 -39.006300
C -5.868700 -21.357900 -37.756800
C -4.729900 -22.018800 -39.625800
N -4.568100 -20.989400 -37.576900
O -4.555300 -17.642800 -32.279200
O -4.510300 -22.500600 -40.714300
N -4.199100 -20.382600 -36.414900
C -3.727000 -21.369200 -38.700800
O -3.373000 -18.938200 -34.220200
N -3.326100 -17.633800 -32.266300
H -3.314600 -20.594000 -39.113300
H -3.036000 -21.994200 -38.430700
C -2.954900 -20.150800 -36.265600
O -2.639300 -17.055200 -31.431800
C -2.619900 -18.328100 -33.281000
C -2.465300 -19.470700 -35.095800
H -2.355100 -20.424900 -36.921000
C -1.301900 -18.444500 -33.508700
C -1.197500 -19.198000 -34.687900
H -0.608100 -18.099400 -32.994700
H -0.411800 -19.460700 -35.109000
46
Fragment
H -9.245200 -12.446800 -29.895600
H -9.048900 -13.808100 -32.009900
C -8.459500 -12.709400 -30.316700
C -8.355100 -13.462900 -31.495900
H -7.301900 -11.482600 -28.083600
C -7.191600 -12.436800 -29.908800
C -7.037100 -13.579300 -31.723500
O -7.017600 -14.852300 -33.572700
C -6.702100 -11.756600 -28.739000
H -6.621000 -9.913200 -26.573900
H -6.342400 -11.313400 -25.891300
N -6.330800 -14.273600 -32.738300
O -6.283900 -12.969300 -30.784400
C -5.930000 -10.538300 -26.303800
N -5.457800 -11.524900 -28.589700
O -5.146700 -9.406800 -24.290300
O -5.101700 -14.264600 -32.725400
N -5.088800 -10.918100 -27.427700
C -4.927100 -9.888600 -25.378800
C -3.788300 -10.549600 -27.247800
N -3.725900 -9.951200 -25.998300
H -2.958300 -9.628300 -25.636200
O -2.861800 -10.699100 -28.006900
O -6.795100 -21.208300 -36.997700
H -6.698600 -22.279100 -39.368400
N -5.931000 -21.956200 -39.006300
C -5.868700 -21.357900 -37.756800
C -4.729900 -22.018800 -39.625800
N -4.568100 -20.989400 -37.576900
O -4.555300 -17.642800 -32.279200
O -4.510300 -22.500600 -40.714300
N -4.199100 -20.382600 -36.414900
C -3.727000 -21.369200 -38.700800
O -3.373000 -18.938200 -34.220200
N -3.326100 -17.633800 -32.266300
H -3.314600 -20.594000 -39.113300
H -3.036000 -21.994200 -38.430700
C -2.954900 -20.150800 -36.265600
O -2.639300 -17.055200 -31.431800
C -2.619900 -18.328100 -33.281000
C -2.465300 -19.470700 -35.095800
H -2.355100 -20.424900 -36.921000
C -1.301900 -18.444500 -33.508700
C -1.197500 -19.198000 -34.687900
H -0.608100 -18.099400 -32.994700
H -0.411800 -19.460700 -35.109000
