23
Fragment
O -7.894200 -21.248300 -21.807200
H -7.655500 -21.555400 -18.992300
N -7.528600 -22.422600 -21.737200
O -7.413300 -23.175800 -22.704300
C -7.378600 -22.415200 -19.214300
C -7.243300 -22.938500 -20.446600
C -7.008700 -23.454900 -18.329600
H -6.996700 -23.414900 -17.400700
O -6.822500 -24.230400 -20.435500
C -6.672100 -24.533500 -19.104700
C -6.239200 -25.867100 -18.777900
H -6.161700 -28.481500 -17.517100
H -6.141700 -26.127700 -17.889800
N -5.991300 -26.690000 -19.726800
N -5.578300 -27.943600 -19.376100
O -5.466300 -28.680900 -21.563000
C -5.347800 -28.476300 -18.044400
C -5.338700 -28.862700 -20.368500
N -4.920500 -30.021400 -19.736200
C -4.884300 -29.887600 -18.369100
H -4.745300 -30.839400 -20.191500
H -4.662300 -27.976400 -17.574700
O -4.558500 -30.732200 -17.577000
23
Fragment
O -5.409900 -40.190200 -15.268500
H -5.171200 -39.883100 -12.453600
N -5.044300 -39.015900 -15.198500
O -4.929000 -38.262700 -16.165600
C -4.894300 -39.023300 -12.675600
C -4.759000 -38.500000 -13.907900
C -4.524400 -37.983600 -11.790900
H -4.512400 -38.023600 -10.862100
O -4.338200 -37.208100 -13.896800
C -4.187800 -36.905000 -12.566000
C -3.754900 -35.571400 -12.239200
H -3.677400 -32.957000 -10.978400
H -3.657400 -35.310800 -11.351200
N -3.507000 -34.748500 -13.188100
N -3.094000 -33.494900 -12.837400
O -2.982000 -32.757600 -15.024300
C -2.863500 -32.962200 -11.505700
C -2.854400 -32.575800 -13.829800
N -2.436100 -31.417100 -13.197500
C -2.400000 -31.550900 -11.830400
H -2.261000 -30.599100 -13.652800
H -2.178000 -33.462100 -11.036000
O -2.074200 -30.706300 -11.038300
46
Fragment
O -7.894200 -21.248300 -21.807200
H -7.655500 -21.555400 -18.992300
N -7.528600 -22.422600 -21.737200
O -7.413300 -23.175800 -22.704300
C -7.378600 -22.415200 -19.214300
C -7.243300 -22.938500 -20.446600
C -7.008700 -23.454900 -18.329600
H -6.996700 -23.414900 -17.400700
O -6.822500 -24.230400 -20.435500
C -6.672100 -24.533500 -19.104700
C -6.239200 -25.867100 -18.777900
H -6.161700 -28.481500 -17.517100
H -6.141700 -26.127700 -17.889800
N -5.991300 -26.690000 -19.726800
N -5.578300 -27.943600 -19.376100
O -5.466300 -28.680900 -21.563000
C -5.347800 -28.476300 -18.044400
C -5.338700 -28.862700 -20.368500
N -4.920500 -30.021400 -19.736200
C -4.884300 -29.887600 -18.369100
H -4.745300 -30.839400 -20.191500
H -4.662300 -27.976400 -17.574700
O -4.558500 -30.732200 -17.577000
O -5.409900 -40.190200 -15.268500
H -5.171200 -39.883100 -12.453600
N -5.044300 -39.015900 -15.198500
O -4.929000 -38.262700 -16.165600
C -4.894300 -39.023300 -12.675600
C -4.759000 -38.500000 -13.907900
C -4.524400 -37.983600 -11.790900
H -4.512400 -38.023600 -10.862100
O -4.338200 -37.208100 -13.896800
C -4.187800 -36.905000 -12.566000
C -3.754900 -35.571400 -12.239200
H -3.677400 -32.957000 -10.978400
H -3.657400 -35.310800 -11.351200
N -3.507000 -34.748500 -13.188100
N -3.094000 -33.494900 -12.837400
O -2.982000 -32.757600 -15.024300
C -2.863500 -32.962200 -11.505700
C -2.854400 -32.575800 -13.829800
N -2.436100 -31.417100 -13.197500
C -2.400000 -31.550900 -11.830400
H -2.261000 -30.599100 -13.652800
H -2.178000 -33.462100 -11.036000
O -2.074200 -30.706300 -11.038300
