23
Fragment
H -9.245200 -12.446800 -29.895600
H -9.048900 -13.808100 -32.009900
C -8.459500 -12.709400 -30.316700
C -8.355100 -13.462900 -31.495900
H -7.301900 -11.482600 -28.083600
C -7.191600 -12.436800 -29.908800
C -7.037100 -13.579300 -31.723500
O -7.017600 -14.852300 -33.572700
C -6.702100 -11.756600 -28.739000
H -6.621000 -9.913200 -26.573900
H -6.342400 -11.313400 -25.891300
N -6.330800 -14.273600 -32.738300
O -6.283900 -12.969300 -30.784400
C -5.930000 -10.538300 -26.303800
N -5.457800 -11.524900 -28.589700
O -5.146700 -9.406800 -24.290300
O -5.101700 -14.264600 -32.725400
N -5.088800 -10.918100 -27.427700
C -4.927100 -9.888600 -25.378800
C -3.788300 -10.549600 -27.247800
N -3.725900 -9.951200 -25.998300
H -2.958300 -9.628300 -25.636200
O -2.861800 -10.699100 -28.006900
17
Fragment
H -7.882900 -18.688000 -39.932300
O -7.346200 -18.266500 -39.107100
H -6.899000 -17.343100 -36.864100
C -6.064300 -18.241900 -39.193500
C -5.984300 -17.196200 -36.947300
H -5.776500 -16.312900 -35.169100
O -5.458400 -18.736200 -40.181400
C -5.328800 -17.618900 -38.104900
C -5.316200 -16.572700 -35.934900
C -3.960300 -17.408600 -38.191300
C -3.947700 -16.321700 -36.037900
H -3.774900 -15.260400 -34.389000
H -3.496600 -17.705900 -38.941000
C -3.282000 -16.767800 -37.185400
N -3.277800 -15.698300 -35.022200
H -2.483300 -15.381500 -35.209700
H -2.366000 -16.627500 -37.267100
40
Fragment
H -9.245200 -12.446800 -29.895600
H -9.048900 -13.808100 -32.009900
C -8.459500 -12.709400 -30.316700
C -8.355100 -13.462900 -31.495900
H -7.301900 -11.482600 -28.083600
C -7.191600 -12.436800 -29.908800
C -7.037100 -13.579300 -31.723500
O -7.017600 -14.852300 -33.572700
C -6.702100 -11.756600 -28.739000
H -6.621000 -9.913200 -26.573900
H -6.342400 -11.313400 -25.891300
N -6.330800 -14.273600 -32.738300
O -6.283900 -12.969300 -30.784400
C -5.930000 -10.538300 -26.303800
N -5.457800 -11.524900 -28.589700
O -5.146700 -9.406800 -24.290300
O -5.101700 -14.264600 -32.725400
N -5.088800 -10.918100 -27.427700
C -4.927100 -9.888600 -25.378800
C -3.788300 -10.549600 -27.247800
N -3.725900 -9.951200 -25.998300
H -2.958300 -9.628300 -25.636200
O -2.861800 -10.699100 -28.006900
H -7.882900 -18.688000 -39.932300
O -7.346200 -18.266500 -39.107100
H -6.899000 -17.343100 -36.864100
C -6.064300 -18.241900 -39.193500
C -5.984300 -17.196200 -36.947300
H -5.776500 -16.312900 -35.169100
O -5.458400 -18.736200 -40.181400
C -5.328800 -17.618900 -38.104900
C -5.316200 -16.572700 -35.934900
C -3.960300 -17.408600 -38.191300
C -3.947700 -16.321700 -36.037900
H -3.774900 -15.260400 -34.389000
H -3.496600 -17.705900 -38.941000
C -3.282000 -16.767800 -37.185400
N -3.277800 -15.698300 -35.022200
H -2.483300 -15.381500 -35.209700
H -2.366000 -16.627500 -37.267100
