23
Fragment
H -9.245200 -12.446800 -29.895600
H -9.048900 -13.808100 -32.009900
C -8.459500 -12.709400 -30.316700
C -8.355100 -13.462900 -31.495900
H -7.301900 -11.482600 -28.083600
C -7.191600 -12.436800 -29.908800
C -7.037100 -13.579300 -31.723500
O -7.017600 -14.852300 -33.572700
C -6.702100 -11.756600 -28.739000
H -6.621000 -9.913200 -26.573900
H -6.342400 -11.313400 -25.891300
N -6.330800 -14.273600 -32.738300
O -6.283900 -12.969300 -30.784400
C -5.930000 -10.538300 -26.303800
N -5.457800 -11.524900 -28.589700
O -5.146700 -9.406800 -24.290300
O -5.101700 -14.264600 -32.725400
N -5.088800 -10.918100 -27.427700
C -4.927100 -9.888600 -25.378800
C -3.788300 -10.549600 -27.247800
N -3.725900 -9.951200 -25.998300
H -2.958300 -9.628300 -25.636200
O -2.861800 -10.699100 -28.006900
17
Fragment
H -10.130400 -12.558800 -23.681200
O -9.593700 -12.137200 -22.855900
H -9.146500 -11.213800 -20.613000
C -8.311800 -12.112700 -22.942400
C -8.231700 -11.067000 -20.696200
H -8.024000 -10.183600 -18.918000
O -7.705800 -12.606900 -23.930300
C -7.576300 -11.489600 -21.853700
C -7.563600 -10.443400 -19.683700
C -6.207800 -11.279300 -21.940200
C -6.195200 -10.192500 -19.786700
H -6.022300 -9.131200 -18.137900
H -5.744100 -11.576600 -22.689800
C -5.529400 -10.638500 -20.934200
N -5.525200 -9.569000 -18.771000
H -4.730700 -9.252200 -18.958600
H -4.613400 -10.498200 -21.016000
40
Fragment
H -9.245200 -12.446800 -29.895600
H -9.048900 -13.808100 -32.009900
C -8.459500 -12.709400 -30.316700
C -8.355100 -13.462900 -31.495900
H -7.301900 -11.482600 -28.083600
C -7.191600 -12.436800 -29.908800
C -7.037100 -13.579300 -31.723500
O -7.017600 -14.852300 -33.572700
C -6.702100 -11.756600 -28.739000
H -6.621000 -9.913200 -26.573900
H -6.342400 -11.313400 -25.891300
N -6.330800 -14.273600 -32.738300
O -6.283900 -12.969300 -30.784400
C -5.930000 -10.538300 -26.303800
N -5.457800 -11.524900 -28.589700
O -5.146700 -9.406800 -24.290300
O -5.101700 -14.264600 -32.725400
N -5.088800 -10.918100 -27.427700
C -4.927100 -9.888600 -25.378800
C -3.788300 -10.549600 -27.247800
N -3.725900 -9.951200 -25.998300
H -2.958300 -9.628300 -25.636200
O -2.861800 -10.699100 -28.006900
H -10.130400 -12.558800 -23.681200
O -9.593700 -12.137200 -22.855900
H -9.146500 -11.213800 -20.613000
C -8.311800 -12.112700 -22.942400
C -8.231700 -11.067000 -20.696200
H -8.024000 -10.183600 -18.918000
O -7.705800 -12.606900 -23.930300
C -7.576300 -11.489600 -21.853700
C -7.563600 -10.443400 -19.683700
C -6.207800 -11.279300 -21.940200
C -6.195200 -10.192500 -19.786700
H -6.022300 -9.131200 -18.137900
H -5.744100 -11.576600 -22.689800
C -5.529400 -10.638500 -20.934200
N -5.525200 -9.569000 -18.771000
H -4.730700 -9.252200 -18.958600
H -4.613400 -10.498200 -21.016000
