21
Fragment
H -18.865100 -8.610600 -20.155400
N -18.524100 -7.876700 -22.072100
C -18.477900 -8.777400 -21.007200
H -18.375000 -6.149000 -24.630400
C -17.917000 -6.906200 -24.976700
C -17.881800 -8.503800 -23.025500
C -17.824800 -9.906900 -21.324900
H -17.663800 -10.658700 -20.766800
N -17.614500 -8.091500 -24.313000
H -17.475900 -6.410200 -26.899900
N -17.432600 -9.735600 -22.654500
C -17.417500 -7.067000 -26.216500
C -16.957100 -8.873700 -25.217700
N -16.806300 -8.308300 -26.382000
C -16.745400 -10.574200 -23.522300
N -16.535200 -10.118400 -24.797300
N -16.258400 -11.754400 -23.300500
C -15.848800 -11.139300 -25.456100
C -15.697500 -12.106400 -24.524600
H -15.552700 -11.151300 -26.358600
H -15.258700 -12.933300 -24.686500
21
Fragment
H -15.420700 -6.365400 -22.106700
H -15.126700 -8.147400 -20.434600
C -14.981800 -7.192200 -22.268600
C -14.830600 -8.159300 -21.337100
N -14.421000 -7.544300 -23.492700
N -14.144200 -9.180200 -21.995900
C -13.934000 -8.724500 -23.270900
N -13.873100 -10.990400 -20.411200
C -13.722300 -10.425000 -21.575600
C -13.261900 -12.231700 -20.576700
N -13.246800 -9.563100 -24.138800
H -13.203500 -12.888500 -19.893400
N -13.064900 -11.207200 -22.480200
H -13.015600 -8.639900 -26.026400
C -12.854600 -9.391800 -25.468300
C -12.797600 -10.794900 -23.767700
C -12.762300 -12.392400 -21.816600
H -12.304400 -13.149600 -22.162800
C -12.201400 -10.521200 -25.786000
N -12.155300 -11.422000 -24.721200
H -11.814300 -10.688100 -26.637800
42
Fragment
H -18.865100 -8.610600 -20.155400
N -18.524100 -7.876700 -22.072100
C -18.477900 -8.777400 -21.007200
H -18.375000 -6.149000 -24.630400
C -17.917000 -6.906200 -24.976700
C -17.881800 -8.503800 -23.025500
C -17.824800 -9.906900 -21.324900
H -17.663800 -10.658700 -20.766800
N -17.614500 -8.091500 -24.313000
H -17.475900 -6.410200 -26.899900
N -17.432600 -9.735600 -22.654500
C -17.417500 -7.067000 -26.216500
C -16.957100 -8.873700 -25.217700
N -16.806300 -8.308300 -26.382000
C -16.745400 -10.574200 -23.522300
N -16.535200 -10.118400 -24.797300
N -16.258400 -11.754400 -23.300500
C -15.848800 -11.139300 -25.456100
C -15.697500 -12.106400 -24.524600
H -15.552700 -11.151300 -26.358600
H -15.258700 -12.933300 -24.686500
H -15.420700 -6.365400 -22.106700
H -15.126700 -8.147400 -20.434600
C -14.981800 -7.192200 -22.268600
C -14.830600 -8.159300 -21.337100
N -14.421000 -7.544300 -23.492700
N -14.144200 -9.180200 -21.995900
C -13.934000 -8.724500 -23.270900
N -13.873100 -10.990400 -20.411200
C -13.722300 -10.425000 -21.575600
C -13.261900 -12.231700 -20.576700
N -13.246800 -9.563100 -24.138800
H -13.203500 -12.888500 -19.893400
N -13.064900 -11.207200 -22.480200
H -13.015600 -8.639900 -26.026400
C -12.854600 -9.391800 -25.468300
C -12.797600 -10.794900 -23.767700
C -12.762300 -12.392400 -21.816600
H -12.304400 -13.149600 -22.162800
C -12.201400 -10.521200 -25.786000
N -12.155300 -11.422000 -24.721200
H -11.814300 -10.688100 -26.637800
