21
Fragment
H -18.865100 -8.610600 -20.155400
N -18.524100 -7.876700 -22.072100
C -18.477900 -8.777400 -21.007200
H -18.375000 -6.149000 -24.630400
C -17.917000 -6.906200 -24.976700
C -17.881800 -8.503800 -23.025500
C -17.824800 -9.906900 -21.324900
H -17.663800 -10.658700 -20.766800
N -17.614500 -8.091500 -24.313000
H -17.475900 -6.410200 -26.899900
N -17.432600 -9.735600 -22.654500
C -17.417500 -7.067000 -26.216500
C -16.957100 -8.873700 -25.217700
N -16.806300 -8.308300 -26.382000
C -16.745400 -10.574200 -23.522300
N -16.535200 -10.118400 -24.797300
N -16.258400 -11.754400 -23.300500
C -15.848800 -11.139300 -25.456100
C -15.697500 -12.106400 -24.524600
H -15.552700 -11.151300 -26.358600
H -15.258700 -12.933300 -24.686500
21
Fragment
H -22.976700 -5.757400 -32.173500
H -22.505200 -6.739500 -27.133800
N -22.399100 -6.249200 -29.147200
C -22.109400 -5.370700 -32.149900
C -21.986600 -6.336800 -27.820100
H -21.781700 -4.733300 -34.046800
C -21.436800 -4.809300 -33.165000
C -21.411800 -5.633200 -29.720100
N -21.254900 -5.261700 -31.049500
C -20.772400 -5.790300 -27.615300
N -20.383500 -5.320800 -28.862800
H -20.289900 -5.737700 -26.798500
N -20.180100 -4.351600 -32.786900
C -20.130200 -4.643100 -31.518400
C -19.205100 -4.734500 -29.294900
N -19.102600 -4.432100 -30.620100
N -18.138900 -4.468500 -28.602400
C -17.817200 -3.904700 -30.782000
H -17.416600 -3.591100 -31.583900
C -17.271500 -3.939900 -29.552600
H -16.392300 -3.637300 -29.355000
42
Fragment
H -18.865100 -8.610600 -20.155400
N -18.524100 -7.876700 -22.072100
C -18.477900 -8.777400 -21.007200
H -18.375000 -6.149000 -24.630400
C -17.917000 -6.906200 -24.976700
C -17.881800 -8.503800 -23.025500
C -17.824800 -9.906900 -21.324900
H -17.663800 -10.658700 -20.766800
N -17.614500 -8.091500 -24.313000
H -17.475900 -6.410200 -26.899900
N -17.432600 -9.735600 -22.654500
C -17.417500 -7.067000 -26.216500
C -16.957100 -8.873700 -25.217700
N -16.806300 -8.308300 -26.382000
C -16.745400 -10.574200 -23.522300
N -16.535200 -10.118400 -24.797300
N -16.258400 -11.754400 -23.300500
C -15.848800 -11.139300 -25.456100
C -15.697500 -12.106400 -24.524600
H -15.552700 -11.151300 -26.358600
H -15.258700 -12.933300 -24.686500
H -22.976700 -5.757400 -32.173500
H -22.505200 -6.739500 -27.133800
N -22.399100 -6.249200 -29.147200
C -22.109400 -5.370700 -32.149900
C -21.986600 -6.336800 -27.820100
H -21.781700 -4.733300 -34.046800
C -21.436800 -4.809300 -33.165000
C -21.411800 -5.633200 -29.720100
N -21.254900 -5.261700 -31.049500
C -20.772400 -5.790300 -27.615300
N -20.383500 -5.320800 -28.862800
H -20.289900 -5.737700 -26.798500
N -20.180100 -4.351600 -32.786900
C -20.130200 -4.643100 -31.518400
C -19.205100 -4.734500 -29.294900
N -19.102600 -4.432100 -30.620100
N -18.138900 -4.468500 -28.602400
C -17.817200 -3.904700 -30.782000
H -17.416600 -3.591100 -31.583900
C -17.271500 -3.939900 -29.552600
H -16.392300 -3.637300 -29.355000
