21
Fragment
H -18.865100 -8.610600 -20.155400
N -18.524100 -7.876700 -22.072100
C -18.477900 -8.777400 -21.007200
H -18.375000 -6.149000 -24.630400
C -17.917000 -6.906200 -24.976700
C -17.881800 -8.503800 -23.025500
C -17.824800 -9.906900 -21.324900
H -17.663800 -10.658700 -20.766800
N -17.614500 -8.091500 -24.313000
H -17.475900 -6.410200 -26.899900
N -17.432600 -9.735600 -22.654500
C -17.417500 -7.067000 -26.216500
C -16.957100 -8.873700 -25.217700
N -16.806300 -8.308300 -26.382000
C -16.745400 -10.574200 -23.522300
N -16.535200 -10.118400 -24.797300
N -16.258400 -11.754400 -23.300500
C -15.848800 -11.139300 -25.456100
C -15.697500 -12.106400 -24.524600
H -15.552700 -11.151300 -26.358600
H -15.258700 -12.933300 -24.686500
21
Fragment
H -18.474100 -1.053800 -20.155400
N -18.133000 -0.319900 -22.072100
C -18.086900 -1.220600 -21.007200
H -17.984000 1.407700 -24.630400
C -17.526000 0.650600 -24.976700
C -17.490800 -0.947000 -23.025500
C -17.433800 -2.350100 -21.324900
H -17.272800 -3.101900 -20.766800
N -17.223500 -0.534700 -24.313000
H -17.084800 1.146600 -26.899900
N -17.041600 -2.178800 -22.654500
C -17.026500 0.489800 -26.216500
C -16.566000 -1.316900 -25.217700
N -16.415300 -0.751500 -26.382000
C -16.354400 -3.017400 -23.522300
N -16.144200 -2.561700 -24.797300
N -15.867400 -4.197600 -23.300500
C -15.457800 -3.582600 -25.456100
C -15.306500 -4.549600 -24.524600
H -15.161700 -3.594500 -26.358600
H -14.867700 -5.376500 -24.686500
42
Fragment
H -18.865100 -8.610600 -20.155400
N -18.524100 -7.876700 -22.072100
C -18.477900 -8.777400 -21.007200
H -18.375000 -6.149000 -24.630400
C -17.917000 -6.906200 -24.976700
C -17.881800 -8.503800 -23.025500
C -17.824800 -9.906900 -21.324900
H -17.663800 -10.658700 -20.766800
N -17.614500 -8.091500 -24.313000
H -17.475900 -6.410200 -26.899900
N -17.432600 -9.735600 -22.654500
C -17.417500 -7.067000 -26.216500
C -16.957100 -8.873700 -25.217700
N -16.806300 -8.308300 -26.382000
C -16.745400 -10.574200 -23.522300
N -16.535200 -10.118400 -24.797300
N -16.258400 -11.754400 -23.300500
C -15.848800 -11.139300 -25.456100
C -15.697500 -12.106400 -24.524600
H -15.552700 -11.151300 -26.358600
H -15.258700 -12.933300 -24.686500
H -18.474100 -1.053800 -20.155400
N -18.133000 -0.319900 -22.072100
C -18.086900 -1.220600 -21.007200
H -17.984000 1.407700 -24.630400
C -17.526000 0.650600 -24.976700
C -17.490800 -0.947000 -23.025500
C -17.433800 -2.350100 -21.324900
H -17.272800 -3.101900 -20.766800
N -17.223500 -0.534700 -24.313000
H -17.084800 1.146600 -26.899900
N -17.041600 -2.178800 -22.654500
C -17.026500 0.489800 -26.216500
C -16.566000 -1.316900 -25.217700
N -16.415300 -0.751500 -26.382000
C -16.354400 -3.017400 -23.522300
N -16.144200 -2.561700 -24.797300
N -15.867400 -4.197600 -23.300500
C -15.457800 -3.582600 -25.456100
C -15.306500 -4.549600 -24.524600
H -15.161700 -3.594500 -26.358600
H -14.867700 -5.376500 -24.686500
