18
Fragment
O -8.643200 -5.417800 -12.985700
H -7.522800 -3.186400 -13.986200
C -7.491800 -5.067700 -13.169100
H -7.279800 -9.233300 -11.278300
N -6.998800 -3.930100 -13.725200
N -6.376800 -7.024300 -12.289000
C -6.372400 -9.493300 -11.168500
N -6.315300 -5.776900 -12.869300
N -5.982800 -10.610600 -10.651400
N -5.612600 -3.894000 -13.758800
N -5.280200 -8.727800 -11.540900
C -5.223000 -5.011300 -13.241600
N -5.218700 -7.480300 -12.121200
N -4.596600 -10.574500 -10.684900
H -4.315600 -5.271400 -13.131800
C -4.103700 -9.436900 -11.241000
H -4.072600 -11.318300 -10.423900
O -2.952200 -9.086900 -11.424400
12
Fragment
O -9.799600 -12.807500 -9.866100
H -9.572000 -14.563100 -8.296200
H -8.656400 -15.771500 -8.808800
C -8.650100 -14.876100 -8.411000
C -8.575600 -13.005800 -9.934600
H -8.205000 -14.909500 -7.538700
H -8.065200 -12.430200 -10.492300
N -7.934000 -13.963400 -9.284600
C -6.493700 -14.136500 -9.425900
H -6.305600 -15.030500 -9.780300
H -6.142500 -13.459800 -10.041500
H -6.065200 -14.034700 -8.550100
30
Fragment
O -8.643200 -5.417800 -12.985700
H -7.522800 -3.186400 -13.986200
C -7.491800 -5.067700 -13.169100
H -7.279800 -9.233300 -11.278300
N -6.998800 -3.930100 -13.725200
N -6.376800 -7.024300 -12.289000
C -6.372400 -9.493300 -11.168500
N -6.315300 -5.776900 -12.869300
N -5.982800 -10.610600 -10.651400
N -5.612600 -3.894000 -13.758800
N -5.280200 -8.727800 -11.540900
C -5.223000 -5.011300 -13.241600
N -5.218700 -7.480300 -12.121200
N -4.596600 -10.574500 -10.684900
H -4.315600 -5.271400 -13.131800
C -4.103700 -9.436900 -11.241000
H -4.072600 -11.318300 -10.423900
O -2.952200 -9.086900 -11.424400
O -9.799600 -12.807500 -9.866100
H -9.572000 -14.563100 -8.296200
H -8.656400 -15.771500 -8.808800
C -8.650100 -14.876100 -8.411000
C -8.575600 -13.005800 -9.934600
H -8.205000 -14.909500 -7.538700
H -8.065200 -12.430200 -10.492300
N -7.934000 -13.963400 -9.284600
C -6.493700 -14.136500 -9.425900
H -6.305600 -15.030500 -9.780300
H -6.142500 -13.459800 -10.041500
H -6.065200 -14.034700 -8.550100
