18
Fragment
O -8.643200 -5.417800 -12.985700
H -7.522800 -3.186400 -13.986200
C -7.491800 -5.067700 -13.169100
H -7.279800 -9.233300 -11.278300
N -6.998800 -3.930100 -13.725200
N -6.376800 -7.024300 -12.289000
C -6.372400 -9.493300 -11.168500
N -6.315300 -5.776900 -12.869300
N -5.982800 -10.610600 -10.651400
N -5.612600 -3.894000 -13.758800
N -5.280200 -8.727800 -11.540900
C -5.223000 -5.011300 -13.241600
N -5.218700 -7.480300 -12.121200
N -4.596600 -10.574500 -10.684900
H -4.315600 -5.271400 -13.131800
C -4.103700 -9.436900 -11.241000
H -4.072600 -11.318300 -10.423900
O -2.952200 -9.086900 -11.424400
18
Fragment
O -6.693100 -13.136200 -12.985700
H -5.572800 -10.904800 -13.986200
C -5.541700 -12.786200 -13.169100
H -5.329700 -16.951800 -11.278300
N -5.048700 -11.648600 -13.725200
N -4.426700 -14.742800 -12.289000
C -4.422300 -17.211800 -11.168500
N -4.365200 -13.495300 -12.869300
N -4.032700 -18.329100 -10.651400
N -3.662600 -11.612500 -13.758800
N -3.330100 -16.446200 -11.540900
C -3.273000 -12.729800 -13.241600
N -3.268600 -15.198800 -12.121200
N -2.646600 -18.293000 -10.684900
H -2.365600 -12.989800 -13.131800
C -2.153600 -17.155400 -11.241000
H -2.122500 -19.036700 -10.423900
O -1.002200 -16.805300 -11.424400
36
Fragment
O -8.643200 -5.417800 -12.985700
H -7.522800 -3.186400 -13.986200
C -7.491800 -5.067700 -13.169100
H -7.279800 -9.233300 -11.278300
N -6.998800 -3.930100 -13.725200
N -6.376800 -7.024300 -12.289000
C -6.372400 -9.493300 -11.168500
N -6.315300 -5.776900 -12.869300
N -5.982800 -10.610600 -10.651400
N -5.612600 -3.894000 -13.758800
N -5.280200 -8.727800 -11.540900
C -5.223000 -5.011300 -13.241600
N -5.218700 -7.480300 -12.121200
N -4.596600 -10.574500 -10.684900
H -4.315600 -5.271400 -13.131800
C -4.103700 -9.436900 -11.241000
H -4.072600 -11.318300 -10.423900
O -2.952200 -9.086900 -11.424400
O -6.693100 -13.136200 -12.985700
H -5.572800 -10.904800 -13.986200
C -5.541700 -12.786200 -13.169100
H -5.329700 -16.951800 -11.278300
N -5.048700 -11.648600 -13.725200
N -4.426700 -14.742800 -12.289000
C -4.422300 -17.211800 -11.168500
N -4.365200 -13.495300 -12.869300
N -4.032700 -18.329100 -10.651400
N -3.662600 -11.612500 -13.758800
N -3.330100 -16.446200 -11.540900
C -3.273000 -12.729800 -13.241600
N -3.268600 -15.198800 -12.121200
N -2.646600 -18.293000 -10.684900
H -2.365600 -12.989800 -13.131800
C -2.153600 -17.155400 -11.241000
H -2.122500 -19.036700 -10.423900
O -1.002200 -16.805300 -11.424400
