18
Fragment
O -8.643200 -5.417800 -12.985700
H -7.522800 -3.186400 -13.986200
C -7.491800 -5.067700 -13.169100
H -7.279800 -9.233300 -11.278300
N -6.998800 -3.930100 -13.725200
N -6.376800 -7.024300 -12.289000
C -6.372400 -9.493300 -11.168500
N -6.315300 -5.776900 -12.869300
N -5.982800 -10.610600 -10.651400
N -5.612600 -3.894000 -13.758800
N -5.280200 -8.727800 -11.540900
C -5.223000 -5.011300 -13.241600
N -5.218700 -7.480300 -12.121200
N -4.596600 -10.574500 -10.684900
H -4.315600 -5.271400 -13.131800
C -4.103700 -9.436900 -11.241000
H -4.072600 -11.318300 -10.423900
O -2.952200 -9.086900 -11.424400
18
Fragment
O -10.593200 2.300700 -12.985700
H -9.472900 4.532100 -13.986200
C -9.441800 2.650700 -13.169100
H -9.229800 -1.514800 -11.278300
N -8.948800 3.788300 -13.725200
N -8.326800 0.694200 -12.289000
C -8.322500 -1.774800 -11.168500
N -8.265300 1.941600 -12.869300
N -7.932900 -2.892100 -10.651400
N -7.562700 3.824400 -13.758800
N -7.230200 -1.009300 -11.540900
C -7.173100 2.707200 -13.241600
N -7.168700 0.238100 -12.121200
N -6.546700 -2.856000 -10.684900
H -6.265700 2.447100 -13.131800
C -6.053700 -1.718400 -11.241000
H -6.022700 -3.599800 -10.423900
O -4.902300 -1.368400 -11.424400
36
Fragment
O -8.643200 -5.417800 -12.985700
H -7.522800 -3.186400 -13.986200
C -7.491800 -5.067700 -13.169100
H -7.279800 -9.233300 -11.278300
N -6.998800 -3.930100 -13.725200
N -6.376800 -7.024300 -12.289000
C -6.372400 -9.493300 -11.168500
N -6.315300 -5.776900 -12.869300
N -5.982800 -10.610600 -10.651400
N -5.612600 -3.894000 -13.758800
N -5.280200 -8.727800 -11.540900
C -5.223000 -5.011300 -13.241600
N -5.218700 -7.480300 -12.121200
N -4.596600 -10.574500 -10.684900
H -4.315600 -5.271400 -13.131800
C -4.103700 -9.436900 -11.241000
H -4.072600 -11.318300 -10.423900
O -2.952200 -9.086900 -11.424400
O -10.593200 2.300700 -12.985700
H -9.472900 4.532100 -13.986200
C -9.441800 2.650700 -13.169100
H -9.229800 -1.514800 -11.278300
N -8.948800 3.788300 -13.725200
N -8.326800 0.694200 -12.289000
C -8.322500 -1.774800 -11.168500
N -8.265300 1.941600 -12.869300
N -7.932900 -2.892100 -10.651400
N -7.562700 3.824400 -13.758800
N -7.230200 -1.009300 -11.540900
C -7.173100 2.707200 -13.241600
N -7.168700 0.238100 -12.121200
N -6.546700 -2.856000 -10.684900
H -6.265700 2.447100 -13.131800
C -6.053700 -1.718400 -11.241000
H -6.022700 -3.599800 -10.423900
O -4.902300 -1.368400 -11.424400
