18
Fragment
O -8.643200 -5.417800 -12.985700
H -7.522800 -3.186400 -13.986200
C -7.491800 -5.067700 -13.169100
H -7.279800 -9.233300 -11.278300
N -6.998800 -3.930100 -13.725200
N -6.376800 -7.024300 -12.289000
C -6.372400 -9.493300 -11.168500
N -6.315300 -5.776900 -12.869300
N -5.982800 -10.610600 -10.651400
N -5.612600 -3.894000 -13.758800
N -5.280200 -8.727800 -11.540900
C -5.223000 -5.011300 -13.241600
N -5.218700 -7.480300 -12.121200
N -4.596600 -10.574500 -10.684900
H -4.315600 -5.271400 -13.131800
C -4.103700 -9.436900 -11.241000
H -4.072600 -11.318300 -10.423900
O -2.952200 -9.086900 -11.424400
12
Fragment
H -10.773000 -11.072000 -7.723400
H -10.695600 -11.646900 -6.231900
H -10.532500 -10.076200 -6.493100
C -10.344400 -10.970200 -6.847500
N -8.904200 -11.143300 -6.988800
H -8.772900 -12.676500 -5.781100
H -8.633100 -10.197200 -8.734800
C -8.262500 -12.100900 -6.338800
C -8.188000 -10.230600 -7.862400
H -8.181700 -9.335200 -7.464600
H -7.266200 -10.543600 -7.977200
O -7.038600 -12.299200 -6.407300
30
Fragment
O -8.643200 -5.417800 -12.985700
H -7.522800 -3.186400 -13.986200
C -7.491800 -5.067700 -13.169100
H -7.279800 -9.233300 -11.278300
N -6.998800 -3.930100 -13.725200
N -6.376800 -7.024300 -12.289000
C -6.372400 -9.493300 -11.168500
N -6.315300 -5.776900 -12.869300
N -5.982800 -10.610600 -10.651400
N -5.612600 -3.894000 -13.758800
N -5.280200 -8.727800 -11.540900
C -5.223000 -5.011300 -13.241600
N -5.218700 -7.480300 -12.121200
N -4.596600 -10.574500 -10.684900
H -4.315600 -5.271400 -13.131800
C -4.103700 -9.436900 -11.241000
H -4.072600 -11.318300 -10.423900
O -2.952200 -9.086900 -11.424400
H -10.773000 -11.072000 -7.723400
H -10.695600 -11.646900 -6.231900
H -10.532500 -10.076200 -6.493100
C -10.344400 -10.970200 -6.847500
N -8.904200 -11.143300 -6.988800
H -8.772900 -12.676500 -5.781100
H -8.633100 -10.197200 -8.734800
C -8.262500 -12.100900 -6.338800
C -8.188000 -10.230600 -7.862400
H -8.181700 -9.335200 -7.464600
H -7.266200 -10.543600 -7.977200
O -7.038600 -12.299200 -6.407300
