18
Fragment
O -8.643200 -5.417800 -12.985700
H -7.522800 -3.186400 -13.986200
C -7.491800 -5.067700 -13.169100
H -7.279800 -9.233300 -11.278300
N -6.998800 -3.930100 -13.725200
N -6.376800 -7.024300 -12.289000
C -6.372400 -9.493300 -11.168500
N -6.315300 -5.776900 -12.869300
N -5.982800 -10.610600 -10.651400
N -5.612600 -3.894000 -13.758800
N -5.280200 -8.727800 -11.540900
C -5.223000 -5.011300 -13.241600
N -5.218700 -7.480300 -12.121200
N -4.596600 -10.574500 -10.684900
H -4.315600 -5.271400 -13.131800
C -4.103700 -9.436900 -11.241000
H -4.072600 -11.318300 -10.423900
O -2.952200 -9.086900 -11.424400
12
Fragment
O -11.060800 -2.205400 -18.002800
H -10.833200 -3.961000 -16.432900
H -9.917700 -5.169400 -16.945500
C -9.911400 -4.274100 -16.547700
C -9.836900 -2.403700 -18.071300
H -9.466300 -4.307400 -15.675400
H -9.326500 -1.828100 -18.629000
N -9.195200 -3.361300 -17.421300
C -7.755000 -3.534400 -17.562600
H -7.566900 -4.428400 -17.917000
H -7.403800 -2.857800 -18.178200
H -7.326500 -3.432600 -16.686800
30
Fragment
O -8.643200 -5.417800 -12.985700
H -7.522800 -3.186400 -13.986200
C -7.491800 -5.067700 -13.169100
H -7.279800 -9.233300 -11.278300
N -6.998800 -3.930100 -13.725200
N -6.376800 -7.024300 -12.289000
C -6.372400 -9.493300 -11.168500
N -6.315300 -5.776900 -12.869300
N -5.982800 -10.610600 -10.651400
N -5.612600 -3.894000 -13.758800
N -5.280200 -8.727800 -11.540900
C -5.223000 -5.011300 -13.241600
N -5.218700 -7.480300 -12.121200
N -4.596600 -10.574500 -10.684900
H -4.315600 -5.271400 -13.131800
C -4.103700 -9.436900 -11.241000
H -4.072600 -11.318300 -10.423900
O -2.952200 -9.086900 -11.424400
O -11.060800 -2.205400 -18.002800
H -10.833200 -3.961000 -16.432900
H -9.917700 -5.169400 -16.945500
C -9.911400 -4.274100 -16.547700
C -9.836900 -2.403700 -18.071300
H -9.466300 -4.307400 -15.675400
H -9.326500 -1.828100 -18.629000
N -9.195200 -3.361300 -17.421300
C -7.755000 -3.534400 -17.562600
H -7.566900 -4.428400 -17.917000
H -7.403800 -2.857800 -18.178200
H -7.326500 -3.432600 -16.686800
