14
Fragment
H -9.642200 -10.757900 -21.274700
H -9.278100 -10.802100 -19.771000
C -9.011800 -11.034900 -20.627900
H -8.938400 -11.929400 -20.806500
N -7.753800 -10.368100 -20.943900
N -7.339700 -10.177200 -22.198900
N -6.939400 -9.911200 -20.031600
O -6.298400 -9.984900 -24.642800
C -6.191900 -9.555300 -21.980500
N -5.910400 -9.374800 -20.680400
N -5.350700 -9.344600 -24.218400
N -5.267400 -9.091100 -22.901500
O -4.434000 -8.896600 -24.906500
H -4.390700 -8.672600 -22.568000
8
Fragment
H -9.686700 -7.641000 -23.990900
H -9.573200 -7.663100 -25.491500
N -9.249300 -7.468600 -24.761600
C -8.006600 -7.019900 -24.656300
H -7.653900 -6.845200 -26.542300
O -7.505900 -6.809900 -23.524500
N -7.297300 -6.800300 -25.768000
H -6.465500 -6.373700 -25.688300
22
Fragment
H -9.642200 -10.757900 -21.274700
H -9.278100 -10.802100 -19.771000
C -9.011800 -11.034900 -20.627900
H -8.938400 -11.929400 -20.806500
N -7.753800 -10.368100 -20.943900
N -7.339700 -10.177200 -22.198900
N -6.939400 -9.911200 -20.031600
O -6.298400 -9.984900 -24.642800
C -6.191900 -9.555300 -21.980500
N -5.910400 -9.374800 -20.680400
N -5.350700 -9.344600 -24.218400
N -5.267400 -9.091100 -22.901500
O -4.434000 -8.896600 -24.906500
H -4.390700 -8.672600 -22.568000
H -9.686700 -7.641000 -23.990900
H -9.573200 -7.663100 -25.491500
N -9.249300 -7.468600 -24.761600
C -8.006600 -7.019900 -24.656300
H -7.653900 -6.845200 -26.542300
O -7.505900 -6.809900 -23.524500
N -7.297300 -6.800300 -25.768000
H -6.465500 -6.373700 -25.688300
