14
Fragment
H -9.642200 -10.757900 -21.274700
H -9.278100 -10.802100 -19.771000
C -9.011800 -11.034900 -20.627900
H -8.938400 -11.929400 -20.806500
N -7.753800 -10.368100 -20.943900
N -7.339700 -10.177200 -22.198900
N -6.939400 -9.911200 -20.031600
O -6.298400 -9.984900 -24.642800
C -6.191900 -9.555300 -21.980500
N -5.910400 -9.374800 -20.680400
N -5.350700 -9.344600 -24.218400
N -5.267400 -9.091100 -22.901500
O -4.434000 -8.896600 -24.906500
H -4.390700 -8.672600 -22.568000
8
Fragment
H -14.249800 -10.780000 -16.365500
H -14.136200 -10.757900 -17.866200
N -13.812300 -10.952400 -17.136300
C -12.569700 -11.401100 -17.030900
H -12.216900 -11.575800 -18.917000
O -12.069000 -11.611100 -15.899200
N -11.860400 -11.620700 -18.142700
H -11.028600 -12.047300 -18.062900
22
Fragment
H -9.642200 -10.757900 -21.274700
H -9.278100 -10.802100 -19.771000
C -9.011800 -11.034900 -20.627900
H -8.938400 -11.929400 -20.806500
N -7.753800 -10.368100 -20.943900
N -7.339700 -10.177200 -22.198900
N -6.939400 -9.911200 -20.031600
O -6.298400 -9.984900 -24.642800
C -6.191900 -9.555300 -21.980500
N -5.910400 -9.374800 -20.680400
N -5.350700 -9.344600 -24.218400
N -5.267400 -9.091100 -22.901500
O -4.434000 -8.896600 -24.906500
H -4.390700 -8.672600 -22.568000
H -14.249800 -10.780000 -16.365500
H -14.136200 -10.757900 -17.866200
N -13.812300 -10.952400 -17.136300
C -12.569700 -11.401100 -17.030900
H -12.216900 -11.575800 -18.917000
O -12.069000 -11.611100 -15.899200
N -11.860400 -11.620700 -18.142700
H -11.028600 -12.047300 -18.062900
