14
Fragment
H -9.642200 -10.757900 -21.274700
H -9.278100 -10.802100 -19.771000
C -9.011800 -11.034900 -20.627900
H -8.938400 -11.929400 -20.806500
N -7.753800 -10.368100 -20.943900
N -7.339700 -10.177200 -22.198900
N -6.939400 -9.911200 -20.031600
O -6.298400 -9.984900 -24.642800
C -6.191900 -9.555300 -21.980500
N -5.910400 -9.374800 -20.680400
N -5.350700 -9.344600 -24.218400
N -5.267400 -9.091100 -22.901500
O -4.434000 -8.896600 -24.906500
H -4.390700 -8.672600 -22.568000
8
Fragment
H -7.113200 -10.057900 -27.689200
N -6.281400 -10.484500 -27.609400
O -6.072800 -10.494100 -29.852900
H -5.924900 -10.529400 -26.835100
C -5.572100 -10.704100 -28.721200
N -4.329500 -11.152800 -28.615800
H -4.005600 -11.347300 -27.885900
H -3.892100 -11.325200 -29.386600
22
Fragment
H -9.642200 -10.757900 -21.274700
H -9.278100 -10.802100 -19.771000
C -9.011800 -11.034900 -20.627900
H -8.938400 -11.929400 -20.806500
N -7.753800 -10.368100 -20.943900
N -7.339700 -10.177200 -22.198900
N -6.939400 -9.911200 -20.031600
O -6.298400 -9.984900 -24.642800
C -6.191900 -9.555300 -21.980500
N -5.910400 -9.374800 -20.680400
N -5.350700 -9.344600 -24.218400
N -5.267400 -9.091100 -22.901500
O -4.434000 -8.896600 -24.906500
H -4.390700 -8.672600 -22.568000
H -7.113200 -10.057900 -27.689200
N -6.281400 -10.484500 -27.609400
O -6.072800 -10.494100 -29.852900
H -5.924900 -10.529400 -26.835100
C -5.572100 -10.704100 -28.721200
N -4.329500 -11.152800 -28.615800
H -4.005600 -11.347300 -27.885900
H -3.892100 -11.325200 -29.386600
