14
Fragment
H -9.642200 -10.757900 -21.274700
H -9.278100 -10.802100 -19.771000
C -9.011800 -11.034900 -20.627900
H -8.938400 -11.929400 -20.806500
N -7.753800 -10.368100 -20.943900
N -7.339700 -10.177200 -22.198900
N -6.939400 -9.911200 -20.031600
O -6.298400 -9.984900 -24.642800
C -6.191900 -9.555300 -21.980500
N -5.910400 -9.374800 -20.680400
N -5.350700 -9.344600 -24.218400
N -5.267400 -9.091100 -22.901500
O -4.434000 -8.896600 -24.906500
H -4.390700 -8.672600 -22.568000
14
Fragment
H -6.164500 -13.432600 -23.184100
O -6.121100 -13.208600 -20.845600
N -5.287700 -13.014100 -22.850600
N -5.204400 -12.760600 -21.533700
N -4.644700 -12.730400 -25.071700
C -4.363200 -12.549900 -23.771600
O -4.256700 -12.120300 -21.109300
N -3.615700 -12.194000 -25.720500
N -3.215400 -11.928000 -23.553200
N -2.801300 -11.737100 -24.808200
H -1.616700 -10.175800 -24.945600
C -1.543300 -11.070300 -25.124200
H -1.277000 -11.303100 -25.981100
H -0.912900 -11.347300 -24.477400
28
Fragment
H -9.642200 -10.757900 -21.274700
H -9.278100 -10.802100 -19.771000
C -9.011800 -11.034900 -20.627900
H -8.938400 -11.929400 -20.806500
N -7.753800 -10.368100 -20.943900
N -7.339700 -10.177200 -22.198900
N -6.939400 -9.911200 -20.031600
O -6.298400 -9.984900 -24.642800
C -6.191900 -9.555300 -21.980500
N -5.910400 -9.374800 -20.680400
N -5.350700 -9.344600 -24.218400
N -5.267400 -9.091100 -22.901500
O -4.434000 -8.896600 -24.906500
H -4.390700 -8.672600 -22.568000
H -6.164500 -13.432600 -23.184100
O -6.121100 -13.208600 -20.845600
N -5.287700 -13.014100 -22.850600
N -5.204400 -12.760600 -21.533700
N -4.644700 -12.730400 -25.071700
C -4.363200 -12.549900 -23.771600
O -4.256700 -12.120300 -21.109300
N -3.615700 -12.194000 -25.720500
N -3.215400 -11.928000 -23.553200
N -2.801300 -11.737100 -24.808200
H -1.616700 -10.175800 -24.945600
C -1.543300 -11.070300 -25.124200
H -1.277000 -11.303100 -25.981100
H -0.912900 -11.347300 -24.477400
