20
Fragment
H -16.546100 -19.957800 -14.708200
N -16.362600 -17.511000 -15.011000
H -15.997100 -19.974800 -13.240000
O -15.962200 -16.154600 -14.812400
C -15.814400 -19.701300 -14.141800
C -15.645800 -18.231200 -14.187600
H -15.009000 -20.125800 -14.448400
C -15.007500 -16.132100 -13.865800
H -14.816300 -14.201700 -13.959700
C -14.768600 -17.411100 -13.427000
N -14.504400 -14.941600 -13.568300
H -13.851400 -14.871400 -12.949700
C -13.809700 -17.792500 -12.423700
N -13.405700 -18.935200 -12.009900
O -13.193200 -16.750200 -11.765700
N -12.438900 -18.677400 -10.993800
C -12.357500 -17.394300 -10.905300
H -11.629900 -15.732400 -10.226300
N -11.583000 -16.621100 -10.144300
H -11.093400 -17.018600 -9.613100
20
Fragment
H -16.142100 -17.247200 -19.217100
N -15.958600 -19.694000 -19.519900
H -15.593100 -17.230200 -17.749000
O -15.558200 -21.050400 -19.321300
C -15.410400 -17.503700 -18.650800
C -15.241800 -18.973800 -18.696500
H -14.605000 -17.079200 -18.957400
C -14.603500 -21.072900 -18.374700
H -14.412300 -23.003300 -18.468600
C -14.364600 -19.793900 -17.935900
N -14.100500 -22.263400 -18.077200
H -13.447400 -22.333600 -17.458600
C -13.405700 -19.412500 -16.932600
N -13.001700 -18.269800 -16.518900
O -12.789200 -20.454800 -16.274600
N -12.034900 -18.527600 -15.502700
C -11.953500 -19.810700 -15.414300
H -11.225900 -21.472600 -14.735200
N -11.179000 -20.583900 -14.653200
H -10.689400 -20.186400 -14.122000
40
Fragment
H -16.546100 -19.957800 -14.708200
N -16.362600 -17.511000 -15.011000
H -15.997100 -19.974800 -13.240000
O -15.962200 -16.154600 -14.812400
C -15.814400 -19.701300 -14.141800
C -15.645800 -18.231200 -14.187600
H -15.009000 -20.125800 -14.448400
C -15.007500 -16.132100 -13.865800
H -14.816300 -14.201700 -13.959700
C -14.768600 -17.411100 -13.427000
N -14.504400 -14.941600 -13.568300
H -13.851400 -14.871400 -12.949700
C -13.809700 -17.792500 -12.423700
N -13.405700 -18.935200 -12.009900
O -13.193200 -16.750200 -11.765700
N -12.438900 -18.677400 -10.993800
C -12.357500 -17.394300 -10.905300
H -11.629900 -15.732400 -10.226300
N -11.583000 -16.621100 -10.144300
H -11.093400 -17.018600 -9.613100
H -16.142100 -17.247200 -19.217100
N -15.958600 -19.694000 -19.519900
H -15.593100 -17.230200 -17.749000
O -15.558200 -21.050400 -19.321300
C -15.410400 -17.503700 -18.650800
C -15.241800 -18.973800 -18.696500
H -14.605000 -17.079200 -18.957400
C -14.603500 -21.072900 -18.374700
H -14.412300 -23.003300 -18.468600
C -14.364600 -19.793900 -17.935900
N -14.100500 -22.263400 -18.077200
H -13.447400 -22.333600 -17.458600
C -13.405700 -19.412500 -16.932600
N -13.001700 -18.269800 -16.518900
O -12.789200 -20.454800 -16.274600
N -12.034900 -18.527600 -15.502700
C -11.953500 -19.810700 -15.414300
H -11.225900 -21.472600 -14.735200
N -11.179000 -20.583900 -14.653200
H -10.689400 -20.186400 -14.122000
