20
Fragment
H -16.546100 -19.957800 -14.708200
N -16.362600 -17.511000 -15.011000
H -15.997100 -19.974800 -13.240000
O -15.962200 -16.154600 -14.812400
C -15.814400 -19.701300 -14.141800
C -15.645800 -18.231200 -14.187600
H -15.009000 -20.125800 -14.448400
C -15.007500 -16.132100 -13.865800
H -14.816300 -14.201700 -13.959700
C -14.768600 -17.411100 -13.427000
N -14.504400 -14.941600 -13.568300
H -13.851400 -14.871400 -12.949700
C -13.809700 -17.792500 -12.423700
N -13.405700 -18.935200 -12.009900
O -13.193200 -16.750200 -11.765700
N -12.438900 -18.677400 -10.993800
C -12.357500 -17.394300 -10.905300
H -11.629900 -15.732400 -10.226300
N -11.583000 -16.621100 -10.144300
H -11.093400 -17.018600 -9.613100
20
Fragment
H -22.874600 -14.871400 -17.440600
N -22.385000 -15.268900 -16.909300
H -22.338100 -16.157600 -16.827400
C -21.610500 -14.495700 -16.148300
N -21.529100 -13.212600 -16.059800
O -20.774800 -15.139800 -15.287900
N -20.562400 -12.954800 -15.043700
C -20.158300 -14.097500 -14.630000
H -20.116600 -17.018600 -14.104000
N -19.463600 -16.948400 -13.485300
C -19.199400 -14.478900 -13.626600
H -19.151700 -17.688300 -13.094000
C -18.960500 -15.757900 -13.187800
H -18.959000 -11.764200 -12.605200
C -18.322200 -13.658800 -12.866100
C -18.153600 -12.188700 -12.911800
O -18.005800 -15.735400 -12.241200
H -17.970900 -11.915200 -13.813600
N -17.605400 -14.379000 -12.042600
H -17.421900 -11.932200 -12.345500
40
Fragment
H -16.546100 -19.957800 -14.708200
N -16.362600 -17.511000 -15.011000
H -15.997100 -19.974800 -13.240000
O -15.962200 -16.154600 -14.812400
C -15.814400 -19.701300 -14.141800
C -15.645800 -18.231200 -14.187600
H -15.009000 -20.125800 -14.448400
C -15.007500 -16.132100 -13.865800
H -14.816300 -14.201700 -13.959700
C -14.768600 -17.411100 -13.427000
N -14.504400 -14.941600 -13.568300
H -13.851400 -14.871400 -12.949700
C -13.809700 -17.792500 -12.423700
N -13.405700 -18.935200 -12.009900
O -13.193200 -16.750200 -11.765700
N -12.438900 -18.677400 -10.993800
C -12.357500 -17.394300 -10.905300
H -11.629900 -15.732400 -10.226300
N -11.583000 -16.621100 -10.144300
H -11.093400 -17.018600 -9.613100
H -22.874600 -14.871400 -17.440600
N -22.385000 -15.268900 -16.909300
H -22.338100 -16.157600 -16.827400
C -21.610500 -14.495700 -16.148300
N -21.529100 -13.212600 -16.059800
O -20.774800 -15.139800 -15.287900
N -20.562400 -12.954800 -15.043700
C -20.158300 -14.097500 -14.630000
H -20.116600 -17.018600 -14.104000
N -19.463600 -16.948400 -13.485300
C -19.199400 -14.478900 -13.626600
H -19.151700 -17.688300 -13.094000
C -18.960500 -15.757900 -13.187800
H -18.959000 -11.764200 -12.605200
C -18.322200 -13.658800 -12.866100
C -18.153600 -12.188700 -12.911800
O -18.005800 -15.735400 -12.241200
H -17.970900 -11.915200 -13.813600
N -17.605400 -14.379000 -12.042600
H -17.421900 -11.932200 -12.345500
