20
Fragment
H -16.546100 -19.957800 -14.708200
N -16.362600 -17.511000 -15.011000
H -15.997100 -19.974800 -13.240000
O -15.962200 -16.154600 -14.812400
C -15.814400 -19.701300 -14.141800
C -15.645800 -18.231200 -14.187600
H -15.009000 -20.125800 -14.448400
C -15.007500 -16.132100 -13.865800
H -14.816300 -14.201700 -13.959700
C -14.768600 -17.411100 -13.427000
N -14.504400 -14.941600 -13.568300
H -13.851400 -14.871400 -12.949700
C -13.809700 -17.792500 -12.423700
N -13.405700 -18.935200 -12.009900
O -13.193200 -16.750200 -11.765700
N -12.438900 -18.677400 -10.993800
C -12.357500 -17.394300 -10.905300
H -11.629900 -15.732400 -10.226300
N -11.583000 -16.621100 -10.144300
H -11.093400 -17.018600 -9.613100
20
Fragment
H -22.470600 -11.703600 -21.949500
N -21.981000 -11.306100 -21.418300
H -21.934100 -10.417400 -21.336300
C -21.206500 -12.079300 -20.657200
N -21.125100 -13.362400 -20.568800
O -20.370800 -11.435200 -19.796800
N -20.158400 -13.620200 -19.552600
C -19.754400 -12.477500 -19.138900
H -19.712600 -9.556400 -18.612900
N -19.059600 -9.626600 -17.994300
C -18.795400 -12.096100 -18.135600
H -18.747700 -8.886700 -17.602900
C -18.556500 -10.817100 -17.696800
H -18.555000 -14.810800 -17.114100
C -17.918200 -12.916200 -17.375000
C -17.749600 -14.386300 -17.420700
O -17.601800 -10.839600 -16.750200
H -17.566900 -14.659800 -18.322500
N -17.201400 -12.196000 -16.551600
H -17.017900 -14.642800 -16.854400
40
Fragment
H -16.546100 -19.957800 -14.708200
N -16.362600 -17.511000 -15.011000
H -15.997100 -19.974800 -13.240000
O -15.962200 -16.154600 -14.812400
C -15.814400 -19.701300 -14.141800
C -15.645800 -18.231200 -14.187600
H -15.009000 -20.125800 -14.448400
C -15.007500 -16.132100 -13.865800
H -14.816300 -14.201700 -13.959700
C -14.768600 -17.411100 -13.427000
N -14.504400 -14.941600 -13.568300
H -13.851400 -14.871400 -12.949700
C -13.809700 -17.792500 -12.423700
N -13.405700 -18.935200 -12.009900
O -13.193200 -16.750200 -11.765700
N -12.438900 -18.677400 -10.993800
C -12.357500 -17.394300 -10.905300
H -11.629900 -15.732400 -10.226300
N -11.583000 -16.621100 -10.144300
H -11.093400 -17.018600 -9.613100
H -22.470600 -11.703600 -21.949500
N -21.981000 -11.306100 -21.418300
H -21.934100 -10.417400 -21.336300
C -21.206500 -12.079300 -20.657200
N -21.125100 -13.362400 -20.568800
O -20.370800 -11.435200 -19.796800
N -20.158400 -13.620200 -19.552600
C -19.754400 -12.477500 -19.138900
H -19.712600 -9.556400 -18.612900
N -19.059600 -9.626600 -17.994300
C -18.795400 -12.096100 -18.135600
H -18.747700 -8.886700 -17.602900
C -18.556500 -10.817100 -17.696800
H -18.555000 -14.810800 -17.114100
C -17.918200 -12.916200 -17.375000
C -17.749600 -14.386300 -17.420700
O -17.601800 -10.839600 -16.750200
H -17.566900 -14.659800 -18.322500
N -17.201400 -12.196000 -16.551600
H -17.017900 -14.642800 -16.854400
