34
Fragment
H -19.999200 -20.625700 -10.254100
H -19.636300 -29.642300 -10.211200
H -19.494900 -18.376100 -11.074800
H -19.433400 -22.847100 -10.435000
H -19.375300 -24.334700 -12.303800
H -19.331500 -25.792500 -12.446800
N -19.259100 -25.131200 -11.816200
H -19.202100 -27.392700 -10.399900
C -19.184500 -20.859900 -10.635100
H -19.090200 -31.797500 -11.049800
C -18.855600 -29.358400 -10.628700
C -18.842400 -22.194300 -10.736000
N -18.647200 -18.507800 -10.933300
C -18.588000 -28.007800 -10.729500
C -18.326000 -19.854100 -11.095600
N -18.240400 -31.671200 -11.032600
H -18.195500 -18.021600 -11.492300
C -17.966300 -30.300800 -11.146300
N -17.879700 -25.077700 -11.430100
H -17.818300 -32.219900 -11.710400
C -17.615400 -22.570300 -11.287200
C -17.406000 -27.553700 -11.321500
C -17.122000 -23.953400 -11.277900
C -17.103400 -20.236200 -11.655300
C -17.025500 -26.137000 -11.301500
C -16.779900 -29.848200 -11.741800
C -16.759100 -21.565100 -11.753300
H -16.515600 -19.585400 -11.965600
C -16.511200 -28.497300 -11.826900
H -16.170200 -30.462300 -12.082100
H -15.943300 -21.800200 -12.134300
N -15.872000 -24.296000 -11.072700
N -15.807300 -25.679300 -11.088400
H -15.721800 -28.211000 -12.227300
34
Fragment
H -19.999200 -4.060200 -10.254100
H -19.636300 -13.076800 -10.211200
H -19.494900 -1.810600 -11.074800
H -19.433400 -6.281600 -10.435000
H -19.375300 -7.769200 -12.303800
H -19.331500 -9.227000 -12.446800
N -19.259100 -8.565700 -11.816200
H -19.202100 -10.827200 -10.399900
C -19.184500 -4.294400 -10.635100
H -19.090200 -15.232000 -11.049800
C -18.855600 -12.792900 -10.628700
C -18.842400 -5.628800 -10.736000
N -18.647200 -1.942300 -10.933300
C -18.588000 -11.442300 -10.729500
C -18.326000 -3.288600 -11.095600
N -18.240400 -15.105700 -11.032600
H -18.195500 -1.456100 -11.492300
C -17.966300 -13.735300 -11.146300
N -17.879700 -8.512200 -11.430100
H -17.818300 -15.654400 -11.710400
C -17.615400 -6.004800 -11.287200
C -17.406000 -10.988200 -11.321500
C -17.122000 -7.387900 -11.277900
C -17.103400 -3.670700 -11.655300
C -17.025500 -9.571500 -11.301500
C -16.779900 -13.282700 -11.741800
C -16.759100 -4.999600 -11.753300
H -16.515600 -3.019900 -11.965600
C -16.511200 -11.931800 -11.826900
H -16.170200 -13.896800 -12.082100
H -15.943300 -5.234700 -12.134300
N -15.872000 -7.730500 -11.072700
N -15.807300 -9.113800 -11.088400
H -15.721800 -11.645500 -12.227300
68
Fragment
H -19.999200 -20.625700 -10.254100
H -19.636300 -29.642300 -10.211200
H -19.494900 -18.376100 -11.074800
H -19.433400 -22.847100 -10.435000
H -19.375300 -24.334700 -12.303800
H -19.331500 -25.792500 -12.446800
N -19.259100 -25.131200 -11.816200
H -19.202100 -27.392700 -10.399900
C -19.184500 -20.859900 -10.635100
H -19.090200 -31.797500 -11.049800
C -18.855600 -29.358400 -10.628700
C -18.842400 -22.194300 -10.736000
N -18.647200 -18.507800 -10.933300
C -18.588000 -28.007800 -10.729500
C -18.326000 -19.854100 -11.095600
N -18.240400 -31.671200 -11.032600
H -18.195500 -18.021600 -11.492300
C -17.966300 -30.300800 -11.146300
N -17.879700 -25.077700 -11.430100
H -17.818300 -32.219900 -11.710400
C -17.615400 -22.570300 -11.287200
C -17.406000 -27.553700 -11.321500
C -17.122000 -23.953400 -11.277900
C -17.103400 -20.236200 -11.655300
C -17.025500 -26.137000 -11.301500
C -16.779900 -29.848200 -11.741800
C -16.759100 -21.565100 -11.753300
H -16.515600 -19.585400 -11.965600
C -16.511200 -28.497300 -11.826900
H -16.170200 -30.462300 -12.082100
H -15.943300 -21.800200 -12.134300
N -15.872000 -24.296000 -11.072700
N -15.807300 -25.679300 -11.088400
H -15.721800 -28.211000 -12.227300
H -19.999200 -4.060200 -10.254100
H -19.636300 -13.076800 -10.211200
H -19.494900 -1.810600 -11.074800
H -19.433400 -6.281600 -10.435000
H -19.375300 -7.769200 -12.303800
H -19.331500 -9.227000 -12.446800
N -19.259100 -8.565700 -11.816200
H -19.202100 -10.827200 -10.399900
C -19.184500 -4.294400 -10.635100
H -19.090200 -15.232000 -11.049800
C -18.855600 -12.792900 -10.628700
C -18.842400 -5.628800 -10.736000
N -18.647200 -1.942300 -10.933300
C -18.588000 -11.442300 -10.729500
C -18.326000 -3.288600 -11.095600
N -18.240400 -15.105700 -11.032600
H -18.195500 -1.456100 -11.492300
C -17.966300 -13.735300 -11.146300
N -17.879700 -8.512200 -11.430100
H -17.818300 -15.654400 -11.710400
C -17.615400 -6.004800 -11.287200
C -17.406000 -10.988200 -11.321500
C -17.122000 -7.387900 -11.277900
C -17.103400 -3.670700 -11.655300
C -17.025500 -9.571500 -11.301500
C -16.779900 -13.282700 -11.741800
C -16.759100 -4.999600 -11.753300
H -16.515600 -3.019900 -11.965600
C -16.511200 -11.931800 -11.826900
H -16.170200 -13.896800 -12.082100
H -15.943300 -5.234700 -12.134300
N -15.872000 -7.730500 -11.072700
N -15.807300 -9.113800 -11.088400
H -15.721800 -11.645500 -12.227300
