34
Fragment
H -19.999200 -20.625700 -10.254100
H -19.636300 -29.642300 -10.211200
H -19.494900 -18.376100 -11.074800
H -19.433400 -22.847100 -10.435000
H -19.375300 -24.334700 -12.303800
H -19.331500 -25.792500 -12.446800
N -19.259100 -25.131200 -11.816200
H -19.202100 -27.392700 -10.399900
C -19.184500 -20.859900 -10.635100
H -19.090200 -31.797500 -11.049800
C -18.855600 -29.358400 -10.628700
C -18.842400 -22.194300 -10.736000
N -18.647200 -18.507800 -10.933300
C -18.588000 -28.007800 -10.729500
C -18.326000 -19.854100 -11.095600
N -18.240400 -31.671200 -11.032600
H -18.195500 -18.021600 -11.492300
C -17.966300 -30.300800 -11.146300
N -17.879700 -25.077700 -11.430100
H -17.818300 -32.219900 -11.710400
C -17.615400 -22.570300 -11.287200
C -17.406000 -27.553700 -11.321500
C -17.122000 -23.953400 -11.277900
C -17.103400 -20.236200 -11.655300
C -17.025500 -26.137000 -11.301500
C -16.779900 -29.848200 -11.741800
C -16.759100 -21.565100 -11.753300
H -16.515600 -19.585400 -11.965600
C -16.511200 -28.497300 -11.826900
H -16.170200 -30.462300 -12.082100
H -15.943300 -21.800200 -12.134300
N -15.872000 -24.296000 -11.072700
N -15.807300 -25.679300 -11.088400
H -15.721800 -28.211000 -12.227300
34
Fragment
H -25.481800 -37.353500 -10.254100
H -25.118900 -28.336900 -10.211200
H -24.977400 -39.603100 -11.074800
H -24.916000 -35.132100 -10.435000
H -24.857900 -33.644500 -12.303800
H -24.814000 -32.186800 -12.446800
N -24.741700 -32.848100 -11.816200
H -24.684600 -30.586500 -10.399900
C -24.667100 -37.119300 -10.635100
H -24.572800 -26.181800 -11.049800
C -24.338100 -28.620900 -10.628700
C -24.325000 -35.785000 -10.736000
N -24.129800 -39.471400 -10.933300
C -24.070600 -29.971500 -10.729500
C -23.808500 -38.125200 -11.095600
N -23.723000 -26.308000 -11.032600
H -23.678000 -39.957600 -11.492300
C -23.448900 -27.678500 -11.146300
N -23.362200 -32.901600 -11.430100
H -23.300800 -25.759400 -11.710400
C -23.098000 -35.408900 -11.287200
C -22.888500 -30.425500 -11.321500
C -22.604600 -34.025900 -11.277900
C -22.585900 -37.743000 -11.655300
C -22.508100 -31.842200 -11.301500
C -22.262400 -28.131000 -11.741800
C -22.241600 -36.414100 -11.753300
H -21.998200 -38.393900 -11.965600
C -21.993800 -29.482000 -11.826900
H -21.652800 -27.517000 -12.082100
H -21.425800 -36.179100 -12.134300
N -21.354500 -33.683300 -11.072700
N -21.289800 -32.299900 -11.088400
H -21.204300 -29.768200 -12.227300
68
Fragment
H -19.999200 -20.625700 -10.254100
H -19.636300 -29.642300 -10.211200
H -19.494900 -18.376100 -11.074800
H -19.433400 -22.847100 -10.435000
H -19.375300 -24.334700 -12.303800
H -19.331500 -25.792500 -12.446800
N -19.259100 -25.131200 -11.816200
H -19.202100 -27.392700 -10.399900
C -19.184500 -20.859900 -10.635100
H -19.090200 -31.797500 -11.049800
C -18.855600 -29.358400 -10.628700
C -18.842400 -22.194300 -10.736000
N -18.647200 -18.507800 -10.933300
C -18.588000 -28.007800 -10.729500
C -18.326000 -19.854100 -11.095600
N -18.240400 -31.671200 -11.032600
H -18.195500 -18.021600 -11.492300
C -17.966300 -30.300800 -11.146300
N -17.879700 -25.077700 -11.430100
H -17.818300 -32.219900 -11.710400
C -17.615400 -22.570300 -11.287200
C -17.406000 -27.553700 -11.321500
C -17.122000 -23.953400 -11.277900
C -17.103400 -20.236200 -11.655300
C -17.025500 -26.137000 -11.301500
C -16.779900 -29.848200 -11.741800
C -16.759100 -21.565100 -11.753300
H -16.515600 -19.585400 -11.965600
C -16.511200 -28.497300 -11.826900
H -16.170200 -30.462300 -12.082100
H -15.943300 -21.800200 -12.134300
N -15.872000 -24.296000 -11.072700
N -15.807300 -25.679300 -11.088400
H -15.721800 -28.211000 -12.227300
H -25.481800 -37.353500 -10.254100
H -25.118900 -28.336900 -10.211200
H -24.977400 -39.603100 -11.074800
H -24.916000 -35.132100 -10.435000
H -24.857900 -33.644500 -12.303800
H -24.814000 -32.186800 -12.446800
N -24.741700 -32.848100 -11.816200
H -24.684600 -30.586500 -10.399900
C -24.667100 -37.119300 -10.635100
H -24.572800 -26.181800 -11.049800
C -24.338100 -28.620900 -10.628700
C -24.325000 -35.785000 -10.736000
N -24.129800 -39.471400 -10.933300
C -24.070600 -29.971500 -10.729500
C -23.808500 -38.125200 -11.095600
N -23.723000 -26.308000 -11.032600
H -23.678000 -39.957600 -11.492300
C -23.448900 -27.678500 -11.146300
N -23.362200 -32.901600 -11.430100
H -23.300800 -25.759400 -11.710400
C -23.098000 -35.408900 -11.287200
C -22.888500 -30.425500 -11.321500
C -22.604600 -34.025900 -11.277900
C -22.585900 -37.743000 -11.655300
C -22.508100 -31.842200 -11.301500
C -22.262400 -28.131000 -11.741800
C -22.241600 -36.414100 -11.753300
H -21.998200 -38.393900 -11.965600
C -21.993800 -29.482000 -11.826900
H -21.652800 -27.517000 -12.082100
H -21.425800 -36.179100 -12.134300
N -21.354500 -33.683300 -11.072700
N -21.289800 -32.299900 -11.088400
H -21.204300 -29.768200 -12.227300
