34
Fragment
H -19.999200 -20.625700 -10.254100
H -19.636300 -29.642300 -10.211200
H -19.494900 -18.376100 -11.074800
H -19.433400 -22.847100 -10.435000
H -19.375300 -24.334700 -12.303800
H -19.331500 -25.792500 -12.446800
N -19.259100 -25.131200 -11.816200
H -19.202100 -27.392700 -10.399900
C -19.184500 -20.859900 -10.635100
H -19.090200 -31.797500 -11.049800
C -18.855600 -29.358400 -10.628700
C -18.842400 -22.194300 -10.736000
N -18.647200 -18.507800 -10.933300
C -18.588000 -28.007800 -10.729500
C -18.326000 -19.854100 -11.095600
N -18.240400 -31.671200 -11.032600
H -18.195500 -18.021600 -11.492300
C -17.966300 -30.300800 -11.146300
N -17.879700 -25.077700 -11.430100
H -17.818300 -32.219900 -11.710400
C -17.615400 -22.570300 -11.287200
C -17.406000 -27.553700 -11.321500
C -17.122000 -23.953400 -11.277900
C -17.103400 -20.236200 -11.655300
C -17.025500 -26.137000 -11.301500
C -16.779900 -29.848200 -11.741800
C -16.759100 -21.565100 -11.753300
H -16.515600 -19.585400 -11.965600
C -16.511200 -28.497300 -11.826900
H -16.170200 -30.462300 -12.082100
H -15.943300 -21.800200 -12.134300
N -15.872000 -24.296000 -11.072700
N -15.807300 -25.679300 -11.088400
H -15.721800 -28.211000 -12.227300
34
Fragment
H -22.656100 -19.928300 -15.801900
N -22.570600 -17.396600 -14.663000
N -22.505900 -16.013200 -14.647300
H -22.434600 -13.517400 -15.708900
H -22.207600 -22.179500 -15.656700
C -21.866600 -20.214500 -15.401500
H -21.862200 -11.302600 -15.540200
C -21.618800 -13.282400 -15.327900
C -21.598000 -21.565500 -15.316400
C -21.352300 -17.854300 -14.876100
C -21.274500 -11.953500 -15.229900
C -21.255800 -15.670600 -14.852500
C -20.971900 -19.271000 -14.896100
C -20.762400 -14.287600 -14.861800
H -20.559600 -23.937100 -15.285000
N -20.498200 -16.794900 -15.004700
C -20.411500 -22.018000 -14.720900
H -20.182400 -9.738900 -15.066900
N -20.137400 -23.388500 -14.607200
C -20.051900 -11.571300 -14.670200
C -19.789800 -19.725000 -14.304100
N -19.730600 -10.225100 -14.507900
C -19.535400 -13.911500 -14.310600
C -19.522300 -21.075600 -14.203300
H -19.287600 -23.514700 -14.624400
C -19.193300 -12.577200 -14.209700
H -19.175800 -19.110000 -13.974500
N -19.118700 -16.848400 -15.390800
H -19.046400 -17.509700 -16.021400
H -19.002500 -16.052000 -15.878400
H -18.944400 -14.564400 -14.009600
H -18.883000 -10.093400 -14.649400
H -18.741500 -21.359600 -13.785800
H -18.378600 -12.343000 -13.828700
68
Fragment
H -19.999200 -20.625700 -10.254100
H -19.636300 -29.642300 -10.211200
H -19.494900 -18.376100 -11.074800
H -19.433400 -22.847100 -10.435000
H -19.375300 -24.334700 -12.303800
H -19.331500 -25.792500 -12.446800
N -19.259100 -25.131200 -11.816200
H -19.202100 -27.392700 -10.399900
C -19.184500 -20.859900 -10.635100
H -19.090200 -31.797500 -11.049800
C -18.855600 -29.358400 -10.628700
C -18.842400 -22.194300 -10.736000
N -18.647200 -18.507800 -10.933300
C -18.588000 -28.007800 -10.729500
C -18.326000 -19.854100 -11.095600
N -18.240400 -31.671200 -11.032600
H -18.195500 -18.021600 -11.492300
C -17.966300 -30.300800 -11.146300
N -17.879700 -25.077700 -11.430100
H -17.818300 -32.219900 -11.710400
C -17.615400 -22.570300 -11.287200
C -17.406000 -27.553700 -11.321500
C -17.122000 -23.953400 -11.277900
C -17.103400 -20.236200 -11.655300
C -17.025500 -26.137000 -11.301500
C -16.779900 -29.848200 -11.741800
C -16.759100 -21.565100 -11.753300
H -16.515600 -19.585400 -11.965600
C -16.511200 -28.497300 -11.826900
H -16.170200 -30.462300 -12.082100
H -15.943300 -21.800200 -12.134300
N -15.872000 -24.296000 -11.072700
N -15.807300 -25.679300 -11.088400
H -15.721800 -28.211000 -12.227300
H -22.656100 -19.928300 -15.801900
N -22.570600 -17.396600 -14.663000
N -22.505900 -16.013200 -14.647300
H -22.434600 -13.517400 -15.708900
H -22.207600 -22.179500 -15.656700
C -21.866600 -20.214500 -15.401500
H -21.862200 -11.302600 -15.540200
C -21.618800 -13.282400 -15.327900
C -21.598000 -21.565500 -15.316400
C -21.352300 -17.854300 -14.876100
C -21.274500 -11.953500 -15.229900
C -21.255800 -15.670600 -14.852500
C -20.971900 -19.271000 -14.896100
C -20.762400 -14.287600 -14.861800
H -20.559600 -23.937100 -15.285000
N -20.498200 -16.794900 -15.004700
C -20.411500 -22.018000 -14.720900
H -20.182400 -9.738900 -15.066900
N -20.137400 -23.388500 -14.607200
C -20.051900 -11.571300 -14.670200
C -19.789800 -19.725000 -14.304100
N -19.730600 -10.225100 -14.507900
C -19.535400 -13.911500 -14.310600
C -19.522300 -21.075600 -14.203300
H -19.287600 -23.514700 -14.624400
C -19.193300 -12.577200 -14.209700
H -19.175800 -19.110000 -13.974500
N -19.118700 -16.848400 -15.390800
H -19.046400 -17.509700 -16.021400
H -19.002500 -16.052000 -15.878400
H -18.944400 -14.564400 -14.009600
H -18.883000 -10.093400 -14.649400
H -18.741500 -21.359600 -13.785800
H -18.378600 -12.343000 -13.828700
