12
Fragment
H -7.806800 -16.411000 -26.168400
H -7.533400 -17.339200 -28.362200
H -7.108800 -17.727200 -25.581000
C -6.952700 -16.816200 -25.910600
C -6.572200 -17.510000 -28.274800
H -6.537000 -16.279900 -25.202600
H -6.417000 -18.476600 -28.215900
H -6.103200 -17.149900 -29.054200
N -6.071200 -16.863900 -27.064000
C -4.859800 -16.330200 -27.043500
H -4.591100 -15.905200 -26.236800
O -4.049900 -16.332100 -27.970200
31
Fragment
H -5.572300 -18.689800 -31.502800
N -4.939100 -19.428500 -34.068300
C -4.709900 -19.077800 -31.589100
N -4.403100 -20.068600 -36.267300
H -4.249700 -22.467500 -34.424800
C -4.245300 -19.497500 -32.823300
H -4.243600 -20.404500 -38.687000
H -4.192300 -18.941400 -29.630300
C -4.102500 -19.894800 -34.971300
C -3.888000 -19.236700 -30.480200
N -3.594900 -20.803100 -38.292900
C -3.522600 -20.816300 -36.964600
C -3.314000 -22.736300 -34.307300
H -3.164400 -23.599600 -34.746100
H -3.115400 -22.815700 -33.350700
H -2.991500 -21.278400 -38.789700
C -2.962500 -20.056300 -32.942100
C -2.716500 -20.268200 -34.418700
C -2.637300 -19.814000 -30.587500
N -2.616500 -21.615200 -36.391500
C -2.396400 -21.678300 -34.934500
C -2.168600 -20.229800 -31.838700
H -2.097200 -19.929200 -29.814700
H -2.074200 -22.059700 -36.882900
O -1.804100 -19.286100 -34.938800
H -1.309400 -20.627000 -31.923000
H -0.969700 -19.411500 -34.523600
C -0.946600 -22.080900 -34.721900
H -0.795700 -22.970700 -35.101600
H -0.749600 -22.096700 -33.761300
H -0.360500 -21.432000 -35.164300
43
Fragment
H -7.806800 -16.411000 -26.168400
H -7.533400 -17.339200 -28.362200
H -7.108800 -17.727200 -25.581000
C -6.952700 -16.816200 -25.910600
C -6.572200 -17.510000 -28.274800
H -6.537000 -16.279900 -25.202600
H -6.417000 -18.476600 -28.215900
H -6.103200 -17.149900 -29.054200
N -6.071200 -16.863900 -27.064000
C -4.859800 -16.330200 -27.043500
H -4.591100 -15.905200 -26.236800
O -4.049900 -16.332100 -27.970200
H -5.572300 -18.689800 -31.502800
N -4.939100 -19.428500 -34.068300
C -4.709900 -19.077800 -31.589100
N -4.403100 -20.068600 -36.267300
H -4.249700 -22.467500 -34.424800
C -4.245300 -19.497500 -32.823300
H -4.243600 -20.404500 -38.687000
H -4.192300 -18.941400 -29.630300
C -4.102500 -19.894800 -34.971300
C -3.888000 -19.236700 -30.480200
N -3.594900 -20.803100 -38.292900
C -3.522600 -20.816300 -36.964600
C -3.314000 -22.736300 -34.307300
H -3.164400 -23.599600 -34.746100
H -3.115400 -22.815700 -33.350700
H -2.991500 -21.278400 -38.789700
C -2.962500 -20.056300 -32.942100
C -2.716500 -20.268200 -34.418700
C -2.637300 -19.814000 -30.587500
N -2.616500 -21.615200 -36.391500
C -2.396400 -21.678300 -34.934500
C -2.168600 -20.229800 -31.838700
H -2.097200 -19.929200 -29.814700
H -2.074200 -22.059700 -36.882900
O -1.804100 -19.286100 -34.938800
H -1.309400 -20.627000 -31.923000
H -0.969700 -19.411500 -34.523600
C -0.946600 -22.080900 -34.721900
H -0.795700 -22.970700 -35.101600
H -0.749600 -22.096700 -33.761300
H -0.360500 -21.432000 -35.164300
