12
Fragment
H -7.806800 -16.411000 -26.168400
H -7.533400 -17.339200 -28.362200
H -7.108800 -17.727200 -25.581000
C -6.952700 -16.816200 -25.910600
C -6.572200 -17.510000 -28.274800
H -6.537000 -16.279900 -25.202600
H -6.417000 -18.476600 -28.215900
H -6.103200 -17.149900 -29.054200
N -6.071200 -16.863900 -27.064000
C -4.859800 -16.330200 -27.043500
H -4.591100 -15.905200 -26.236800
O -4.049900 -16.332100 -27.970200
31
Fragment
H -6.509500 -14.412900 -21.997400
N -5.876300 -13.674200 -24.562900
C -5.647100 -14.025000 -22.083700
N -5.340300 -13.034100 -26.761900
H -5.186900 -10.635300 -24.919400
C -5.182500 -13.605200 -23.317900
H -5.180800 -12.698200 -29.181600
H -5.129500 -14.161400 -20.124900
C -5.039700 -13.208000 -25.465900
C -4.825200 -13.866100 -20.974800
N -4.532100 -12.299700 -28.787500
C -4.459800 -12.286400 -27.459200
C -4.251200 -10.366500 -24.801900
H -4.101600 -9.503100 -25.240700
H -4.052600 -10.287000 -23.845300
H -3.928700 -11.824300 -29.284300
C -3.899700 -13.046500 -23.436700
C -3.653700 -12.834600 -24.913300
C -3.574500 -13.288800 -21.082000
N -3.553700 -11.487600 -26.886000
C -3.333700 -11.424400 -25.429100
C -3.105800 -12.873000 -22.333300
H -3.034400 -13.173600 -20.309300
H -3.011400 -11.043100 -27.377500
O -2.741300 -13.816700 -25.433400
H -2.246600 -12.475800 -22.417600
H -1.907000 -13.691300 -25.018200
C -1.883800 -11.021900 -25.216500
H -1.732900 -10.132100 -25.596200
H -1.686800 -11.006000 -24.255900
H -1.297700 -11.670700 -25.658900
43
Fragment
H -7.806800 -16.411000 -26.168400
H -7.533400 -17.339200 -28.362200
H -7.108800 -17.727200 -25.581000
C -6.952700 -16.816200 -25.910600
C -6.572200 -17.510000 -28.274800
H -6.537000 -16.279900 -25.202600
H -6.417000 -18.476600 -28.215900
H -6.103200 -17.149900 -29.054200
N -6.071200 -16.863900 -27.064000
C -4.859800 -16.330200 -27.043500
H -4.591100 -15.905200 -26.236800
O -4.049900 -16.332100 -27.970200
H -6.509500 -14.412900 -21.997400
N -5.876300 -13.674200 -24.562900
C -5.647100 -14.025000 -22.083700
N -5.340300 -13.034100 -26.761900
H -5.186900 -10.635300 -24.919400
C -5.182500 -13.605200 -23.317900
H -5.180800 -12.698200 -29.181600
H -5.129500 -14.161400 -20.124900
C -5.039700 -13.208000 -25.465900
C -4.825200 -13.866100 -20.974800
N -4.532100 -12.299700 -28.787500
C -4.459800 -12.286400 -27.459200
C -4.251200 -10.366500 -24.801900
H -4.101600 -9.503100 -25.240700
H -4.052600 -10.287000 -23.845300
H -3.928700 -11.824300 -29.284300
C -3.899700 -13.046500 -23.436700
C -3.653700 -12.834600 -24.913300
C -3.574500 -13.288800 -21.082000
N -3.553700 -11.487600 -26.886000
C -3.333700 -11.424400 -25.429100
C -3.105800 -12.873000 -22.333300
H -3.034400 -13.173600 -20.309300
H -3.011400 -11.043100 -27.377500
O -2.741300 -13.816700 -25.433400
H -2.246600 -12.475800 -22.417600
H -1.907000 -13.691300 -25.018200
C -1.883800 -11.021900 -25.216500
H -1.732900 -10.132100 -25.596200
H -1.686800 -11.006000 -24.255900
H -1.297700 -11.670700 -25.658900
