12
Fragment
H -7.806800 -16.411000 -26.168400
H -7.533400 -17.339200 -28.362200
H -7.108800 -17.727200 -25.581000
C -6.952700 -16.816200 -25.910600
C -6.572200 -17.510000 -28.274800
H -6.537000 -16.279900 -25.202600
H -6.417000 -18.476600 -28.215900
H -6.103200 -17.149900 -29.054200
N -6.071200 -16.863900 -27.064000
C -4.859800 -16.330200 -27.043500
H -4.591100 -15.905200 -26.236800
O -4.049900 -16.332100 -27.970200
31
Fragment
H -4.964100 -14.811500 -31.373600
H -4.575000 -15.476200 -32.776600
H -4.528900 -16.350100 -31.436300
C -4.377900 -15.460300 -31.815900
H -4.354800 -12.790900 -32.014200
H -4.015200 -14.006400 -34.614900
O -3.520400 -12.665500 -31.599000
H -3.250400 -15.439100 -29.655000
H -3.227300 -13.308600 -36.723200
C -3.155900 -13.609200 -34.699100
C -2.928100 -15.057800 -31.603400
N -2.708100 -14.994600 -30.146400
C -2.687300 -13.193400 -35.950400
C -2.608100 -13.647600 -32.119200
C -2.362100 -13.435700 -33.595700
H -2.333100 -14.657900 -27.748200
H -2.209200 -16.195200 -33.187200
H -2.160200 -16.979100 -31.791800
C -2.010600 -16.115700 -32.230600
C -1.801900 -14.195800 -29.573200
N -1.729600 -14.182500 -28.244900
C -1.436500 -12.616100 -36.057600
C -1.222100 -13.274200 -31.566500
H -1.132200 -12.320800 -36.907600
H -1.081000 -13.784000 -27.850800
C -1.079200 -12.877000 -33.714500
H -1.074900 -15.846900 -32.113100
N -0.921400 -13.448100 -30.270500
C -0.614700 -12.457200 -34.948700
N -0.385500 -12.808000 -32.469500
H 0.247800 -12.069300 -35.035000
43
Fragment
H -7.806800 -16.411000 -26.168400
H -7.533400 -17.339200 -28.362200
H -7.108800 -17.727200 -25.581000
C -6.952700 -16.816200 -25.910600
C -6.572200 -17.510000 -28.274800
H -6.537000 -16.279900 -25.202600
H -6.417000 -18.476600 -28.215900
H -6.103200 -17.149900 -29.054200
N -6.071200 -16.863900 -27.064000
C -4.859800 -16.330200 -27.043500
H -4.591100 -15.905200 -26.236800
O -4.049900 -16.332100 -27.970200
H -4.964100 -14.811500 -31.373600
H -4.575000 -15.476200 -32.776600
H -4.528900 -16.350100 -31.436300
C -4.377900 -15.460300 -31.815900
H -4.354800 -12.790900 -32.014200
H -4.015200 -14.006400 -34.614900
O -3.520400 -12.665500 -31.599000
H -3.250400 -15.439100 -29.655000
H -3.227300 -13.308600 -36.723200
C -3.155900 -13.609200 -34.699100
C -2.928100 -15.057800 -31.603400
N -2.708100 -14.994600 -30.146400
C -2.687300 -13.193400 -35.950400
C -2.608100 -13.647600 -32.119200
C -2.362100 -13.435700 -33.595700
H -2.333100 -14.657900 -27.748200
H -2.209200 -16.195200 -33.187200
H -2.160200 -16.979100 -31.791800
C -2.010600 -16.115700 -32.230600
C -1.801900 -14.195800 -29.573200
N -1.729600 -14.182500 -28.244900
C -1.436500 -12.616100 -36.057600
C -1.222100 -13.274200 -31.566500
H -1.132200 -12.320800 -36.907600
H -1.081000 -13.784000 -27.850800
C -1.079200 -12.877000 -33.714500
H -1.074900 -15.846900 -32.113100
N -0.921400 -13.448100 -30.270500
C -0.614700 -12.457200 -34.948700
N -0.385500 -12.808000 -32.469500
H 0.247800 -12.069300 -35.035000
