12
Fragment
H -7.806800 -16.411000 -26.168400
H -7.533400 -17.339200 -28.362200
H -7.108800 -17.727200 -25.581000
C -6.952700 -16.816200 -25.910600
C -6.572200 -17.510000 -28.274800
H -6.537000 -16.279900 -25.202600
H -6.417000 -18.476600 -28.215900
H -6.103200 -17.149900 -29.054200
N -6.071200 -16.863900 -27.064000
C -4.859800 -16.330200 -27.043500
H -4.591100 -15.905200 -26.236800
O -4.049900 -16.332100 -27.970200
31
Fragment
H -10.906600 -14.811500 -31.373600
H -10.517500 -15.476200 -32.776600
H -10.471400 -16.350100 -31.436300
C -10.320400 -15.460300 -31.815900
H -10.297300 -12.790900 -32.014200
H -9.957700 -14.006400 -34.614900
O -9.462900 -12.665500 -31.599000
H -9.192900 -15.439100 -29.655000
H -9.169800 -13.308600 -36.723200
C -9.098400 -13.609200 -34.699100
C -8.870600 -15.057800 -31.603400
N -8.650600 -14.994600 -30.146400
C -8.629800 -13.193400 -35.950400
C -8.550600 -13.647600 -32.119200
C -8.304600 -13.435700 -33.595700
H -8.275600 -14.657900 -27.748200
H -8.151700 -16.195200 -33.187200
H -8.102700 -16.979100 -31.791800
C -7.953100 -16.115700 -32.230600
C -7.744400 -14.195800 -29.573200
N -7.672100 -14.182500 -28.244900
C -7.379000 -12.616100 -36.057600
C -7.164600 -13.274200 -31.566500
H -7.074700 -12.320800 -36.907600
H -7.023500 -13.784000 -27.850800
C -7.021700 -12.877000 -33.714500
H -7.017400 -15.846900 -32.113100
N -6.863900 -13.448100 -30.270500
C -6.557200 -12.457200 -34.948700
N -6.328000 -12.808000 -32.469500
H -5.694700 -12.069300 -35.035000
43
Fragment
H -7.806800 -16.411000 -26.168400
H -7.533400 -17.339200 -28.362200
H -7.108800 -17.727200 -25.581000
C -6.952700 -16.816200 -25.910600
C -6.572200 -17.510000 -28.274800
H -6.537000 -16.279900 -25.202600
H -6.417000 -18.476600 -28.215900
H -6.103200 -17.149900 -29.054200
N -6.071200 -16.863900 -27.064000
C -4.859800 -16.330200 -27.043500
H -4.591100 -15.905200 -26.236800
O -4.049900 -16.332100 -27.970200
H -10.906600 -14.811500 -31.373600
H -10.517500 -15.476200 -32.776600
H -10.471400 -16.350100 -31.436300
C -10.320400 -15.460300 -31.815900
H -10.297300 -12.790900 -32.014200
H -9.957700 -14.006400 -34.614900
O -9.462900 -12.665500 -31.599000
H -9.192900 -15.439100 -29.655000
H -9.169800 -13.308600 -36.723200
C -9.098400 -13.609200 -34.699100
C -8.870600 -15.057800 -31.603400
N -8.650600 -14.994600 -30.146400
C -8.629800 -13.193400 -35.950400
C -8.550600 -13.647600 -32.119200
C -8.304600 -13.435700 -33.595700
H -8.275600 -14.657900 -27.748200
H -8.151700 -16.195200 -33.187200
H -8.102700 -16.979100 -31.791800
C -7.953100 -16.115700 -32.230600
C -7.744400 -14.195800 -29.573200
N -7.672100 -14.182500 -28.244900
C -7.379000 -12.616100 -36.057600
C -7.164600 -13.274200 -31.566500
H -7.074700 -12.320800 -36.907600
H -7.023500 -13.784000 -27.850800
C -7.021700 -12.877000 -33.714500
H -7.017400 -15.846900 -32.113100
N -6.863900 -13.448100 -30.270500
C -6.557200 -12.457200 -34.948700
N -6.328000 -12.808000 -32.469500
H -5.694700 -12.069300 -35.035000
