12
Fragment
H -7.806800 -16.411000 -26.168400
H -7.533400 -17.339200 -28.362200
H -7.108800 -17.727200 -25.581000
C -6.952700 -16.816200 -25.910600
C -6.572200 -17.510000 -28.274800
H -6.537000 -16.279900 -25.202600
H -6.417000 -18.476600 -28.215900
H -6.103200 -17.149900 -29.054200
N -6.071200 -16.863900 -27.064000
C -4.859800 -16.330200 -27.043500
H -4.591100 -15.905200 -26.236800
O -4.049900 -16.332100 -27.970200
31
Fragment
H -12.452000 -14.412900 -21.997400
N -11.818800 -13.674200 -24.562900
C -11.589600 -14.025000 -22.083700
N -11.282800 -13.034100 -26.761900
H -11.129400 -10.635300 -24.919400
C -11.125000 -13.605200 -23.317900
H -11.123300 -12.698200 -29.181600
H -11.072000 -14.161400 -20.124900
C -10.982200 -13.208000 -25.465900
C -10.767700 -13.866100 -20.974800
N -10.474600 -12.299700 -28.787500
C -10.402300 -12.286400 -27.459200
C -10.193700 -10.366500 -24.801900
H -10.044100 -9.503100 -25.240700
H -9.995100 -10.287000 -23.845300
H -9.871200 -11.824300 -29.284300
C -9.842200 -13.046500 -23.436700
C -9.596200 -12.834600 -24.913300
C -9.517000 -13.288800 -21.082000
N -9.496200 -11.487600 -26.886000
C -9.276200 -11.424400 -25.429100
C -9.048300 -12.873000 -22.333300
H -8.976900 -13.173600 -20.309300
H -8.953900 -11.043100 -27.377500
O -8.683800 -13.816700 -25.433400
H -8.189100 -12.475800 -22.417600
H -7.849500 -13.691300 -25.018200
C -7.826300 -11.021900 -25.216500
H -7.675400 -10.132100 -25.596200
H -7.629300 -11.006000 -24.255900
H -7.240200 -11.670700 -25.658900
43
Fragment
H -7.806800 -16.411000 -26.168400
H -7.533400 -17.339200 -28.362200
H -7.108800 -17.727200 -25.581000
C -6.952700 -16.816200 -25.910600
C -6.572200 -17.510000 -28.274800
H -6.537000 -16.279900 -25.202600
H -6.417000 -18.476600 -28.215900
H -6.103200 -17.149900 -29.054200
N -6.071200 -16.863900 -27.064000
C -4.859800 -16.330200 -27.043500
H -4.591100 -15.905200 -26.236800
O -4.049900 -16.332100 -27.970200
H -12.452000 -14.412900 -21.997400
N -11.818800 -13.674200 -24.562900
C -11.589600 -14.025000 -22.083700
N -11.282800 -13.034100 -26.761900
H -11.129400 -10.635300 -24.919400
C -11.125000 -13.605200 -23.317900
H -11.123300 -12.698200 -29.181600
H -11.072000 -14.161400 -20.124900
C -10.982200 -13.208000 -25.465900
C -10.767700 -13.866100 -20.974800
N -10.474600 -12.299700 -28.787500
C -10.402300 -12.286400 -27.459200
C -10.193700 -10.366500 -24.801900
H -10.044100 -9.503100 -25.240700
H -9.995100 -10.287000 -23.845300
H -9.871200 -11.824300 -29.284300
C -9.842200 -13.046500 -23.436700
C -9.596200 -12.834600 -24.913300
C -9.517000 -13.288800 -21.082000
N -9.496200 -11.487600 -26.886000
C -9.276200 -11.424400 -25.429100
C -9.048300 -12.873000 -22.333300
H -8.976900 -13.173600 -20.309300
H -8.953900 -11.043100 -27.377500
O -8.683800 -13.816700 -25.433400
H -8.189100 -12.475800 -22.417600
H -7.849500 -13.691300 -25.018200
C -7.826300 -11.021900 -25.216500
H -7.675400 -10.132100 -25.596200
H -7.629300 -11.006000 -24.255900
H -7.240200 -11.670700 -25.658900
