23
Fragment
H -6.078000 -7.433400 -24.127100
H -5.730300 -5.811400 -26.212200
C -5.263800 -7.095200 -24.564400
C -5.109500 -6.191600 -25.635800
H -4.220500 -8.724800 -22.564300
C -4.009900 -7.434000 -24.158400
C -3.775200 -6.040800 -25.788200
O -3.657600 -4.630300 -27.533200
C -3.574400 -8.314700 -23.110200
H -3.543600 -10.601400 -21.344900
H -3.461500 -9.279100 -20.493100
O -3.067100 -6.777200 -24.910600
N -3.007400 -5.290800 -26.716300
C -2.930900 -9.928000 -20.895500
N -2.321300 -8.549200 -22.923600
O -2.246100 -11.154700 -18.910800
N -2.021000 -9.386300 -21.890800
C -1.975500 -10.597700 -19.944900
O -1.801600 -5.352700 -26.681000
N -0.731800 -10.450100 -20.462700
C -0.705000 -9.688900 -21.615400
H -0.068300 -10.729600 -20.052100
O 0.262300 -9.369700 -22.246900
12
Fragment
H -7.841200 -1.508300 -30.547100
H -7.743200 -2.882300 -28.729400
H -6.956400 -4.169500 -29.156600
C -6.870800 -3.255800 -28.875200
C -6.799000 -1.644700 -30.697900
H -6.366600 -3.218500 -28.058900
O -6.275100 -0.981500 -31.585700
N -6.188300 -2.498900 -29.898000
C -4.756900 -2.745000 -30.060300
H -4.625300 -3.577400 -30.519200
H -4.366000 -2.031600 -30.571100
H -4.339500 -2.786300 -29.197200
35
Fragment
H -6.078000 -7.433400 -24.127100
H -5.730300 -5.811400 -26.212200
C -5.263800 -7.095200 -24.564400
C -5.109500 -6.191600 -25.635800
H -4.220500 -8.724800 -22.564300
C -4.009900 -7.434000 -24.158400
C -3.775200 -6.040800 -25.788200
O -3.657600 -4.630300 -27.533200
C -3.574400 -8.314700 -23.110200
H -3.543600 -10.601400 -21.344900
H -3.461500 -9.279100 -20.493100
O -3.067100 -6.777200 -24.910600
N -3.007400 -5.290800 -26.716300
C -2.930900 -9.928000 -20.895500
N -2.321300 -8.549200 -22.923600
O -2.246100 -11.154700 -18.910800
N -2.021000 -9.386300 -21.890800
C -1.975500 -10.597700 -19.944900
O -1.801600 -5.352700 -26.681000
N -0.731800 -10.450100 -20.462700
C -0.705000 -9.688900 -21.615400
H -0.068300 -10.729600 -20.052100
O 0.262300 -9.369700 -22.246900
H -7.841200 -1.508300 -30.547100
H -7.743200 -2.882300 -28.729400
H -6.956400 -4.169500 -29.156600
C -6.870800 -3.255800 -28.875200
C -6.799000 -1.644700 -30.697900
H -6.366600 -3.218500 -28.058900
O -6.275100 -0.981500 -31.585700
N -6.188300 -2.498900 -29.898000
C -4.756900 -2.745000 -30.060300
H -4.625300 -3.577400 -30.519200
H -4.366000 -2.031600 -30.571100
H -4.339500 -2.786300 -29.197200
