23
Fragment
H -6.078000 -7.433400 -24.127100
H -5.730300 -5.811400 -26.212200
C -5.263800 -7.095200 -24.564400
C -5.109500 -6.191600 -25.635800
H -4.220500 -8.724800 -22.564300
C -4.009900 -7.434000 -24.158400
C -3.775200 -6.040800 -25.788200
O -3.657600 -4.630300 -27.533200
C -3.574400 -8.314700 -23.110200
H -3.543600 -10.601400 -21.344900
H -3.461500 -9.279100 -20.493100
O -3.067100 -6.777200 -24.910600
N -3.007400 -5.290800 -26.716300
C -2.930900 -9.928000 -20.895500
N -2.321300 -8.549200 -22.923600
O -2.246100 -11.154700 -18.910800
N -2.021000 -9.386300 -21.890800
C -1.975500 -10.597700 -19.944900
O -1.801600 -5.352700 -26.681000
N -0.731800 -10.450100 -20.462700
C -0.705000 -9.688900 -21.615400
H -0.068300 -10.729600 -20.052100
O 0.262300 -9.369700 -22.246900
12
Fragment
H -3.714900 -5.662800 -21.503400
H -3.688400 -6.417500 -20.129400
H -3.429100 -4.871700 -20.181300
C -3.297500 -5.704100 -20.640200
N -1.866100 -5.950200 -20.802500
O -1.779400 -7.467600 -19.114900
H -1.687800 -5.230600 -22.641600
C -1.255400 -6.804400 -20.002600
C -1.183600 -5.193300 -21.825300
H -1.098100 -4.279600 -21.543900
H -0.311200 -5.566800 -21.971100
H -0.213200 -6.940800 -20.153500
35
Fragment
H -6.078000 -7.433400 -24.127100
H -5.730300 -5.811400 -26.212200
C -5.263800 -7.095200 -24.564400
C -5.109500 -6.191600 -25.635800
H -4.220500 -8.724800 -22.564300
C -4.009900 -7.434000 -24.158400
C -3.775200 -6.040800 -25.788200
O -3.657600 -4.630300 -27.533200
C -3.574400 -8.314700 -23.110200
H -3.543600 -10.601400 -21.344900
H -3.461500 -9.279100 -20.493100
O -3.067100 -6.777200 -24.910600
N -3.007400 -5.290800 -26.716300
C -2.930900 -9.928000 -20.895500
N -2.321300 -8.549200 -22.923600
O -2.246100 -11.154700 -18.910800
N -2.021000 -9.386300 -21.890800
C -1.975500 -10.597700 -19.944900
O -1.801600 -5.352700 -26.681000
N -0.731800 -10.450100 -20.462700
C -0.705000 -9.688900 -21.615400
H -0.068300 -10.729600 -20.052100
O 0.262300 -9.369700 -22.246900
H -3.714900 -5.662800 -21.503400
H -3.688400 -6.417500 -20.129400
H -3.429100 -4.871700 -20.181300
C -3.297500 -5.704100 -20.640200
N -1.866100 -5.950200 -20.802500
O -1.779400 -7.467600 -19.114900
H -1.687800 -5.230600 -22.641600
C -1.255400 -6.804400 -20.002600
C -1.183600 -5.193300 -21.825300
H -1.098100 -4.279600 -21.543900
H -0.311200 -5.566800 -21.971100
H -0.213200 -6.940800 -20.153500
