12
Fragment
F -8.977100 -6.661500 -13.040500
H -8.812100 -7.752600 -10.759300
C -8.085100 -7.985900 -11.323700
C -8.017800 -7.495300 -12.565100
H -7.122100 -9.207000 -10.036400
N -7.096900 -8.828600 -10.866700
C -6.932000 -7.812600 -13.459200
O -6.810200 -7.383900 -14.609600
C -6.021300 -9.181200 -11.620100
N -5.994300 -8.649400 -12.894600
H -5.271800 -8.882400 -13.401500
O -5.124900 -9.919400 -11.208900
24
Fragment
H -8.903300 -11.551500 -11.452900
H -8.161200 -11.143400 -13.604900
C -8.102700 -11.973200 -11.741400
C -7.673900 -11.718400 -13.026800
N -7.473100 -12.772700 -10.871900
H -6.888200 -14.273500 -8.893900
H -6.630000 -15.293900 -6.721300
C -6.515900 -12.327600 -13.437600
C -6.344000 -13.363800 -11.297300
H -6.179500 -12.176700 -14.313100
C -6.053000 -14.621400 -9.183400
C -5.844700 -13.160500 -12.569000
C -5.829100 -15.725700 -6.995200
C -5.620700 -14.264900 -10.380700
H -5.494200 -16.709600 -5.251000
C -5.329800 -15.522400 -8.266800
C -5.157900 -16.558600 -6.126500
H -5.043800 -13.592400 -12.842900
H -4.785600 -14.612800 -10.670300
N -4.200600 -16.113600 -8.692300
C -3.999900 -17.167900 -6.537400
C -3.571100 -16.913100 -7.822700
H -3.512600 -17.742900 -5.959200
H -2.770500 -17.334800 -8.111300
36
Fragment
F -8.977100 -6.661500 -13.040500
H -8.812100 -7.752600 -10.759300
C -8.085100 -7.985900 -11.323700
C -8.017800 -7.495300 -12.565100
H -7.122100 -9.207000 -10.036400
N -7.096900 -8.828600 -10.866700
C -6.932000 -7.812600 -13.459200
O -6.810200 -7.383900 -14.609600
C -6.021300 -9.181200 -11.620100
N -5.994300 -8.649400 -12.894600
H -5.271800 -8.882400 -13.401500
O -5.124900 -9.919400 -11.208900
H -8.903300 -11.551500 -11.452900
H -8.161200 -11.143400 -13.604900
C -8.102700 -11.973200 -11.741400
C -7.673900 -11.718400 -13.026800
N -7.473100 -12.772700 -10.871900
H -6.888200 -14.273500 -8.893900
H -6.630000 -15.293900 -6.721300
C -6.515900 -12.327600 -13.437600
C -6.344000 -13.363800 -11.297300
H -6.179500 -12.176700 -14.313100
C -6.053000 -14.621400 -9.183400
C -5.844700 -13.160500 -12.569000
C -5.829100 -15.725700 -6.995200
C -5.620700 -14.264900 -10.380700
H -5.494200 -16.709600 -5.251000
C -5.329800 -15.522400 -8.266800
C -5.157900 -16.558600 -6.126500
H -5.043800 -13.592400 -12.842900
H -4.785600 -14.612800 -10.670300
N -4.200600 -16.113600 -8.692300
C -3.999900 -17.167900 -6.537400
C -3.571100 -16.913100 -7.822700
H -3.512600 -17.742900 -5.959200
H -2.770500 -17.334800 -8.111300
