12
Fragment
F -8.977100 -6.661500 -13.040500
H -8.812100 -7.752600 -10.759300
C -8.085100 -7.985900 -11.323700
C -8.017800 -7.495300 -12.565100
H -7.122100 -9.207000 -10.036400
N -7.096900 -8.828600 -10.866700
C -6.932000 -7.812600 -13.459200
O -6.810200 -7.383900 -14.609600
C -6.021300 -9.181200 -11.620100
N -5.994300 -8.649400 -12.894600
H -5.271800 -8.882400 -13.401500
O -5.124900 -9.919400 -11.208900
12
Fragment
F -3.475100 -6.661500 -13.040500
H -3.310100 -7.752600 -10.759300
C -2.583100 -7.985900 -11.323700
C -2.515800 -7.495300 -12.565100
H -1.620100 -9.207000 -10.036400
N -1.594900 -8.828600 -10.866700
C -1.430000 -7.812600 -13.459200
O -1.308200 -7.383900 -14.609600
C -0.519300 -9.181200 -11.620100
N -0.492300 -8.649400 -12.894600
H 0.230200 -8.882400 -13.401500
O 0.377100 -9.919400 -11.208900
24
Fragment
F -8.977100 -6.661500 -13.040500
H -8.812100 -7.752600 -10.759300
C -8.085100 -7.985900 -11.323700
C -8.017800 -7.495300 -12.565100
H -7.122100 -9.207000 -10.036400
N -7.096900 -8.828600 -10.866700
C -6.932000 -7.812600 -13.459200
O -6.810200 -7.383900 -14.609600
C -6.021300 -9.181200 -11.620100
N -5.994300 -8.649400 -12.894600
H -5.271800 -8.882400 -13.401500
O -5.124900 -9.919400 -11.208900
F -3.475100 -6.661500 -13.040500
H -3.310100 -7.752600 -10.759300
C -2.583100 -7.985900 -11.323700
C -2.515800 -7.495300 -12.565100
H -1.620100 -9.207000 -10.036400
N -1.594900 -8.828600 -10.866700
C -1.430000 -7.812600 -13.459200
O -1.308200 -7.383900 -14.609600
C -0.519300 -9.181200 -11.620100
N -0.492300 -8.649400 -12.894600
H 0.230200 -8.882400 -13.401500
O 0.377100 -9.919400 -11.208900
