12
Fragment
F -8.977100 -6.661500 -13.040500
H -8.812100 -7.752600 -10.759300
C -8.085100 -7.985900 -11.323700
C -8.017800 -7.495300 -12.565100
H -7.122100 -9.207000 -10.036400
N -7.096900 -8.828600 -10.866700
C -6.932000 -7.812600 -13.459200
O -6.810200 -7.383900 -14.609600
C -6.021300 -9.181200 -11.620100
N -5.994300 -8.649400 -12.894600
H -5.271800 -8.882400 -13.401500
O -5.124900 -9.919400 -11.208900
12
Fragment
O -7.043500 -10.115700 -8.355300
H -6.896700 -11.152600 -6.162700
N -6.174200 -11.385600 -6.669500
C -6.147200 -10.853900 -7.944000
O -5.358300 -12.651200 -4.954500
C -5.236500 -12.222500 -6.105000
N -5.071600 -11.206500 -8.697400
H -5.046400 -10.828100 -9.527800
C -4.150700 -12.539800 -6.999100
C -4.083400 -12.049200 -8.240400
H -3.356400 -12.282400 -8.804900
F -3.191400 -13.373600 -6.523700
24
Fragment
F -8.977100 -6.661500 -13.040500
H -8.812100 -7.752600 -10.759300
C -8.085100 -7.985900 -11.323700
C -8.017800 -7.495300 -12.565100
H -7.122100 -9.207000 -10.036400
N -7.096900 -8.828600 -10.866700
C -6.932000 -7.812600 -13.459200
O -6.810200 -7.383900 -14.609600
C -6.021300 -9.181200 -11.620100
N -5.994300 -8.649400 -12.894600
H -5.271800 -8.882400 -13.401500
O -5.124900 -9.919400 -11.208900
O -7.043500 -10.115700 -8.355300
H -6.896700 -11.152600 -6.162700
N -6.174200 -11.385600 -6.669500
C -6.147200 -10.853900 -7.944000
O -5.358300 -12.651200 -4.954500
C -5.236500 -12.222500 -6.105000
N -5.071600 -11.206500 -8.697400
H -5.046400 -10.828100 -9.527800
C -4.150700 -12.539800 -6.999100
C -4.083400 -12.049200 -8.240400
H -3.356400 -12.282400 -8.804900
F -3.191400 -13.373600 -6.523700
