12
Fragment
H -22.075500 -9.784100 -26.751500
H -21.265100 -7.853100 -27.401200
C -21.254000 -9.480100 -26.355200
F -21.036900 -11.292500 -24.888800
N -20.778900 -8.291000 -26.837700
C -20.590700 -10.124000 -25.394200
C -19.618000 -7.729900 -26.422900
C -19.373800 -9.597500 -24.834200
O -19.154700 -6.696900 -26.896100
N -18.979800 -8.411900 -25.402000
O -18.719700 -10.132200 -23.935000
H -18.236200 -8.076200 -25.120000
12
Fragment
O -18.373600 -9.665600 -28.316000
H -17.562900 -11.345400 -26.777300
C -17.310500 -9.734200 -27.706700
N -16.991400 -10.756700 -26.866400
H -16.490600 -8.158300 -28.408700
N -16.356400 -8.757600 -27.823200
C -15.804100 -10.815400 -26.185300
H -15.669200 -11.556700 -25.627800
C -15.120000 -8.720600 -27.207200
C -14.902300 -9.851600 -26.336800
O -14.334100 -7.811500 -27.418900
F -13.727500 -9.876900 -25.665200
24
Fragment
H -22.075500 -9.784100 -26.751500
H -21.265100 -7.853100 -27.401200
C -21.254000 -9.480100 -26.355200
F -21.036900 -11.292500 -24.888800
N -20.778900 -8.291000 -26.837700
C -20.590700 -10.124000 -25.394200
C -19.618000 -7.729900 -26.422900
C -19.373800 -9.597500 -24.834200
O -19.154700 -6.696900 -26.896100
N -18.979800 -8.411900 -25.402000
O -18.719700 -10.132200 -23.935000
H -18.236200 -8.076200 -25.120000
O -18.373600 -9.665600 -28.316000
H -17.562900 -11.345400 -26.777300
C -17.310500 -9.734200 -27.706700
N -16.991400 -10.756700 -26.866400
H -16.490600 -8.158300 -28.408700
N -16.356400 -8.757600 -27.823200
C -15.804100 -10.815400 -26.185300
H -15.669200 -11.556700 -25.627800
C -15.120000 -8.720600 -27.207200
C -14.902300 -9.851600 -26.336800
O -14.334100 -7.811500 -27.418900
F -13.727500 -9.876900 -25.665200
