12
Fragment
O -6.449200 -11.334100 -16.173700
H -5.976400 -9.051000 -15.633100
C -5.903300 -10.482100 -16.873000
N -5.689400 -9.203500 -16.416600
F -5.568600 -11.926500 -18.717000
C -5.417800 -10.687200 -18.213900
C -5.114900 -8.160000 -17.107000
O -4.965300 -7.059400 -16.599000
C -4.850000 -9.713700 -18.920000
N -4.714700 -8.462000 -18.373000
H -4.536100 -9.840100 -19.789300
H -4.319100 -7.787000 -18.837900
12
Fragment
F -5.632200 -13.478300 -11.660600
C -4.968900 -13.013400 -12.738800
H -4.867500 -14.720800 -13.790400
O -4.834900 -10.852000 -11.779000
C -4.666300 -13.802300 -13.765400
C -4.614300 -11.620700 -12.703800
N -4.022300 -13.278000 -14.855400
N -3.983100 -11.194900 -13.863500
H -3.820400 -13.824000 -15.452900
H -3.724200 -10.316900 -13.910600
C -3.652700 -11.972800 -14.955100
O -3.080300 -11.513600 -15.933200
24
Fragment
O -6.449200 -11.334100 -16.173700
H -5.976400 -9.051000 -15.633100
C -5.903300 -10.482100 -16.873000
N -5.689400 -9.203500 -16.416600
F -5.568600 -11.926500 -18.717000
C -5.417800 -10.687200 -18.213900
C -5.114900 -8.160000 -17.107000
O -4.965300 -7.059400 -16.599000
C -4.850000 -9.713700 -18.920000
N -4.714700 -8.462000 -18.373000
H -4.536100 -9.840100 -19.789300
H -4.319100 -7.787000 -18.837900
F -5.632200 -13.478300 -11.660600
C -4.968900 -13.013400 -12.738800
H -4.867500 -14.720800 -13.790400
O -4.834900 -10.852000 -11.779000
C -4.666300 -13.802300 -13.765400
C -4.614300 -11.620700 -12.703800
N -4.022300 -13.278000 -14.855400
N -3.983100 -11.194900 -13.863500
H -3.820400 -13.824000 -15.452900
H -3.724200 -10.316900 -13.910600
C -3.652700 -11.972800 -14.955100
O -3.080300 -11.513600 -15.933200
