12
Fragment
O -6.449200 -11.334100 -16.173700
H -5.976400 -9.051000 -15.633100
C -5.903300 -10.482100 -16.873000
N -5.689400 -9.203500 -16.416600
F -5.568600 -11.926500 -18.717000
C -5.417800 -10.687200 -18.213900
C -5.114900 -8.160000 -17.107000
O -4.965300 -7.059400 -16.599000
C -4.850000 -9.713700 -18.920000
N -4.714700 -8.462000 -18.373000
H -4.536100 -9.840100 -19.789300
H -4.319100 -7.787000 -18.837900
12
Fragment
F -4.401000 -11.798400 -21.675500
C -3.737700 -11.333500 -22.753700
H -3.636300 -13.040900 -23.805200
O -3.603700 -9.172100 -21.793800
C -3.435100 -12.122400 -23.780200
C -3.383100 -9.940800 -22.718600
N -2.791100 -11.598100 -24.870200
N -2.751900 -9.514900 -23.878300
H -2.589200 -12.144100 -25.467700
H -2.493000 -8.637000 -23.925400
C -2.421500 -10.292900 -24.969900
O -1.849100 -9.833700 -25.948000
24
Fragment
O -6.449200 -11.334100 -16.173700
H -5.976400 -9.051000 -15.633100
C -5.903300 -10.482100 -16.873000
N -5.689400 -9.203500 -16.416600
F -5.568600 -11.926500 -18.717000
C -5.417800 -10.687200 -18.213900
C -5.114900 -8.160000 -17.107000
O -4.965300 -7.059400 -16.599000
C -4.850000 -9.713700 -18.920000
N -4.714700 -8.462000 -18.373000
H -4.536100 -9.840100 -19.789300
H -4.319100 -7.787000 -18.837900
F -4.401000 -11.798400 -21.675500
C -3.737700 -11.333500 -22.753700
H -3.636300 -13.040900 -23.805200
O -3.603700 -9.172100 -21.793800
C -3.435100 -12.122400 -23.780200
C -3.383100 -9.940800 -22.718600
N -2.791100 -11.598100 -24.870200
N -2.751900 -9.514900 -23.878300
H -2.589200 -12.144100 -25.467700
H -2.493000 -8.637000 -23.925400
C -2.421500 -10.292900 -24.969900
O -1.849100 -9.833700 -25.948000
