12
Fragment
O -6.449200 -11.334100 -16.173700
H -5.976400 -9.051000 -15.633100
C -5.903300 -10.482100 -16.873000
N -5.689400 -9.203500 -16.416600
F -5.568600 -11.926500 -18.717000
C -5.417800 -10.687200 -18.213900
C -5.114900 -8.160000 -17.107000
O -4.965300 -7.059400 -16.599000
C -4.850000 -9.713700 -18.920000
N -4.714700 -8.462000 -18.373000
H -4.536100 -9.840100 -19.789300
H -4.319100 -7.787000 -18.837900
14
Fragment
H -5.040800 -4.927000 -19.759200
H -4.565800 -5.219100 -18.216900
C -4.257800 -5.065900 -19.145300
H -3.812000 -5.890500 -21.531900
H -3.760000 -3.094100 -18.938000
O -3.582700 -6.265100 -19.569900
C -3.308600 -3.906200 -19.164300
C -3.055900 -6.074200 -20.894900
O -2.781800 -3.715300 -20.489300
H -2.604500 -6.886200 -21.121200
H -2.552600 -4.089900 -18.527400
C -2.106700 -4.914500 -20.913900
H -1.798700 -4.761300 -21.842300
H -1.323700 -5.053400 -20.300000
26
Fragment
O -6.449200 -11.334100 -16.173700
H -5.976400 -9.051000 -15.633100
C -5.903300 -10.482100 -16.873000
N -5.689400 -9.203500 -16.416600
F -5.568600 -11.926500 -18.717000
C -5.417800 -10.687200 -18.213900
C -5.114900 -8.160000 -17.107000
O -4.965300 -7.059400 -16.599000
C -4.850000 -9.713700 -18.920000
N -4.714700 -8.462000 -18.373000
H -4.536100 -9.840100 -19.789300
H -4.319100 -7.787000 -18.837900
H -5.040800 -4.927000 -19.759200
H -4.565800 -5.219100 -18.216900
C -4.257800 -5.065900 -19.145300
H -3.812000 -5.890500 -21.531900
H -3.760000 -3.094100 -18.938000
O -3.582700 -6.265100 -19.569900
C -3.308600 -3.906200 -19.164300
C -3.055900 -6.074200 -20.894900
O -2.781800 -3.715300 -20.489300
H -2.604500 -6.886200 -21.121200
H -2.552600 -4.089900 -18.527400
C -2.106700 -4.914500 -20.913900
H -1.798700 -4.761300 -21.842300
H -1.323700 -5.053400 -20.300000
