12
Fragment
H -22.075500 -9.784100 -26.751500
H -21.265100 -7.853100 -27.401200
C -21.254000 -9.480100 -26.355200
F -21.036900 -11.292500 -24.888800
N -20.778900 -8.291000 -26.837700
C -20.590700 -10.124000 -25.394200
C -19.618000 -7.729900 -26.422900
C -19.373800 -9.597500 -24.834200
O -19.154700 -6.696900 -26.896100
N -18.979800 -8.411900 -25.402000
O -18.719700 -10.132200 -23.935000
H -18.236200 -8.076200 -25.120000
12
Fragment
H -16.987500 -9.531700 -23.243500
O -16.504000 -7.475700 -24.428600
N -16.243900 -9.196000 -22.961600
O -16.069000 -10.911000 -21.467400
C -15.849900 -8.010400 -23.529300
C -15.605700 -9.878000 -21.940600
C -14.633000 -7.483900 -22.969300
N -14.444800 -9.316900 -21.525800
F -14.186800 -6.315400 -23.474700
C -13.969700 -8.127800 -22.008300
H -13.958600 -9.754800 -20.962400
H -13.148200 -7.823800 -21.612100
24
Fragment
H -22.075500 -9.784100 -26.751500
H -21.265100 -7.853100 -27.401200
C -21.254000 -9.480100 -26.355200
F -21.036900 -11.292500 -24.888800
N -20.778900 -8.291000 -26.837700
C -20.590700 -10.124000 -25.394200
C -19.618000 -7.729900 -26.422900
C -19.373800 -9.597500 -24.834200
O -19.154700 -6.696900 -26.896100
N -18.979800 -8.411900 -25.402000
O -18.719700 -10.132200 -23.935000
H -18.236200 -8.076200 -25.120000
H -16.987500 -9.531700 -23.243500
O -16.504000 -7.475700 -24.428600
N -16.243900 -9.196000 -22.961600
O -16.069000 -10.911000 -21.467400
C -15.849900 -8.010400 -23.529300
C -15.605700 -9.878000 -21.940600
C -14.633000 -7.483900 -22.969300
N -14.444800 -9.316900 -21.525800
F -14.186800 -6.315400 -23.474700
C -13.969700 -8.127800 -22.008300
H -13.958600 -9.754800 -20.962400
H -13.148200 -7.823800 -21.612100
