12
Fragment
H -22.075500 -9.784100 -26.751500
H -21.265100 -7.853100 -27.401200
C -21.254000 -9.480100 -26.355200
F -21.036900 -11.292500 -24.888800
N -20.778900 -8.291000 -26.837700
C -20.590700 -10.124000 -25.394200
C -19.618000 -7.729900 -26.422900
C -19.373800 -9.597500 -24.834200
O -19.154700 -6.696900 -26.896100
N -18.979800 -8.411900 -25.402000
O -18.719700 -10.132200 -23.935000
H -18.236200 -8.076200 -25.120000
12
Fragment
F -21.496200 -13.600300 -22.698300
O -20.889600 -15.665700 -20.944600
C -20.321300 -13.625600 -22.026700
C -20.103700 -14.756600 -21.156300
H -19.554500 -11.920500 -22.735700
C -19.419600 -12.661800 -22.178200
N -18.867300 -14.719600 -20.540300
H -18.733100 -15.318900 -19.954800
N -18.232300 -12.720500 -21.497100
C -17.913200 -13.743000 -20.656900
H -17.660800 -12.131800 -21.586300
O -16.850100 -13.811600 -20.047500
24
Fragment
H -22.075500 -9.784100 -26.751500
H -21.265100 -7.853100 -27.401200
C -21.254000 -9.480100 -26.355200
F -21.036900 -11.292500 -24.888800
N -20.778900 -8.291000 -26.837700
C -20.590700 -10.124000 -25.394200
C -19.618000 -7.729900 -26.422900
C -19.373800 -9.597500 -24.834200
O -19.154700 -6.696900 -26.896100
N -18.979800 -8.411900 -25.402000
O -18.719700 -10.132200 -23.935000
H -18.236200 -8.076200 -25.120000
F -21.496200 -13.600300 -22.698300
O -20.889600 -15.665700 -20.944600
C -20.321300 -13.625600 -22.026700
C -20.103700 -14.756600 -21.156300
H -19.554500 -11.920500 -22.735700
C -19.419600 -12.661800 -22.178200
N -18.867300 -14.719600 -20.540300
H -18.733100 -15.318900 -19.954800
N -18.232300 -12.720500 -21.497100
C -17.913200 -13.743000 -20.656900
H -17.660800 -12.131800 -21.586300
O -16.850100 -13.811600 -20.047500
