12
Fragment
O -6.449200 -11.334100 -16.173700
H -5.976400 -9.051000 -15.633100
C -5.903300 -10.482100 -16.873000
N -5.689400 -9.203500 -16.416600
F -5.568600 -11.926500 -18.717000
C -5.417800 -10.687200 -18.213900
C -5.114900 -8.160000 -17.107000
O -4.965300 -7.059400 -16.599000
C -4.850000 -9.713700 -18.920000
N -4.714700 -8.462000 -18.373000
H -4.536100 -9.840100 -19.789300
H -4.319100 -7.787000 -18.837900
12
Fragment
O -3.075300 -8.496700 -14.111300
C -2.503000 -8.037500 -15.089300
H -2.431400 -9.693400 -16.133900
H -2.335300 -6.186300 -14.591600
N -2.172600 -8.815500 -16.180900
N -2.133400 -6.732400 -15.189100
C -1.541400 -8.389600 -17.340700
C -1.489400 -6.208000 -16.279100
O -1.320800 -9.158300 -18.265400
H -1.288100 -5.289500 -16.254000
C -1.186800 -6.996900 -17.305600
F -0.523400 -6.532000 -18.383800
24
Fragment
O -6.449200 -11.334100 -16.173700
H -5.976400 -9.051000 -15.633100
C -5.903300 -10.482100 -16.873000
N -5.689400 -9.203500 -16.416600
F -5.568600 -11.926500 -18.717000
C -5.417800 -10.687200 -18.213900
C -5.114900 -8.160000 -17.107000
O -4.965300 -7.059400 -16.599000
C -4.850000 -9.713700 -18.920000
N -4.714700 -8.462000 -18.373000
H -4.536100 -9.840100 -19.789300
H -4.319100 -7.787000 -18.837900
O -3.075300 -8.496700 -14.111300
C -2.503000 -8.037500 -15.089300
H -2.431400 -9.693400 -16.133900
H -2.335300 -6.186300 -14.591600
N -2.172600 -8.815500 -16.180900
N -2.133400 -6.732400 -15.189100
C -1.541400 -8.389600 -17.340700
C -1.489400 -6.208000 -16.279100
O -1.320800 -9.158300 -18.265400
H -1.288100 -5.289500 -16.254000
C -1.186800 -6.996900 -17.305600
F -0.523400 -6.532000 -18.383800
