12
Fragment
H -22.075500 -9.784100 -26.751500
H -21.265100 -7.853100 -27.401200
C -21.254000 -9.480100 -26.355200
F -21.036900 -11.292500 -24.888800
N -20.778900 -8.291000 -26.837700
C -20.590700 -10.124000 -25.394200
C -19.618000 -7.729900 -26.422900
C -19.373800 -9.597500 -24.834200
O -19.154700 -6.696900 -26.896100
N -18.979800 -8.411900 -25.402000
O -18.719700 -10.132200 -23.935000
H -18.236200 -8.076200 -25.120000
12
Fragment
H -26.447100 -9.396700 -23.264500
H -26.278800 -10.936300 -22.861400
C -25.830700 -10.158600 -23.254000
H -25.555200 -10.368700 -24.170500
O -25.549000 -7.915300 -21.624300
N -24.658600 -9.823400 -22.460800
C -24.625800 -8.729400 -21.707800
H -23.810400 -8.604400 -21.204200
H -23.786300 -11.619500 -22.269800
C -23.518800 -10.720900 -22.553500
H -23.201800 -10.751400 -23.480500
H -22.799600 -10.396300 -21.973200
24
Fragment
H -22.075500 -9.784100 -26.751500
H -21.265100 -7.853100 -27.401200
C -21.254000 -9.480100 -26.355200
F -21.036900 -11.292500 -24.888800
N -20.778900 -8.291000 -26.837700
C -20.590700 -10.124000 -25.394200
C -19.618000 -7.729900 -26.422900
C -19.373800 -9.597500 -24.834200
O -19.154700 -6.696900 -26.896100
N -18.979800 -8.411900 -25.402000
O -18.719700 -10.132200 -23.935000
H -18.236200 -8.076200 -25.120000
H -26.447100 -9.396700 -23.264500
H -26.278800 -10.936300 -22.861400
C -25.830700 -10.158600 -23.254000
H -25.555200 -10.368700 -24.170500
O -25.549000 -7.915300 -21.624300
N -24.658600 -9.823400 -22.460800
C -24.625800 -8.729400 -21.707800
H -23.810400 -8.604400 -21.204200
H -23.786300 -11.619500 -22.269800
C -23.518800 -10.720900 -22.553500
H -23.201800 -10.751400 -23.480500
H -22.799600 -10.396300 -21.973200
