18
Fragment
H -9.579500 -6.317800 -12.472400
N -8.850300 -6.803500 -12.554300
H -8.567100 -7.040800 -13.353000
O -8.527100 -6.875800 -10.331200
C -8.179300 -7.177500 -11.475700
H -7.184600 -7.590300 -9.118600
C -6.960000 -8.038000 -11.554500
O -6.589700 -7.799000 -13.814000
N -6.489900 -8.089500 -9.324800
N -6.470800 -8.545000 -12.844900
N -6.233300 -8.449000 -10.579400
O -5.971100 -9.660300 -12.895500
N -5.682700 -8.262600 -7.076000
C -5.612000 -8.539800 -8.367500
N -4.639000 -8.938700 -6.524900
N -4.569700 -9.337200 -8.609800
H -4.321900 -9.648600 -9.394700
N -3.965900 -9.577300 -7.424600
18
Fragment
H -8.598900 -4.398800 -21.539000
N -7.869800 -4.884600 -21.620900
H -7.586500 -5.121900 -22.419600
O -7.546500 -4.956900 -19.397900
C -7.198700 -5.258600 -20.542300
H -6.204100 -5.671400 -18.185200
C -5.979400 -6.119000 -20.621100
O -5.609100 -5.880100 -22.880600
N -5.509300 -6.170600 -18.391500
N -5.490200 -6.626000 -21.911500
N -5.252700 -6.530000 -19.646000
O -4.990500 -7.741400 -21.962100
N -4.702100 -6.343700 -16.142700
C -4.631400 -6.620900 -17.434100
N -3.658400 -7.019800 -15.591500
N -3.589100 -7.418200 -17.676500
H -3.341300 -7.729700 -18.461300
N -2.985300 -7.658300 -16.491200
36
Fragment
H -9.579500 -6.317800 -12.472400
N -8.850300 -6.803500 -12.554300
H -8.567100 -7.040800 -13.353000
O -8.527100 -6.875800 -10.331200
C -8.179300 -7.177500 -11.475700
H -7.184600 -7.590300 -9.118600
C -6.960000 -8.038000 -11.554500
O -6.589700 -7.799000 -13.814000
N -6.489900 -8.089500 -9.324800
N -6.470800 -8.545000 -12.844900
N -6.233300 -8.449000 -10.579400
O -5.971100 -9.660300 -12.895500
N -5.682700 -8.262600 -7.076000
C -5.612000 -8.539800 -8.367500
N -4.639000 -8.938700 -6.524900
N -4.569700 -9.337200 -8.609800
H -4.321900 -9.648600 -9.394700
N -3.965900 -9.577300 -7.424600
H -8.598900 -4.398800 -21.539000
N -7.869800 -4.884600 -21.620900
H -7.586500 -5.121900 -22.419600
O -7.546500 -4.956900 -19.397900
C -7.198700 -5.258600 -20.542300
H -6.204100 -5.671400 -18.185200
C -5.979400 -6.119000 -20.621100
O -5.609100 -5.880100 -22.880600
N -5.509300 -6.170600 -18.391500
N -5.490200 -6.626000 -21.911500
N -5.252700 -6.530000 -19.646000
O -4.990500 -7.741400 -21.962100
N -4.702100 -6.343700 -16.142700
C -4.631400 -6.620900 -17.434100
N -3.658400 -7.019800 -15.591500
N -3.589100 -7.418200 -17.676500
H -3.341300 -7.729700 -18.461300
N -2.985300 -7.658300 -16.491200
