18
Fragment
H -9.579500 -6.317800 -12.472400
N -8.850300 -6.803500 -12.554300
H -8.567100 -7.040800 -13.353000
O -8.527100 -6.875800 -10.331200
C -8.179300 -7.177500 -11.475700
H -7.184600 -7.590300 -9.118600
C -6.960000 -8.038000 -11.554500
O -6.589700 -7.799000 -13.814000
N -6.489900 -8.089500 -9.324800
N -6.470800 -8.545000 -12.844900
N -6.233300 -8.449000 -10.579400
O -5.971100 -9.660300 -12.895500
N -5.682700 -8.262600 -7.076000
C -5.612000 -8.539800 -8.367500
N -4.639000 -8.938700 -6.524900
N -4.569700 -9.337200 -8.609800
H -4.321900 -9.648600 -9.394700
N -3.965900 -9.577300 -7.424600
18
Fragment
N -10.714700 -10.254500 -19.775300
H -10.358700 -10.183100 -17.805200
N -10.110900 -10.494600 -18.590000
N -10.041600 -10.893000 -20.675000
C -9.068600 -11.291900 -18.832400
N -8.997900 -11.569100 -20.123800
O -8.709500 -10.171400 -14.304400
N -8.447300 -11.382800 -16.620500
N -8.209800 -11.286800 -14.355000
N -8.190700 -11.742200 -17.875000
O -8.090900 -12.032700 -13.385900
C -7.720600 -11.793800 -15.645400
H -7.496000 -12.241400 -18.081300
C -6.501300 -12.654200 -15.724200
O -6.153500 -12.955900 -16.868600
H -6.113500 -12.790900 -13.846900
N -5.830300 -13.028200 -14.645600
H -5.101100 -13.514000 -14.727500
36
Fragment
H -9.579500 -6.317800 -12.472400
N -8.850300 -6.803500 -12.554300
H -8.567100 -7.040800 -13.353000
O -8.527100 -6.875800 -10.331200
C -8.179300 -7.177500 -11.475700
H -7.184600 -7.590300 -9.118600
C -6.960000 -8.038000 -11.554500
O -6.589700 -7.799000 -13.814000
N -6.489900 -8.089500 -9.324800
N -6.470800 -8.545000 -12.844900
N -6.233300 -8.449000 -10.579400
O -5.971100 -9.660300 -12.895500
N -5.682700 -8.262600 -7.076000
C -5.612000 -8.539800 -8.367500
N -4.639000 -8.938700 -6.524900
N -4.569700 -9.337200 -8.609800
H -4.321900 -9.648600 -9.394700
N -3.965900 -9.577300 -7.424600
N -10.714700 -10.254500 -19.775300
H -10.358700 -10.183100 -17.805200
N -10.110900 -10.494600 -18.590000
N -10.041600 -10.893000 -20.675000
C -9.068600 -11.291900 -18.832400
N -8.997900 -11.569100 -20.123800
O -8.709500 -10.171400 -14.304400
N -8.447300 -11.382800 -16.620500
N -8.209800 -11.286800 -14.355000
N -8.190700 -11.742200 -17.875000
O -8.090900 -12.032700 -13.385900
C -7.720600 -11.793800 -15.645400
H -7.496000 -12.241400 -18.081300
C -6.501300 -12.654200 -15.724200
O -6.153500 -12.955900 -16.868600
H -6.113500 -12.790900 -13.846900
N -5.830300 -13.028200 -14.645600
H -5.101100 -13.514000 -14.727500
