18
Fragment
H -9.579500 -6.317800 -12.472400
N -8.850300 -6.803500 -12.554300
H -8.567100 -7.040800 -13.353000
O -8.527100 -6.875800 -10.331200
C -8.179300 -7.177500 -11.475700
H -7.184600 -7.590300 -9.118600
C -6.960000 -8.038000 -11.554500
O -6.589700 -7.799000 -13.814000
N -6.489900 -8.089500 -9.324800
N -6.470800 -8.545000 -12.844900
N -6.233300 -8.449000 -10.579400
O -5.971100 -9.660300 -12.895500
N -5.682700 -8.262600 -7.076000
C -5.612000 -8.539800 -8.367500
N -4.639000 -8.938700 -6.524900
N -4.569700 -9.337200 -8.609800
H -4.321900 -9.648600 -9.394700
N -3.965900 -9.577300 -7.424600
18
Fragment
N -11.749900 -1.725000 -19.775300
H -11.393900 -1.653600 -17.805200
N -11.146100 -1.965100 -18.590000
N -11.076800 -2.363500 -20.675000
C -10.103900 -2.762400 -18.832400
N -10.033100 -3.039600 -20.123800
O -9.744700 -1.641900 -14.304400
N -9.482500 -2.853300 -16.620500
N -9.245000 -2.757300 -14.355000
N -9.225900 -3.212700 -17.875000
O -9.126100 -3.503200 -13.385900
C -8.755800 -3.264300 -15.645400
H -8.531200 -3.711900 -18.081300
C -7.536600 -4.124700 -15.724200
O -7.188700 -4.426400 -16.868600
H -7.148700 -4.261400 -13.846900
N -6.865500 -4.498700 -14.645600
H -6.136400 -4.984500 -14.727500
36
Fragment
H -9.579500 -6.317800 -12.472400
N -8.850300 -6.803500 -12.554300
H -8.567100 -7.040800 -13.353000
O -8.527100 -6.875800 -10.331200
C -8.179300 -7.177500 -11.475700
H -7.184600 -7.590300 -9.118600
C -6.960000 -8.038000 -11.554500
O -6.589700 -7.799000 -13.814000
N -6.489900 -8.089500 -9.324800
N -6.470800 -8.545000 -12.844900
N -6.233300 -8.449000 -10.579400
O -5.971100 -9.660300 -12.895500
N -5.682700 -8.262600 -7.076000
C -5.612000 -8.539800 -8.367500
N -4.639000 -8.938700 -6.524900
N -4.569700 -9.337200 -8.609800
H -4.321900 -9.648600 -9.394700
N -3.965900 -9.577300 -7.424600
N -11.749900 -1.725000 -19.775300
H -11.393900 -1.653600 -17.805200
N -11.146100 -1.965100 -18.590000
N -11.076800 -2.363500 -20.675000
C -10.103900 -2.762400 -18.832400
N -10.033100 -3.039600 -20.123800
O -9.744700 -1.641900 -14.304400
N -9.482500 -2.853300 -16.620500
N -9.245000 -2.757300 -14.355000
N -9.225900 -3.212700 -17.875000
O -9.126100 -3.503200 -13.385900
C -8.755800 -3.264300 -15.645400
H -8.531200 -3.711900 -18.081300
C -7.536600 -4.124700 -15.724200
O -7.188700 -4.426400 -16.868600
H -7.148700 -4.261400 -13.846900
N -6.865500 -4.498700 -14.645600
H -6.136400 -4.984500 -14.727500
