18
Fragment
H -9.579500 -6.317800 -12.472400
N -8.850300 -6.803500 -12.554300
H -8.567100 -7.040800 -13.353000
O -8.527100 -6.875800 -10.331200
C -8.179300 -7.177500 -11.475700
H -7.184600 -7.590300 -9.118600
C -6.960000 -8.038000 -11.554500
O -6.589700 -7.799000 -13.814000
N -6.489900 -8.089500 -9.324800
N -6.470800 -8.545000 -12.844900
N -6.233300 -8.449000 -10.579400
O -5.971100 -9.660300 -12.895500
N -5.682700 -8.262600 -7.076000
C -5.612000 -8.539800 -8.367500
N -4.639000 -8.938700 -6.524900
N -4.569700 -9.337200 -8.609800
H -4.321900 -9.648600 -9.394700
N -3.965900 -9.577300 -7.424600
18
Fragment
H -10.560100 -8.236700 -3.405800
N -9.830900 -8.722400 -3.487700
H -9.547700 -8.959700 -4.286300
O -9.507700 -8.794800 -1.264600
C -9.159900 -9.096500 -2.409100
H -8.165200 -9.509200 -0.052000
C -7.940600 -9.956900 -2.487900
O -7.570300 -9.717900 -4.747400
N -7.470500 -10.008500 -0.258200
N -7.451400 -10.463900 -3.778200
N -7.213900 -10.367900 -1.512800
O -6.951700 -11.579300 -3.828800
N -6.663300 -10.181500 1.990600
C -6.592600 -10.458800 0.699100
N -5.619600 -10.857600 2.541700
N -5.550300 -11.256100 0.456800
H -5.302500 -11.567600 -0.328000
N -4.946500 -11.496200 1.642100
36
Fragment
H -9.579500 -6.317800 -12.472400
N -8.850300 -6.803500 -12.554300
H -8.567100 -7.040800 -13.353000
O -8.527100 -6.875800 -10.331200
C -8.179300 -7.177500 -11.475700
H -7.184600 -7.590300 -9.118600
C -6.960000 -8.038000 -11.554500
O -6.589700 -7.799000 -13.814000
N -6.489900 -8.089500 -9.324800
N -6.470800 -8.545000 -12.844900
N -6.233300 -8.449000 -10.579400
O -5.971100 -9.660300 -12.895500
N -5.682700 -8.262600 -7.076000
C -5.612000 -8.539800 -8.367500
N -4.639000 -8.938700 -6.524900
N -4.569700 -9.337200 -8.609800
H -4.321900 -9.648600 -9.394700
N -3.965900 -9.577300 -7.424600
H -10.560100 -8.236700 -3.405800
N -9.830900 -8.722400 -3.487700
H -9.547700 -8.959700 -4.286300
O -9.507700 -8.794800 -1.264600
C -9.159900 -9.096500 -2.409100
H -8.165200 -9.509200 -0.052000
C -7.940600 -9.956900 -2.487900
O -7.570300 -9.717900 -4.747400
N -7.470500 -10.008500 -0.258200
N -7.451400 -10.463900 -3.778200
N -7.213900 -10.367900 -1.512800
O -6.951700 -11.579300 -3.828800
N -6.663300 -10.181500 1.990600
C -6.592600 -10.458800 0.699100
N -5.619600 -10.857600 2.541700
N -5.550300 -11.256100 0.456800
H -5.302500 -11.567600 -0.328000
N -4.946500 -11.496200 1.642100
