31
Fragment
H -32.886700 -11.045100 -39.518900
C -31.937100 -10.957400 -39.429700
H -31.736800 -11.529100 -37.472100
H -31.596900 -10.390000 -41.266400
C -31.257200 -11.203000 -38.214100
C -31.163500 -10.532800 -40.437100
C -29.878700 -11.024100 -38.070800
C -29.799800 -10.309600 -40.375000
H -29.432100 -11.197200 -37.249800
C -29.146300 -10.583500 -39.154900
N -29.113700 -9.874800 -41.468200
H -27.850800 -9.298100 -36.605500
C -27.821300 -9.672000 -41.379200
N -27.778300 -10.395800 -39.072200
O -27.577700 -9.049500 -43.644400
H -27.474700 -11.398000 -37.386600
C -27.105700 -9.918300 -40.128700
C -27.071400 -9.266200 -42.562600
C -27.030000 -10.707400 -37.829300
C -26.974700 -9.552400 -36.839800
H -26.793600 -10.574800 -35.043300
H -26.523600 -8.856800 -37.258300
C -26.250900 -9.879200 -35.584700
H -26.153600 -10.948000 -38.047900
H -25.973800 -8.880000 -35.069000
N -25.808100 -9.686500 -40.011800
N -25.747100 -9.103900 -42.347000
H -25.212100 -8.835800 -43.085100
H -25.172200 -10.311800 -35.927000
C -25.093000 -9.275600 -41.094500
O -23.885800 -9.057500 -41.052600
20
Fragment
H -31.250200 -11.487100 -34.119700
H -31.023600 -9.718300 -35.513700
C -30.713800 -10.793600 -33.817300
C -30.583800 -9.732800 -34.652200
H -30.264100 -11.632000 -32.044400
C -30.140900 -10.883500 -32.600900
H -30.115600 -7.697400 -35.852900
C -29.778200 -8.656100 -34.250800
C -29.598600 -7.525000 -35.038800
C -29.353400 -9.844400 -32.175600
C -29.161900 -8.722700 -32.988300
H -28.913400 -9.880600 -31.323200
C -28.798600 -6.529400 -34.621700
O -28.564600 -5.416400 -35.417900
C -28.343500 -7.643800 -32.576100
C -28.151600 -6.598200 -33.366300
H -28.102900 -4.709900 -34.892200
H -27.934700 -7.662600 -31.716600
O -27.404900 -5.478000 -33.098600
H -26.902900 -5.702600 -32.241100
51
Fragment
H -32.886700 -11.045100 -39.518900
C -31.937100 -10.957400 -39.429700
H -31.736800 -11.529100 -37.472100
H -31.596900 -10.390000 -41.266400
C -31.257200 -11.203000 -38.214100
C -31.163500 -10.532800 -40.437100
C -29.878700 -11.024100 -38.070800
C -29.799800 -10.309600 -40.375000
H -29.432100 -11.197200 -37.249800
C -29.146300 -10.583500 -39.154900
N -29.113700 -9.874800 -41.468200
H -27.850800 -9.298100 -36.605500
C -27.821300 -9.672000 -41.379200
N -27.778300 -10.395800 -39.072200
O -27.577700 -9.049500 -43.644400
H -27.474700 -11.398000 -37.386600
C -27.105700 -9.918300 -40.128700
C -27.071400 -9.266200 -42.562600
C -27.030000 -10.707400 -37.829300
C -26.974700 -9.552400 -36.839800
H -26.793600 -10.574800 -35.043300
H -26.523600 -8.856800 -37.258300
C -26.250900 -9.879200 -35.584700
H -26.153600 -10.948000 -38.047900
H -25.973800 -8.880000 -35.069000
N -25.808100 -9.686500 -40.011800
N -25.747100 -9.103900 -42.347000
H -25.212100 -8.835800 -43.085100
H -25.172200 -10.311800 -35.927000
C -25.093000 -9.275600 -41.094500
O -23.885800 -9.057500 -41.052600
H -31.250200 -11.487100 -34.119700
H -31.023600 -9.718300 -35.513700
C -30.713800 -10.793600 -33.817300
C -30.583800 -9.732800 -34.652200
H -30.264100 -11.632000 -32.044400
C -30.140900 -10.883500 -32.600900
H -30.115600 -7.697400 -35.852900
C -29.778200 -8.656100 -34.250800
C -29.598600 -7.525000 -35.038800
C -29.353400 -9.844400 -32.175600
C -29.161900 -8.722700 -32.988300
H -28.913400 -9.880600 -31.323200
C -28.798600 -6.529400 -34.621700
O -28.564600 -5.416400 -35.417900
C -28.343500 -7.643800 -32.576100
C -28.151600 -6.598200 -33.366300
H -28.102900 -4.709900 -34.892200
H -27.934700 -7.662600 -31.716600
O -27.404900 -5.478000 -33.098600
H -26.902900 -5.702600 -32.241100
