31
Fragment
H -32.886700 -11.045100 -39.518900
C -31.937100 -10.957400 -39.429700
H -31.736800 -11.529100 -37.472100
H -31.596900 -10.390000 -41.266400
C -31.257200 -11.203000 -38.214100
C -31.163500 -10.532800 -40.437100
C -29.878700 -11.024100 -38.070800
C -29.799800 -10.309600 -40.375000
H -29.432100 -11.197200 -37.249800
C -29.146300 -10.583500 -39.154900
N -29.113700 -9.874800 -41.468200
H -27.850800 -9.298100 -36.605500
C -27.821300 -9.672000 -41.379200
N -27.778300 -10.395800 -39.072200
O -27.577700 -9.049500 -43.644400
H -27.474700 -11.398000 -37.386600
C -27.105700 -9.918300 -40.128700
C -27.071400 -9.266200 -42.562600
C -27.030000 -10.707400 -37.829300
C -26.974700 -9.552400 -36.839800
H -26.793600 -10.574800 -35.043300
H -26.523600 -8.856800 -37.258300
C -26.250900 -9.879200 -35.584700
H -26.153600 -10.948000 -38.047900
H -25.973800 -8.880000 -35.069000
N -25.808100 -9.686500 -40.011800
N -25.747100 -9.103900 -42.347000
H -25.212100 -8.835800 -43.085100
H -25.172200 -10.311800 -35.927000
C -25.093000 -9.275600 -41.094500
O -23.885800 -9.057500 -41.052600
20
Fragment
H -36.689500 -8.876400 -44.561700
C -35.754500 -8.745200 -44.420900
H -35.725000 -9.329900 -42.460800
H -35.365800 -8.075700 -46.220800
C -35.179400 -9.036500 -43.170900
C -34.961000 -8.285100 -45.389300
C -33.834900 -8.873500 -42.993600
C -33.570400 -8.099600 -45.282400
H -33.445900 -9.066200 -42.147200
H -33.195600 -7.420600 -47.124500
C -33.021200 -8.412600 -44.028900
C -32.787600 -7.623500 -46.290700
C -31.633700 -8.259000 -43.874200
C -31.475300 -7.452500 -46.114500
H -31.214600 -8.524900 -43.073700
C -30.880100 -7.780000 -44.859100
O -30.675000 -6.975000 -47.107700
H -29.749900 -7.196000 -46.956300
O -29.528500 -7.559000 -44.845700
H -29.003300 -8.151800 -44.005900
51
Fragment
H -32.886700 -11.045100 -39.518900
C -31.937100 -10.957400 -39.429700
H -31.736800 -11.529100 -37.472100
H -31.596900 -10.390000 -41.266400
C -31.257200 -11.203000 -38.214100
C -31.163500 -10.532800 -40.437100
C -29.878700 -11.024100 -38.070800
C -29.799800 -10.309600 -40.375000
H -29.432100 -11.197200 -37.249800
C -29.146300 -10.583500 -39.154900
N -29.113700 -9.874800 -41.468200
H -27.850800 -9.298100 -36.605500
C -27.821300 -9.672000 -41.379200
N -27.778300 -10.395800 -39.072200
O -27.577700 -9.049500 -43.644400
H -27.474700 -11.398000 -37.386600
C -27.105700 -9.918300 -40.128700
C -27.071400 -9.266200 -42.562600
C -27.030000 -10.707400 -37.829300
C -26.974700 -9.552400 -36.839800
H -26.793600 -10.574800 -35.043300
H -26.523600 -8.856800 -37.258300
C -26.250900 -9.879200 -35.584700
H -26.153600 -10.948000 -38.047900
H -25.973800 -8.880000 -35.069000
N -25.808100 -9.686500 -40.011800
N -25.747100 -9.103900 -42.347000
H -25.212100 -8.835800 -43.085100
H -25.172200 -10.311800 -35.927000
C -25.093000 -9.275600 -41.094500
O -23.885800 -9.057500 -41.052600
H -36.689500 -8.876400 -44.561700
C -35.754500 -8.745200 -44.420900
H -35.725000 -9.329900 -42.460800
H -35.365800 -8.075700 -46.220800
C -35.179400 -9.036500 -43.170900
C -34.961000 -8.285100 -45.389300
C -33.834900 -8.873500 -42.993600
C -33.570400 -8.099600 -45.282400
H -33.445900 -9.066200 -42.147200
H -33.195600 -7.420600 -47.124500
C -33.021200 -8.412600 -44.028900
C -32.787600 -7.623500 -46.290700
C -31.633700 -8.259000 -43.874200
C -31.475300 -7.452500 -46.114500
H -31.214600 -8.524900 -43.073700
C -30.880100 -7.780000 -44.859100
O -30.675000 -6.975000 -47.107700
H -29.749900 -7.196000 -46.956300
O -29.528500 -7.559000 -44.845700
H -29.003300 -8.151800 -44.005900
