31
Fragment
H -32.886700 -11.045100 -39.518900
C -31.937100 -10.957400 -39.429700
H -31.736800 -11.529100 -37.472100
H -31.596900 -10.390000 -41.266400
C -31.257200 -11.203000 -38.214100
C -31.163500 -10.532800 -40.437100
C -29.878700 -11.024100 -38.070800
C -29.799800 -10.309600 -40.375000
H -29.432100 -11.197200 -37.249800
C -29.146300 -10.583500 -39.154900
N -29.113700 -9.874800 -41.468200
H -27.850800 -9.298100 -36.605500
C -27.821300 -9.672000 -41.379200
N -27.778300 -10.395800 -39.072200
O -27.577700 -9.049500 -43.644400
H -27.474700 -11.398000 -37.386600
C -27.105700 -9.918300 -40.128700
C -27.071400 -9.266200 -42.562600
C -27.030000 -10.707400 -37.829300
C -26.974700 -9.552400 -36.839800
H -26.793600 -10.574800 -35.043300
H -26.523600 -8.856800 -37.258300
C -26.250900 -9.879200 -35.584700
H -26.153600 -10.948000 -38.047900
H -25.973800 -8.880000 -35.069000
N -25.808100 -9.686500 -40.011800
N -25.747100 -9.103900 -42.347000
H -25.212100 -8.835800 -43.085100
H -25.172200 -10.311800 -35.927000
C -25.093000 -9.275600 -41.094500
O -23.885800 -9.057500 -41.052600
20
Fragment
H -37.354600 -19.658400 -39.025700
O -36.852500 -19.883000 -38.168200
H -36.322800 -17.698400 -39.550300
H -36.154600 -20.651100 -36.374600
C -36.105900 -18.762800 -37.900600
C -35.914000 -17.717200 -38.690800
O -35.692900 -19.944600 -35.848900
C -35.458800 -18.831600 -36.645100
H -35.344000 -15.480400 -39.943600
C -35.095600 -16.638300 -38.278600
C -34.904100 -15.516600 -39.091300
C -34.658900 -17.836000 -36.228100
C -34.479200 -16.704900 -37.016000
H -34.141800 -17.663600 -35.413900
C -34.116600 -14.477500 -38.666000
H -33.993400 -13.729000 -39.222400
C -33.673600 -15.628200 -36.614600
C -33.543600 -14.567400 -37.449600
H -33.233800 -15.642700 -35.753200
H -33.007300 -13.873900 -37.147100
51
Fragment
H -32.886700 -11.045100 -39.518900
C -31.937100 -10.957400 -39.429700
H -31.736800 -11.529100 -37.472100
H -31.596900 -10.390000 -41.266400
C -31.257200 -11.203000 -38.214100
C -31.163500 -10.532800 -40.437100
C -29.878700 -11.024100 -38.070800
C -29.799800 -10.309600 -40.375000
H -29.432100 -11.197200 -37.249800
C -29.146300 -10.583500 -39.154900
N -29.113700 -9.874800 -41.468200
H -27.850800 -9.298100 -36.605500
C -27.821300 -9.672000 -41.379200
N -27.778300 -10.395800 -39.072200
O -27.577700 -9.049500 -43.644400
H -27.474700 -11.398000 -37.386600
C -27.105700 -9.918300 -40.128700
C -27.071400 -9.266200 -42.562600
C -27.030000 -10.707400 -37.829300
C -26.974700 -9.552400 -36.839800
H -26.793600 -10.574800 -35.043300
H -26.523600 -8.856800 -37.258300
C -26.250900 -9.879200 -35.584700
H -26.153600 -10.948000 -38.047900
H -25.973800 -8.880000 -35.069000
N -25.808100 -9.686500 -40.011800
N -25.747100 -9.103900 -42.347000
H -25.212100 -8.835800 -43.085100
H -25.172200 -10.311800 -35.927000
C -25.093000 -9.275600 -41.094500
O -23.885800 -9.057500 -41.052600
H -37.354600 -19.658400 -39.025700
O -36.852500 -19.883000 -38.168200
H -36.322800 -17.698400 -39.550300
H -36.154600 -20.651100 -36.374600
C -36.105900 -18.762800 -37.900600
C -35.914000 -17.717200 -38.690800
O -35.692900 -19.944600 -35.848900
C -35.458800 -18.831600 -36.645100
H -35.344000 -15.480400 -39.943600
C -35.095600 -16.638300 -38.278600
C -34.904100 -15.516600 -39.091300
C -34.658900 -17.836000 -36.228100
C -34.479200 -16.704900 -37.016000
H -34.141800 -17.663600 -35.413900
C -34.116600 -14.477500 -38.666000
H -33.993400 -13.729000 -39.222400
C -33.673600 -15.628200 -36.614600
C -33.543600 -14.567400 -37.449600
H -33.233800 -15.642700 -35.753200
H -33.007300 -13.873900 -37.147100
