25
Fragment
H -38.717800 -12.127200 -26.552300
H -38.442800 -12.805100 -27.882600
N -38.184000 -12.353100 -27.227500
C -36.853700 -12.237300 -27.038800
N -36.462500 -11.603700 -25.936900
H -36.333200 -13.113900 -28.662000
N -36.037100 -12.732800 -27.967500
H -35.306100 -10.824100 -24.010300
H -35.187700 -12.624300 -27.878300
N -35.069600 -11.527000 -25.831000
C -34.683100 -11.078400 -24.693300
H -33.314800 -8.715000 -21.599900
C -33.281400 -10.929700 -24.333200
N -33.112700 -10.455000 -23.137500
N -32.719800 -8.987100 -21.043900
H -32.539700 -8.413700 -20.385300
H -32.505400 -11.592400 -26.089600
C -32.193800 -11.328000 -25.272500
N -31.802000 -10.428000 -22.679300
C -31.714000 -9.733100 -21.562200
H -31.686300 -12.104600 -24.925600
H -31.497300 -10.718600 -25.295800
N -30.542000 -9.765500 -20.888300
H -30.437700 -9.264900 -20.185700
H -29.943300 -10.409800 -21.020100
25
Fragment
H -38.717800 -10.470000 -33.782200
H -38.442800 -9.792100 -35.112500
N -38.184000 -10.244100 -34.457300
C -36.853700 -10.359900 -34.268600
N -36.462500 -10.993500 -33.166800
H -36.333200 -9.483300 -35.891900
N -36.037100 -9.864400 -35.197400
H -35.306100 -11.773100 -31.240200
H -35.187700 -9.972900 -35.108200
N -35.069600 -11.070200 -33.060800
C -34.683100 -11.518800 -31.923100
H -33.314800 -13.882200 -28.829700
C -33.281400 -11.667500 -31.563100
N -33.112700 -12.142200 -30.367400
N -32.719800 -13.610100 -28.273800
H -32.539700 -14.183500 -27.615100
H -32.505400 -11.004800 -33.319500
C -32.193800 -11.269200 -32.502400
N -31.802000 -12.169200 -29.909200
C -31.714000 -12.864100 -28.792000
H -31.686300 -10.492600 -32.155500
H -31.497300 -11.878600 -32.525600
N -30.542000 -12.831700 -28.118200
H -30.437700 -13.332300 -27.415600
H -29.943300 -12.187400 -28.249900
50
Fragment
H -38.717800 -12.127200 -26.552300
H -38.442800 -12.805100 -27.882600
N -38.184000 -12.353100 -27.227500
C -36.853700 -12.237300 -27.038800
N -36.462500 -11.603700 -25.936900
H -36.333200 -13.113900 -28.662000
N -36.037100 -12.732800 -27.967500
H -35.306100 -10.824100 -24.010300
H -35.187700 -12.624300 -27.878300
N -35.069600 -11.527000 -25.831000
C -34.683100 -11.078400 -24.693300
H -33.314800 -8.715000 -21.599900
C -33.281400 -10.929700 -24.333200
N -33.112700 -10.455000 -23.137500
N -32.719800 -8.987100 -21.043900
H -32.539700 -8.413700 -20.385300
H -32.505400 -11.592400 -26.089600
C -32.193800 -11.328000 -25.272500
N -31.802000 -10.428000 -22.679300
C -31.714000 -9.733100 -21.562200
H -31.686300 -12.104600 -24.925600
H -31.497300 -10.718600 -25.295800
N -30.542000 -9.765500 -20.888300
H -30.437700 -9.264900 -20.185700
H -29.943300 -10.409800 -21.020100
H -38.717800 -10.470000 -33.782200
H -38.442800 -9.792100 -35.112500
N -38.184000 -10.244100 -34.457300
C -36.853700 -10.359900 -34.268600
N -36.462500 -10.993500 -33.166800
H -36.333200 -9.483300 -35.891900
N -36.037100 -9.864400 -35.197400
H -35.306100 -11.773100 -31.240200
H -35.187700 -9.972900 -35.108200
N -35.069600 -11.070200 -33.060800
C -34.683100 -11.518800 -31.923100
H -33.314800 -13.882200 -28.829700
C -33.281400 -11.667500 -31.563100
N -33.112700 -12.142200 -30.367400
N -32.719800 -13.610100 -28.273800
H -32.539700 -14.183500 -27.615100
H -32.505400 -11.004800 -33.319500
C -32.193800 -11.269200 -32.502400
N -31.802000 -12.169200 -29.909200
C -31.714000 -12.864100 -28.792000
H -31.686300 -10.492600 -32.155500
H -31.497300 -11.878600 -32.525600
N -30.542000 -12.831700 -28.118200
H -30.437700 -13.332300 -27.415600
H -29.943300 -12.187400 -28.249900
