25
Fragment
H -38.717800 -12.127200 -26.552300
H -38.442800 -12.805100 -27.882600
N -38.184000 -12.353100 -27.227500
C -36.853700 -12.237300 -27.038800
N -36.462500 -11.603700 -25.936900
H -36.333200 -13.113900 -28.662000
N -36.037100 -12.732800 -27.967500
H -35.306100 -10.824100 -24.010300
H -35.187700 -12.624300 -27.878300
N -35.069600 -11.527000 -25.831000
C -34.683100 -11.078400 -24.693300
H -33.314800 -8.715000 -21.599900
C -33.281400 -10.929700 -24.333200
N -33.112700 -10.455000 -23.137500
N -32.719800 -8.987100 -21.043900
H -32.539700 -8.413700 -20.385300
H -32.505400 -11.592400 -26.089600
C -32.193800 -11.328000 -25.272500
N -31.802000 -10.428000 -22.679300
C -31.714000 -9.733100 -21.562200
H -31.686300 -12.104600 -24.925600
H -31.497300 -10.718600 -25.295800
N -30.542000 -9.765500 -20.888300
H -30.437700 -9.264900 -20.185700
H -29.943300 -10.409800 -21.020100
25
Fragment
H -46.423100 -10.409800 -29.588900
H -45.928700 -9.264900 -30.423200
N -45.824400 -9.765500 -29.720600
H -44.869100 -10.718600 -25.313200
H -44.680100 -12.104600 -25.683300
C -44.652400 -9.733100 -29.046800
N -44.564400 -10.428000 -27.929600
C -44.172600 -11.328000 -25.336400
H -43.861000 -11.592400 -24.519300
H -43.826700 -8.413700 -30.223700
N -43.646600 -8.987100 -29.565000
N -43.253700 -10.455000 -27.471400
C -43.085000 -10.929700 -26.275700
H -43.051600 -8.715000 -29.009100
C -41.683300 -11.078400 -25.915700
N -41.296800 -11.527000 -24.778000
H -41.178700 -12.624300 -22.730600
H -41.060300 -10.824100 -26.598600
N -40.329300 -12.732800 -22.641400
H -40.033200 -13.113900 -21.946900
N -39.903900 -11.603700 -24.672000
C -39.512700 -12.237300 -23.570200
N -38.182400 -12.353100 -23.381500
H -37.923600 -12.805100 -22.726300
H -37.648600 -12.127200 -24.056600
50
Fragment
H -38.717800 -12.127200 -26.552300
H -38.442800 -12.805100 -27.882600
N -38.184000 -12.353100 -27.227500
C -36.853700 -12.237300 -27.038800
N -36.462500 -11.603700 -25.936900
H -36.333200 -13.113900 -28.662000
N -36.037100 -12.732800 -27.967500
H -35.306100 -10.824100 -24.010300
H -35.187700 -12.624300 -27.878300
N -35.069600 -11.527000 -25.831000
C -34.683100 -11.078400 -24.693300
H -33.314800 -8.715000 -21.599900
C -33.281400 -10.929700 -24.333200
N -33.112700 -10.455000 -23.137500
N -32.719800 -8.987100 -21.043900
H -32.539700 -8.413700 -20.385300
H -32.505400 -11.592400 -26.089600
C -32.193800 -11.328000 -25.272500
N -31.802000 -10.428000 -22.679300
C -31.714000 -9.733100 -21.562200
H -31.686300 -12.104600 -24.925600
H -31.497300 -10.718600 -25.295800
N -30.542000 -9.765500 -20.888300
H -30.437700 -9.264900 -20.185700
H -29.943300 -10.409800 -21.020100
H -46.423100 -10.409800 -29.588900
H -45.928700 -9.264900 -30.423200
N -45.824400 -9.765500 -29.720600
H -44.869100 -10.718600 -25.313200
H -44.680100 -12.104600 -25.683300
C -44.652400 -9.733100 -29.046800
N -44.564400 -10.428000 -27.929600
C -44.172600 -11.328000 -25.336400
H -43.861000 -11.592400 -24.519300
H -43.826700 -8.413700 -30.223700
N -43.646600 -8.987100 -29.565000
N -43.253700 -10.455000 -27.471400
C -43.085000 -10.929700 -26.275700
H -43.051600 -8.715000 -29.009100
C -41.683300 -11.078400 -25.915700
N -41.296800 -11.527000 -24.778000
H -41.178700 -12.624300 -22.730600
H -41.060300 -10.824100 -26.598600
N -40.329300 -12.732800 -22.641400
H -40.033200 -13.113900 -21.946900
N -39.903900 -11.603700 -24.672000
C -39.512700 -12.237300 -23.570200
N -38.182400 -12.353100 -23.381500
H -37.923600 -12.805100 -22.726300
H -37.648600 -12.127200 -24.056600
