25
Fragment
H -38.717800 -12.127200 -26.552300
H -38.442800 -12.805100 -27.882600
N -38.184000 -12.353100 -27.227500
C -36.853700 -12.237300 -27.038800
N -36.462500 -11.603700 -25.936900
H -36.333200 -13.113900 -28.662000
N -36.037100 -12.732800 -27.967500
H -35.306100 -10.824100 -24.010300
H -35.187700 -12.624300 -27.878300
N -35.069600 -11.527000 -25.831000
C -34.683100 -11.078400 -24.693300
H -33.314800 -8.715000 -21.599900
C -33.281400 -10.929700 -24.333200
N -33.112700 -10.455000 -23.137500
N -32.719800 -8.987100 -21.043900
H -32.539700 -8.413700 -20.385300
H -32.505400 -11.592400 -26.089600
C -32.193800 -11.328000 -25.272500
N -31.802000 -10.428000 -22.679300
C -31.714000 -9.733100 -21.562200
H -31.686300 -12.104600 -24.925600
H -31.497300 -10.718600 -25.295800
N -30.542000 -9.765500 -20.888300
H -30.437700 -9.264900 -20.185700
H -29.943300 -10.409800 -21.020100
25
Fragment
H -36.877300 -14.176000 -21.020100
H -36.382900 -13.031100 -20.185700
N -36.278600 -13.531700 -20.888300
H -35.323300 -14.484800 -25.295800
H -35.134300 -15.870800 -24.925600
C -35.106600 -13.499300 -21.562200
N -35.018600 -14.194200 -22.679300
C -34.626800 -15.094200 -25.272500
H -34.315200 -15.358600 -26.089600
H -34.280900 -12.179900 -20.385300
N -34.100800 -12.753300 -21.043900
N -33.707900 -14.221200 -23.137500
C -33.539200 -14.695900 -24.333200
H -33.505800 -12.481200 -21.599900
C -32.137500 -14.844600 -24.693300
N -31.751000 -15.293200 -25.831000
H -31.632900 -16.390500 -27.878300
H -31.514500 -14.590300 -24.010300
N -30.783500 -16.499000 -27.967500
H -30.487400 -16.880100 -28.662000
N -30.358100 -15.369900 -25.936900
C -29.966900 -16.003500 -27.038800
N -28.636600 -16.119300 -27.227500
H -28.377800 -16.571300 -27.882600
H -28.102800 -15.893400 -26.552300
50
Fragment
H -38.717800 -12.127200 -26.552300
H -38.442800 -12.805100 -27.882600
N -38.184000 -12.353100 -27.227500
C -36.853700 -12.237300 -27.038800
N -36.462500 -11.603700 -25.936900
H -36.333200 -13.113900 -28.662000
N -36.037100 -12.732800 -27.967500
H -35.306100 -10.824100 -24.010300
H -35.187700 -12.624300 -27.878300
N -35.069600 -11.527000 -25.831000
C -34.683100 -11.078400 -24.693300
H -33.314800 -8.715000 -21.599900
C -33.281400 -10.929700 -24.333200
N -33.112700 -10.455000 -23.137500
N -32.719800 -8.987100 -21.043900
H -32.539700 -8.413700 -20.385300
H -32.505400 -11.592400 -26.089600
C -32.193800 -11.328000 -25.272500
N -31.802000 -10.428000 -22.679300
C -31.714000 -9.733100 -21.562200
H -31.686300 -12.104600 -24.925600
H -31.497300 -10.718600 -25.295800
N -30.542000 -9.765500 -20.888300
H -30.437700 -9.264900 -20.185700
H -29.943300 -10.409800 -21.020100
H -36.877300 -14.176000 -21.020100
H -36.382900 -13.031100 -20.185700
N -36.278600 -13.531700 -20.888300
H -35.323300 -14.484800 -25.295800
H -35.134300 -15.870800 -24.925600
C -35.106600 -13.499300 -21.562200
N -35.018600 -14.194200 -22.679300
C -34.626800 -15.094200 -25.272500
H -34.315200 -15.358600 -26.089600
H -34.280900 -12.179900 -20.385300
N -34.100800 -12.753300 -21.043900
N -33.707900 -14.221200 -23.137500
C -33.539200 -14.695900 -24.333200
H -33.505800 -12.481200 -21.599900
C -32.137500 -14.844600 -24.693300
N -31.751000 -15.293200 -25.831000
H -31.632900 -16.390500 -27.878300
H -31.514500 -14.590300 -24.010300
N -30.783500 -16.499000 -27.967500
H -30.487400 -16.880100 -28.662000
N -30.358100 -15.369900 -25.936900
C -29.966900 -16.003500 -27.038800
N -28.636600 -16.119300 -27.227500
H -28.377800 -16.571300 -27.882600
H -28.102800 -15.893400 -26.552300
