8
Fragment
H -8.600200 -9.143300 -14.014600
H -8.592300 -7.952700 -13.170700
N -8.173900 -8.598700 -13.439000
C -6.981000 -9.015500 -13.047400
H -6.740200 -7.555100 -11.843500
O -6.470200 -10.061900 -13.492400
N -6.300100 -8.284000 -12.153000
H -5.410800 -8.486200 -11.800300
12
Fragment
H -4.843800 -10.718900 -12.929100
O -4.615100 -12.760800 -14.288000
N -4.153200 -11.126200 -12.831700
C -3.864200 -12.287000 -13.462100
O -3.687200 -9.524600 -11.296800
C -3.363600 -10.532900 -11.873100
N -2.683700 -12.879600 -13.097100
H -2.571600 -13.615400 -13.365400
N -2.176000 -11.179700 -11.609100
C -1.778000 -12.354100 -12.213600
H -1.524500 -10.675000 -10.809200
O -0.709600 -12.878400 -11.966900
20
Fragment
H -8.600200 -9.143300 -14.014600
H -8.592300 -7.952700 -13.170700
N -8.173900 -8.598700 -13.439000
C -6.981000 -9.015500 -13.047400
H -6.740200 -7.555100 -11.843500
O -6.470200 -10.061900 -13.492400
N -6.300100 -8.284000 -12.153000
H -5.410800 -8.486200 -11.800300
H -4.843800 -10.718900 -12.929100
O -4.615100 -12.760800 -14.288000
N -4.153200 -11.126200 -12.831700
C -3.864200 -12.287000 -13.462100
O -3.687200 -9.524600 -11.296800
C -3.363600 -10.532900 -11.873100
N -2.683700 -12.879600 -13.097100
H -2.571600 -13.615400 -13.365400
N -2.176000 -11.179700 -11.609100
C -1.778000 -12.354100 -12.213600
H -1.524500 -10.675000 -10.809200
O -0.709600 -12.878400 -11.966900
