8
Fragment
H -8.600200 -9.143300 -14.014600
H -8.592300 -7.952700 -13.170700
N -8.173900 -8.598700 -13.439000
C -6.981000 -9.015500 -13.047400
H -6.740200 -7.555100 -11.843500
O -6.470200 -10.061900 -13.492400
N -6.300100 -8.284000 -12.153000
H -5.410800 -8.486200 -11.800300
12
Fragment
H -6.278900 -3.537900 -12.929100
O -6.050300 -5.579900 -14.288000
N -5.588400 -3.945200 -12.831700
C -5.299400 -5.106000 -13.462100
O -5.122400 -2.343600 -11.296800
C -4.798700 -3.351900 -11.873100
N -4.118800 -5.698600 -13.097100
H -4.006800 -6.434400 -13.365400
N -3.611200 -3.998700 -11.609100
C -3.213200 -5.173100 -12.213600
H -2.959600 -3.494000 -10.809200
O -2.144700 -5.697400 -11.966900
20
Fragment
H -8.600200 -9.143300 -14.014600
H -8.592300 -7.952700 -13.170700
N -8.173900 -8.598700 -13.439000
C -6.981000 -9.015500 -13.047400
H -6.740200 -7.555100 -11.843500
O -6.470200 -10.061900 -13.492400
N -6.300100 -8.284000 -12.153000
H -5.410800 -8.486200 -11.800300
H -6.278900 -3.537900 -12.929100
O -6.050300 -5.579900 -14.288000
N -5.588400 -3.945200 -12.831700
C -5.299400 -5.106000 -13.462100
O -5.122400 -2.343600 -11.296800
C -4.798700 -3.351900 -11.873100
N -4.118800 -5.698600 -13.097100
H -4.006800 -6.434400 -13.365400
N -3.611200 -3.998700 -11.609100
C -3.213200 -5.173100 -12.213600
H -2.959600 -3.494000 -10.809200
O -2.144700 -5.697400 -11.966900
