8
Fragment
H -8.600200 -9.143300 -14.014600
H -8.592300 -7.952700 -13.170700
N -8.173900 -8.598700 -13.439000
C -6.981000 -9.015500 -13.047400
H -6.740200 -7.555100 -11.843500
O -6.470200 -10.061900 -13.492400
N -6.300100 -8.284000 -12.153000
H -5.410800 -8.486200 -11.800300
12
Fragment
O -7.735700 -9.916700 -9.671700
H -6.920800 -12.120000 -10.829400
C -6.667300 -10.441000 -9.425100
N -6.269200 -11.615400 -10.029500
H -5.873700 -9.179700 -8.273200
N -5.761600 -9.915500 -8.541500
C -5.081700 -12.262200 -9.765500
O -4.758000 -13.270500 -10.341800
C -4.581100 -10.508100 -8.176500
N -4.292100 -11.668900 -8.806900
O -3.830100 -10.034200 -7.350600
H -3.601500 -12.076100 -8.709500
20
Fragment
H -8.600200 -9.143300 -14.014600
H -8.592300 -7.952700 -13.170700
N -8.173900 -8.598700 -13.439000
C -6.981000 -9.015500 -13.047400
H -6.740200 -7.555100 -11.843500
O -6.470200 -10.061900 -13.492400
N -6.300100 -8.284000 -12.153000
H -5.410800 -8.486200 -11.800300
O -7.735700 -9.916700 -9.671700
H -6.920800 -12.120000 -10.829400
C -6.667300 -10.441000 -9.425100
N -6.269200 -11.615400 -10.029500
H -5.873700 -9.179700 -8.273200
N -5.761600 -9.915500 -8.541500
C -5.081700 -12.262200 -9.765500
O -4.758000 -13.270500 -10.341800
C -4.581100 -10.508100 -8.176500
N -4.292100 -11.668900 -8.806900
O -3.830100 -10.034200 -7.350600
H -3.601500 -12.076100 -8.709500
