8
Fragment
H -8.600200 -9.143300 -14.014600
H -8.592300 -7.952700 -13.170700
N -8.173900 -8.598700 -13.439000
C -6.981000 -9.015500 -13.047400
H -6.740200 -7.555100 -11.843500
O -6.470200 -10.061900 -13.492400
N -6.300100 -8.284000 -12.153000
H -5.410800 -8.486200 -11.800300
8
Fragment
H -10.181500 -12.332600 -17.051200
N -9.292200 -12.534800 -16.698500
O -9.122100 -10.756900 -15.359100
H -8.852100 -13.263600 -17.007900
C -8.611300 -11.803300 -15.804100
N -7.418400 -12.220100 -15.412500
H -7.000000 -12.866100 -15.680800
H -6.992100 -11.675500 -14.836900
16
Fragment
H -8.600200 -9.143300 -14.014600
H -8.592300 -7.952700 -13.170700
N -8.173900 -8.598700 -13.439000
C -6.981000 -9.015500 -13.047400
H -6.740200 -7.555100 -11.843500
O -6.470200 -10.061900 -13.492400
N -6.300100 -8.284000 -12.153000
H -5.410800 -8.486200 -11.800300
H -10.181500 -12.332600 -17.051200
N -9.292200 -12.534800 -16.698500
O -9.122100 -10.756900 -15.359100
H -8.852100 -13.263600 -17.007900
C -8.611300 -11.803300 -15.804100
N -7.418400 -12.220100 -15.412500
H -7.000000 -12.866100 -15.680800
H -6.992100 -11.675500 -14.836900
