8
Fragment
H -8.600200 -9.143300 -14.014600
H -8.592300 -7.952700 -13.170700
N -8.173900 -8.598700 -13.439000
C -6.981000 -9.015500 -13.047400
H -6.740200 -7.555100 -11.843500
O -6.470200 -10.061900 -13.492400
N -6.300100 -8.284000 -12.153000
H -5.410800 -8.486200 -11.800300
12
Fragment
O -14.882800 -7.940400 -16.884600
H -14.067800 -10.143800 -18.042300
C -13.814300 -8.464700 -16.637900
N -13.416300 -9.639100 -17.242400
H -13.020700 -7.203400 -15.486000
N -12.908600 -7.939200 -15.754300
C -12.228700 -10.285900 -16.978400
O -11.905100 -11.294200 -17.554700
C -11.728100 -8.531800 -15.389400
N -11.439100 -9.692600 -16.019800
O -10.977200 -8.057900 -14.563500
H -10.748500 -10.099800 -15.922400
20
Fragment
H -8.600200 -9.143300 -14.014600
H -8.592300 -7.952700 -13.170700
N -8.173900 -8.598700 -13.439000
C -6.981000 -9.015500 -13.047400
H -6.740200 -7.555100 -11.843500
O -6.470200 -10.061900 -13.492400
N -6.300100 -8.284000 -12.153000
H -5.410800 -8.486200 -11.800300
O -14.882800 -7.940400 -16.884600
H -14.067800 -10.143800 -18.042300
C -13.814300 -8.464700 -16.637900
N -13.416300 -9.639100 -17.242400
H -13.020700 -7.203400 -15.486000
N -12.908600 -7.939200 -15.754300
C -12.228700 -10.285900 -16.978400
O -11.905100 -11.294200 -17.554700
C -11.728100 -8.531800 -15.389400
N -11.439100 -9.692600 -16.019800
O -10.977200 -8.057900 -14.563500
H -10.748500 -10.099800 -15.922400
