34
Fragment
H -18.784700 -13.999900 -37.400900
N -18.526200 -15.917800 -37.302400
C -18.225200 -14.655000 -37.052700
H -17.884600 -17.715900 -36.941800
C -17.702400 -16.817700 -36.782700
C -17.132800 -14.241900 -36.307000
H -16.973300 -13.336400 -36.166400
C -16.590400 -16.509900 -36.019700
C -16.284300 -15.193500 -35.773900
H -16.054500 -17.188400 -35.676700
C -15.108100 -14.720300 -34.961300
O -14.929000 -13.525300 -34.736500
H -14.399000 -16.546400 -34.642200
N -14.282300 -15.680800 -34.509800
N -13.175600 -15.329000 -33.751900
H -12.654500 -17.162200 -33.710600
C -12.422500 -16.307200 -33.428800
H -11.309500 -14.145500 -32.295000
C -11.209800 -16.133200 -32.632800
C -10.802200 -14.906700 -32.123100
H -10.690000 -18.079800 -32.704600
C -10.424300 -17.251100 -32.375400
C -9.653600 -14.805000 -31.365600
H -9.398600 -13.983200 -31.010900
C -9.256100 -17.157800 -31.640900
C -8.882000 -15.931800 -31.134700
H -8.731800 -17.910400 -31.491000
N -7.683800 -15.825200 -30.366200
H -7.134000 -17.693200 -29.848700
N -7.120800 -14.610300 -30.082700
C -6.948000 -16.783900 -29.791200
C -6.080400 -14.952900 -29.350300
N -5.926900 -16.273500 -29.134700
H -5.489900 -14.323300 -29.004700
34
Fragment
H -16.213700 -8.356700 -37.677200
N -15.776600 -10.307000 -37.547200
C -15.623200 -8.986300 -37.331600
C -14.755600 -10.817400 -36.890700
N -14.582800 -8.643700 -36.599200
H -14.569500 -11.726700 -36.833200
N -14.019800 -9.858600 -36.315700
H -12.971700 -11.943800 -35.190900
C -12.821500 -9.965200 -35.547200
C -12.447500 -11.191200 -35.041000
H -12.304900 -8.016700 -35.671000
C -12.049900 -8.838500 -35.316300
C -11.279300 -11.284500 -34.306500
H -11.013600 -12.113300 -33.977300
C -10.901400 -8.940200 -34.558700
C -10.493800 -10.166600 -34.049100
H -10.394100 -8.178900 -34.386900
C -9.281100 -10.340600 -33.253100
H -9.049000 -11.195600 -32.971300
N -8.528000 -9.362500 -32.930000
N -7.421300 -9.714300 -32.172100
H -7.304600 -10.579900 -32.039700
O -6.774600 -7.558800 -31.945400
C -6.595400 -8.753800 -31.720600
H -5.649100 -11.221900 -31.005200
C -5.419300 -9.226900 -30.908000
C -5.113200 -10.543400 -30.662200
H -4.730300 -7.369900 -30.515500
C -4.570800 -8.275400 -30.374900
C -4.001200 -10.851100 -29.899200
H -3.819000 -11.749300 -29.740100
C -3.478400 -8.688500 -29.629200
N -3.177300 -9.951300 -29.379500
H -2.918900 -8.033400 -29.281000
68
Fragment
H -18.784700 -13.999900 -37.400900
N -18.526200 -15.917800 -37.302400
C -18.225200 -14.655000 -37.052700
H -17.884600 -17.715900 -36.941800
C -17.702400 -16.817700 -36.782700
C -17.132800 -14.241900 -36.307000
H -16.973300 -13.336400 -36.166400
C -16.590400 -16.509900 -36.019700
C -16.284300 -15.193500 -35.773900
H -16.054500 -17.188400 -35.676700
C -15.108100 -14.720300 -34.961300
O -14.929000 -13.525300 -34.736500
H -14.399000 -16.546400 -34.642200
N -14.282300 -15.680800 -34.509800
N -13.175600 -15.329000 -33.751900
H -12.654500 -17.162200 -33.710600
C -12.422500 -16.307200 -33.428800
H -11.309500 -14.145500 -32.295000
C -11.209800 -16.133200 -32.632800
C -10.802200 -14.906700 -32.123100
H -10.690000 -18.079800 -32.704600
C -10.424300 -17.251100 -32.375400
C -9.653600 -14.805000 -31.365600
H -9.398600 -13.983200 -31.010900
C -9.256100 -17.157800 -31.640900
C -8.882000 -15.931800 -31.134700
H -8.731800 -17.910400 -31.491000
N -7.683800 -15.825200 -30.366200
H -7.134000 -17.693200 -29.848700
N -7.120800 -14.610300 -30.082700
C -6.948000 -16.783900 -29.791200
C -6.080400 -14.952900 -29.350300
N -5.926900 -16.273500 -29.134700
H -5.489900 -14.323300 -29.004700
H -16.213700 -8.356700 -37.677200
N -15.776600 -10.307000 -37.547200
C -15.623200 -8.986300 -37.331600
C -14.755600 -10.817400 -36.890700
N -14.582800 -8.643700 -36.599200
H -14.569500 -11.726700 -36.833200
N -14.019800 -9.858600 -36.315700
H -12.971700 -11.943800 -35.190900
C -12.821500 -9.965200 -35.547200
C -12.447500 -11.191200 -35.041000
H -12.304900 -8.016700 -35.671000
C -12.049900 -8.838500 -35.316300
C -11.279300 -11.284500 -34.306500
H -11.013600 -12.113300 -33.977300
C -10.901400 -8.940200 -34.558700
C -10.493800 -10.166600 -34.049100
H -10.394100 -8.178900 -34.386900
C -9.281100 -10.340600 -33.253100
H -9.049000 -11.195600 -32.971300
N -8.528000 -9.362500 -32.930000
N -7.421300 -9.714300 -32.172100
H -7.304600 -10.579900 -32.039700
O -6.774600 -7.558800 -31.945400
C -6.595400 -8.753800 -31.720600
H -5.649100 -11.221900 -31.005200
C -5.419300 -9.226900 -30.908000
C -5.113200 -10.543400 -30.662200
H -4.730300 -7.369900 -30.515500
C -4.570800 -8.275400 -30.374900
C -4.001200 -10.851100 -29.899200
H -3.819000 -11.749300 -29.740100
C -3.478400 -8.688500 -29.629200
N -3.177300 -9.951300 -29.379500
H -2.918900 -8.033400 -29.281000
