34
Fragment
H -18.784700 -13.999900 -37.400900
N -18.526200 -15.917800 -37.302400
C -18.225200 -14.655000 -37.052700
H -17.884600 -17.715900 -36.941800
C -17.702400 -16.817700 -36.782700
C -17.132800 -14.241900 -36.307000
H -16.973300 -13.336400 -36.166400
C -16.590400 -16.509900 -36.019700
C -16.284300 -15.193500 -35.773900
H -16.054500 -17.188400 -35.676700
C -15.108100 -14.720300 -34.961300
O -14.929000 -13.525300 -34.736500
H -14.399000 -16.546400 -34.642200
N -14.282300 -15.680800 -34.509800
N -13.175600 -15.329000 -33.751900
H -12.654500 -17.162200 -33.710600
C -12.422500 -16.307200 -33.428800
H -11.309500 -14.145500 -32.295000
C -11.209800 -16.133200 -32.632800
C -10.802200 -14.906700 -32.123100
H -10.690000 -18.079800 -32.704600
C -10.424300 -17.251100 -32.375400
C -9.653600 -14.805000 -31.365600
H -9.398600 -13.983200 -31.010900
C -9.256100 -17.157800 -31.640900
C -8.882000 -15.931800 -31.134700
H -8.731800 -17.910400 -31.491000
N -7.683800 -15.825200 -30.366200
H -7.134000 -17.693200 -29.848700
N -7.120800 -14.610300 -30.082700
C -6.948000 -16.783900 -29.791200
C -6.080400 -14.952900 -29.350300
N -5.926900 -16.273500 -29.134700
H -5.489900 -14.323300 -29.004700
34
Fragment
H -12.252400 -13.999900 -37.400900
N -11.993900 -15.917800 -37.302400
C -11.692900 -14.655000 -37.052700
H -11.352300 -17.715900 -36.941800
C -11.170100 -16.817700 -36.782700
C -10.600500 -14.241900 -36.307000
H -10.441000 -13.336400 -36.166400
C -10.058100 -16.509900 -36.019700
C -9.752000 -15.193500 -35.773900
H -9.522200 -17.188400 -35.676700
C -8.575800 -14.720300 -34.961300
O -8.396700 -13.525300 -34.736500
H -7.866700 -16.546400 -34.642200
N -7.750000 -15.680800 -34.509800
N -6.643300 -15.329000 -33.751900
H -6.122200 -17.162200 -33.710600
C -5.890200 -16.307200 -33.428800
H -4.777200 -14.145500 -32.295000
C -4.677500 -16.133200 -32.632800
C -4.269900 -14.906700 -32.123100
H -4.157700 -18.079800 -32.704600
C -3.892000 -17.251100 -32.375400
C -3.121300 -14.805000 -31.365600
H -2.866300 -13.983200 -31.010900
C -2.723800 -17.157800 -31.640900
C -2.349700 -15.931800 -31.134700
H -2.199500 -17.910400 -31.491000
N -1.151500 -15.825200 -30.366200
H -0.601700 -17.693200 -29.848700
N -0.588500 -14.610300 -30.082700
C -0.415700 -16.783900 -29.791200
C 0.451900 -14.952900 -29.350300
N 0.605400 -16.273500 -29.134700
H 1.042400 -14.323300 -29.004700
68
Fragment
H -18.784700 -13.999900 -37.400900
N -18.526200 -15.917800 -37.302400
C -18.225200 -14.655000 -37.052700
H -17.884600 -17.715900 -36.941800
C -17.702400 -16.817700 -36.782700
C -17.132800 -14.241900 -36.307000
H -16.973300 -13.336400 -36.166400
C -16.590400 -16.509900 -36.019700
C -16.284300 -15.193500 -35.773900
H -16.054500 -17.188400 -35.676700
C -15.108100 -14.720300 -34.961300
O -14.929000 -13.525300 -34.736500
H -14.399000 -16.546400 -34.642200
N -14.282300 -15.680800 -34.509800
N -13.175600 -15.329000 -33.751900
H -12.654500 -17.162200 -33.710600
C -12.422500 -16.307200 -33.428800
H -11.309500 -14.145500 -32.295000
C -11.209800 -16.133200 -32.632800
C -10.802200 -14.906700 -32.123100
H -10.690000 -18.079800 -32.704600
C -10.424300 -17.251100 -32.375400
C -9.653600 -14.805000 -31.365600
H -9.398600 -13.983200 -31.010900
C -9.256100 -17.157800 -31.640900
C -8.882000 -15.931800 -31.134700
H -8.731800 -17.910400 -31.491000
N -7.683800 -15.825200 -30.366200
H -7.134000 -17.693200 -29.848700
N -7.120800 -14.610300 -30.082700
C -6.948000 -16.783900 -29.791200
C -6.080400 -14.952900 -29.350300
N -5.926900 -16.273500 -29.134700
H -5.489900 -14.323300 -29.004700
H -12.252400 -13.999900 -37.400900
N -11.993900 -15.917800 -37.302400
C -11.692900 -14.655000 -37.052700
H -11.352300 -17.715900 -36.941800
C -11.170100 -16.817700 -36.782700
C -10.600500 -14.241900 -36.307000
H -10.441000 -13.336400 -36.166400
C -10.058100 -16.509900 -36.019700
C -9.752000 -15.193500 -35.773900
H -9.522200 -17.188400 -35.676700
C -8.575800 -14.720300 -34.961300
O -8.396700 -13.525300 -34.736500
H -7.866700 -16.546400 -34.642200
N -7.750000 -15.680800 -34.509800
N -6.643300 -15.329000 -33.751900
H -6.122200 -17.162200 -33.710600
C -5.890200 -16.307200 -33.428800
H -4.777200 -14.145500 -32.295000
C -4.677500 -16.133200 -32.632800
C -4.269900 -14.906700 -32.123100
H -4.157700 -18.079800 -32.704600
C -3.892000 -17.251100 -32.375400
C -3.121300 -14.805000 -31.365600
H -2.866300 -13.983200 -31.010900
C -2.723800 -17.157800 -31.640900
C -2.349700 -15.931800 -31.134700
H -2.199500 -17.910400 -31.491000
N -1.151500 -15.825200 -30.366200
H -0.601700 -17.693200 -29.848700
N -0.588500 -14.610300 -30.082700
C -0.415700 -16.783900 -29.791200
C 0.451900 -14.952900 -29.350300
N 0.605400 -16.273500 -29.134700
H 1.042400 -14.323300 -29.004700
