34
Fragment
H -18.784700 -13.999900 -37.400900
N -18.526200 -15.917800 -37.302400
C -18.225200 -14.655000 -37.052700
H -17.884600 -17.715900 -36.941800
C -17.702400 -16.817700 -36.782700
C -17.132800 -14.241900 -36.307000
H -16.973300 -13.336400 -36.166400
C -16.590400 -16.509900 -36.019700
C -16.284300 -15.193500 -35.773900
H -16.054500 -17.188400 -35.676700
C -15.108100 -14.720300 -34.961300
O -14.929000 -13.525300 -34.736500
H -14.399000 -16.546400 -34.642200
N -14.282300 -15.680800 -34.509800
N -13.175600 -15.329000 -33.751900
H -12.654500 -17.162200 -33.710600
C -12.422500 -16.307200 -33.428800
H -11.309500 -14.145500 -32.295000
C -11.209800 -16.133200 -32.632800
C -10.802200 -14.906700 -32.123100
H -10.690000 -18.079800 -32.704600
C -10.424300 -17.251100 -32.375400
C -9.653600 -14.805000 -31.365600
H -9.398600 -13.983200 -31.010900
C -9.256100 -17.157800 -31.640900
C -8.882000 -15.931800 -31.134700
H -8.731800 -17.910400 -31.491000
N -7.683800 -15.825200 -30.366200
H -7.134000 -17.693200 -29.848700
N -7.120800 -14.610300 -30.082700
C -6.948000 -16.783900 -29.791200
C -6.080400 -14.952900 -29.350300
N -5.926900 -16.273500 -29.134700
H -5.489900 -14.323300 -29.004700
34
Fragment
H -7.514100 -21.476000 -28.151200
N -7.077000 -19.525800 -28.021300
C -6.923600 -20.846400 -27.805600
C -6.056000 -19.015400 -27.364700
N -5.883200 -21.189000 -27.073200
H -5.869900 -18.106100 -27.307200
N -5.320100 -19.974100 -26.789700
H -4.272100 -17.888900 -25.664900
C -4.121900 -19.867500 -26.021200
C -3.747900 -18.641500 -25.515000
H -3.605300 -21.816100 -26.145000
C -3.350300 -20.994300 -25.790300
C -2.579700 -18.548200 -24.780500
H -2.313900 -17.719500 -24.451300
C -2.201800 -20.892600 -25.032800
C -1.794200 -19.666100 -24.523100
H -1.694400 -21.653800 -24.860900
C -0.581500 -19.492100 -23.727100
H -0.349400 -18.637100 -23.445400
N 0.171700 -20.470300 -23.404000
N 1.278300 -20.118500 -22.646100
H 1.395000 -19.252900 -22.513700
O 1.925000 -22.274000 -22.419400
C 2.104200 -21.079000 -22.194600
H 3.050500 -18.610900 -21.479200
C 3.280300 -20.605800 -21.382000
C 3.586500 -19.289400 -21.136300
H 3.969300 -22.462900 -20.989600
C 4.128800 -21.557400 -20.849000
C 4.698400 -18.981600 -20.373200
H 4.880600 -18.083400 -20.214100
C 5.221200 -21.144300 -20.103300
N 5.522300 -19.881500 -19.853500
H 5.780700 -21.799400 -19.755000
68
Fragment
H -18.784700 -13.999900 -37.400900
N -18.526200 -15.917800 -37.302400
C -18.225200 -14.655000 -37.052700
H -17.884600 -17.715900 -36.941800
C -17.702400 -16.817700 -36.782700
C -17.132800 -14.241900 -36.307000
H -16.973300 -13.336400 -36.166400
C -16.590400 -16.509900 -36.019700
C -16.284300 -15.193500 -35.773900
H -16.054500 -17.188400 -35.676700
C -15.108100 -14.720300 -34.961300
O -14.929000 -13.525300 -34.736500
H -14.399000 -16.546400 -34.642200
N -14.282300 -15.680800 -34.509800
N -13.175600 -15.329000 -33.751900
H -12.654500 -17.162200 -33.710600
C -12.422500 -16.307200 -33.428800
H -11.309500 -14.145500 -32.295000
C -11.209800 -16.133200 -32.632800
C -10.802200 -14.906700 -32.123100
H -10.690000 -18.079800 -32.704600
C -10.424300 -17.251100 -32.375400
C -9.653600 -14.805000 -31.365600
H -9.398600 -13.983200 -31.010900
C -9.256100 -17.157800 -31.640900
C -8.882000 -15.931800 -31.134700
H -8.731800 -17.910400 -31.491000
N -7.683800 -15.825200 -30.366200
H -7.134000 -17.693200 -29.848700
N -7.120800 -14.610300 -30.082700
C -6.948000 -16.783900 -29.791200
C -6.080400 -14.952900 -29.350300
N -5.926900 -16.273500 -29.134700
H -5.489900 -14.323300 -29.004700
H -7.514100 -21.476000 -28.151200
N -7.077000 -19.525800 -28.021300
C -6.923600 -20.846400 -27.805600
C -6.056000 -19.015400 -27.364700
N -5.883200 -21.189000 -27.073200
H -5.869900 -18.106100 -27.307200
N -5.320100 -19.974100 -26.789700
H -4.272100 -17.888900 -25.664900
C -4.121900 -19.867500 -26.021200
C -3.747900 -18.641500 -25.515000
H -3.605300 -21.816100 -26.145000
C -3.350300 -20.994300 -25.790300
C -2.579700 -18.548200 -24.780500
H -2.313900 -17.719500 -24.451300
C -2.201800 -20.892600 -25.032800
C -1.794200 -19.666100 -24.523100
H -1.694400 -21.653800 -24.860900
C -0.581500 -19.492100 -23.727100
H -0.349400 -18.637100 -23.445400
N 0.171700 -20.470300 -23.404000
N 1.278300 -20.118500 -22.646100
H 1.395000 -19.252900 -22.513700
O 1.925000 -22.274000 -22.419400
C 2.104200 -21.079000 -22.194600
H 3.050500 -18.610900 -21.479200
C 3.280300 -20.605800 -21.382000
C 3.586500 -19.289400 -21.136300
H 3.969300 -22.462900 -20.989600
C 4.128800 -21.557400 -20.849000
C 4.698400 -18.981600 -20.373200
H 4.880600 -18.083400 -20.214100
C 5.221200 -21.144300 -20.103300
N 5.522300 -19.881500 -19.853500
H 5.780700 -21.799400 -19.755000
