23
Fragment
Br -10.767900 -30.944100 -18.128200
H -9.545500 -30.409500 -20.838000
H -9.390700 -29.677500 -15.862400
C -9.381300 -29.705200 -18.378800
N -9.058600 -28.955300 -16.035100
N -8.962300 -29.877300 -20.799000
C -8.766700 -29.398500 -19.548000
C -8.760500 -28.953400 -17.361600
H -8.559000 -28.431000 -15.368700
H -8.497100 -29.519200 -21.578500
N -7.820600 -28.440900 -19.237500
N -7.801500 -28.160000 -17.861700
H -7.021200 -28.023700 -21.021100
C -6.997400 -27.764300 -20.106600
C -6.175300 -26.784900 -19.774000
H -6.129800 -26.495500 -18.870500
O -5.342900 -26.395200 -21.969600
C -5.341900 -26.143900 -20.774400
O -4.580900 -25.162600 -20.243000
H -4.287700 -24.018400 -21.858200
C -3.734000 -24.430500 -21.162800
H -3.249300 -23.732900 -20.674500
H -3.093600 -25.045600 -21.576200
23
Fragment
Br -10.048700 -33.094000 -25.425000
H -8.642000 -32.249600 -22.877700
H -8.618900 -32.506800 -28.048200
C -8.297900 -32.427600 -25.473300
N -7.928000 -32.227800 -27.930000
N -7.752000 -32.261400 -23.043900
C -7.573400 -32.202100 -26.601000
C -7.461500 -32.126900 -24.360000
H -7.314700 -32.427600 -28.489900
H -7.293000 -32.012100 -22.436000
N -6.335700 -31.784600 -26.173500
N -6.249600 -31.752900 -24.775700
H -5.443600 -31.369300 -27.893500
C -5.298500 -31.371100 -26.954300
C -4.096700 -30.967500 -26.528200
H -3.888600 -30.941200 -25.601400
O -3.322000 -30.575700 -28.730200
C -3.106400 -30.567800 -27.542800
O -1.947800 -30.197800 -26.981600
H -1.144800 -29.059400 -28.428700
C -0.885200 -29.853600 -27.915700
H -0.733800 -30.602600 -28.529400
H -0.060800 -29.666200 -27.419700
46
Fragment
Br -10.767900 -30.944100 -18.128200
H -9.545500 -30.409500 -20.838000
H -9.390700 -29.677500 -15.862400
C -9.381300 -29.705200 -18.378800
N -9.058600 -28.955300 -16.035100
N -8.962300 -29.877300 -20.799000
C -8.766700 -29.398500 -19.548000
C -8.760500 -28.953400 -17.361600
H -8.559000 -28.431000 -15.368700
H -8.497100 -29.519200 -21.578500
N -7.820600 -28.440900 -19.237500
N -7.801500 -28.160000 -17.861700
H -7.021200 -28.023700 -21.021100
C -6.997400 -27.764300 -20.106600
C -6.175300 -26.784900 -19.774000
H -6.129800 -26.495500 -18.870500
O -5.342900 -26.395200 -21.969600
C -5.341900 -26.143900 -20.774400
O -4.580900 -25.162600 -20.243000
H -4.287700 -24.018400 -21.858200
C -3.734000 -24.430500 -21.162800
H -3.249300 -23.732900 -20.674500
H -3.093600 -25.045600 -21.576200
Br -10.048700 -33.094000 -25.425000
H -8.642000 -32.249600 -22.877700
H -8.618900 -32.506800 -28.048200
C -8.297900 -32.427600 -25.473300
N -7.928000 -32.227800 -27.930000
N -7.752000 -32.261400 -23.043900
C -7.573400 -32.202100 -26.601000
C -7.461500 -32.126900 -24.360000
H -7.314700 -32.427600 -28.489900
H -7.293000 -32.012100 -22.436000
N -6.335700 -31.784600 -26.173500
N -6.249600 -31.752900 -24.775700
H -5.443600 -31.369300 -27.893500
C -5.298500 -31.371100 -26.954300
C -4.096700 -30.967500 -26.528200
H -3.888600 -30.941200 -25.601400
O -3.322000 -30.575700 -28.730200
C -3.106400 -30.567800 -27.542800
O -1.947800 -30.197800 -26.981600
H -1.144800 -29.059400 -28.428700
C -0.885200 -29.853600 -27.915700
H -0.733800 -30.602600 -28.529400
H -0.060800 -29.666200 -27.419700
