23
Fragment
Br -10.767900 -30.944100 -18.128200
H -9.545500 -30.409500 -20.838000
H -9.390700 -29.677500 -15.862400
C -9.381300 -29.705200 -18.378800
N -9.058600 -28.955300 -16.035100
N -8.962300 -29.877300 -20.799000
C -8.766700 -29.398500 -19.548000
C -8.760500 -28.953400 -17.361600
H -8.559000 -28.431000 -15.368700
H -8.497100 -29.519200 -21.578500
N -7.820600 -28.440900 -19.237500
N -7.801500 -28.160000 -17.861700
H -7.021200 -28.023700 -21.021100
C -6.997400 -27.764300 -20.106600
C -6.175300 -26.784900 -19.774000
H -6.129800 -26.495500 -18.870500
O -5.342900 -26.395200 -21.969600
C -5.341900 -26.143900 -20.774400
O -4.580900 -25.162600 -20.243000
H -4.287700 -24.018400 -21.858200
C -3.734000 -24.430500 -21.162800
H -3.249300 -23.732900 -20.674500
H -3.093600 -25.045600 -21.576200
23
Fragment
H -11.218600 -29.688800 -24.545500
H -10.545700 -28.752400 -23.435800
C -10.394300 -29.501400 -24.049500
H -10.134700 -30.295600 -23.536400
O -9.331700 -29.157200 -24.983500
C -8.173000 -28.787200 -24.422300
O -7.957400 -28.779300 -23.234900
H -7.390800 -28.413800 -26.363700
C -7.182700 -28.387500 -25.436900
C -5.981000 -27.983900 -25.010800
H -5.835800 -27.985700 -24.071700
N -5.029900 -27.602100 -27.189500
N -4.943800 -27.570400 -25.791600
H -3.986500 -27.342900 -29.529200
H -3.964700 -26.927400 -23.475300
C -3.818000 -27.228100 -27.605200
C -3.706000 -27.152900 -25.364200
N -3.527500 -27.093600 -28.921200
N -3.351500 -27.127200 -24.035200
C -2.981600 -26.927400 -26.491800
H -2.660600 -26.848200 -23.917000
H -2.637400 -27.105400 -29.087500
Br -1.230800 -26.261000 -26.540200
46
Fragment
Br -10.767900 -30.944100 -18.128200
H -9.545500 -30.409500 -20.838000
H -9.390700 -29.677500 -15.862400
C -9.381300 -29.705200 -18.378800
N -9.058600 -28.955300 -16.035100
N -8.962300 -29.877300 -20.799000
C -8.766700 -29.398500 -19.548000
C -8.760500 -28.953400 -17.361600
H -8.559000 -28.431000 -15.368700
H -8.497100 -29.519200 -21.578500
N -7.820600 -28.440900 -19.237500
N -7.801500 -28.160000 -17.861700
H -7.021200 -28.023700 -21.021100
C -6.997400 -27.764300 -20.106600
C -6.175300 -26.784900 -19.774000
H -6.129800 -26.495500 -18.870500
O -5.342900 -26.395200 -21.969600
C -5.341900 -26.143900 -20.774400
O -4.580900 -25.162600 -20.243000
H -4.287700 -24.018400 -21.858200
C -3.734000 -24.430500 -21.162800
H -3.249300 -23.732900 -20.674500
H -3.093600 -25.045600 -21.576200
H -11.218600 -29.688800 -24.545500
H -10.545700 -28.752400 -23.435800
C -10.394300 -29.501400 -24.049500
H -10.134700 -30.295600 -23.536400
O -9.331700 -29.157200 -24.983500
C -8.173000 -28.787200 -24.422300
O -7.957400 -28.779300 -23.234900
H -7.390800 -28.413800 -26.363700
C -7.182700 -28.387500 -25.436900
C -5.981000 -27.983900 -25.010800
H -5.835800 -27.985700 -24.071700
N -5.029900 -27.602100 -27.189500
N -4.943800 -27.570400 -25.791600
H -3.986500 -27.342900 -29.529200
H -3.964700 -26.927400 -23.475300
C -3.818000 -27.228100 -27.605200
C -3.706000 -27.152900 -25.364200
N -3.527500 -27.093600 -28.921200
N -3.351500 -27.127200 -24.035200
C -2.981600 -26.927400 -26.491800
H -2.660600 -26.848200 -23.917000
H -2.637400 -27.105400 -29.087500
Br -1.230800 -26.261000 -26.540200
