23
Fragment
Br -10.767900 -30.944100 -18.128200
H -9.545500 -30.409500 -20.838000
H -9.390700 -29.677500 -15.862400
C -9.381300 -29.705200 -18.378800
N -9.058600 -28.955300 -16.035100
N -8.962300 -29.877300 -20.799000
C -8.766700 -29.398500 -19.548000
C -8.760500 -28.953400 -17.361600
H -8.559000 -28.431000 -15.368700
H -8.497100 -29.519200 -21.578500
N -7.820600 -28.440900 -19.237500
N -7.801500 -28.160000 -17.861700
H -7.021200 -28.023700 -21.021100
C -6.997400 -27.764300 -20.106600
C -6.175300 -26.784900 -19.774000
H -6.129800 -26.495500 -18.870500
O -5.342900 -26.395200 -21.969600
C -5.341900 -26.143900 -20.774400
O -4.580900 -25.162600 -20.243000
H -4.287700 -24.018400 -21.858200
C -3.734000 -24.430500 -21.162800
H -3.249300 -23.732900 -20.674500
H -3.093600 -25.045600 -21.576200
23
Fragment
Br -21.914300 -33.094000 -12.433700
H -20.507600 -32.249600 -9.886400
H -20.484500 -32.506800 -15.056900
C -20.163500 -32.427600 -12.482000
N -19.793600 -32.227800 -14.938700
N -19.617600 -32.261400 -10.052700
C -19.439000 -32.202100 -13.609700
C -19.327000 -32.126900 -11.368700
H -19.180300 -32.427600 -15.498600
H -19.158600 -32.012100 -9.444700
N -18.201200 -31.784600 -13.182300
N -18.115200 -31.752900 -11.784400
H -17.309200 -31.369300 -14.902200
C -17.164100 -31.371100 -13.963000
C -15.962300 -30.967500 -13.536900
H -15.754200 -30.941200 -12.610100
O -15.187600 -30.575700 -15.738900
C -14.972000 -30.567800 -14.551500
O -13.813400 -30.197800 -13.990300
H -13.010400 -29.059400 -15.437400
C -12.750700 -29.853600 -14.924400
H -12.599300 -30.602600 -15.538100
H -11.926400 -29.666200 -14.428400
46
Fragment
Br -10.767900 -30.944100 -18.128200
H -9.545500 -30.409500 -20.838000
H -9.390700 -29.677500 -15.862400
C -9.381300 -29.705200 -18.378800
N -9.058600 -28.955300 -16.035100
N -8.962300 -29.877300 -20.799000
C -8.766700 -29.398500 -19.548000
C -8.760500 -28.953400 -17.361600
H -8.559000 -28.431000 -15.368700
H -8.497100 -29.519200 -21.578500
N -7.820600 -28.440900 -19.237500
N -7.801500 -28.160000 -17.861700
H -7.021200 -28.023700 -21.021100
C -6.997400 -27.764300 -20.106600
C -6.175300 -26.784900 -19.774000
H -6.129800 -26.495500 -18.870500
O -5.342900 -26.395200 -21.969600
C -5.341900 -26.143900 -20.774400
O -4.580900 -25.162600 -20.243000
H -4.287700 -24.018400 -21.858200
C -3.734000 -24.430500 -21.162800
H -3.249300 -23.732900 -20.674500
H -3.093600 -25.045600 -21.576200
Br -21.914300 -33.094000 -12.433700
H -20.507600 -32.249600 -9.886400
H -20.484500 -32.506800 -15.056900
C -20.163500 -32.427600 -12.482000
N -19.793600 -32.227800 -14.938700
N -19.617600 -32.261400 -10.052700
C -19.439000 -32.202100 -13.609700
C -19.327000 -32.126900 -11.368700
H -19.180300 -32.427600 -15.498600
H -19.158600 -32.012100 -9.444700
N -18.201200 -31.784600 -13.182300
N -18.115200 -31.752900 -11.784400
H -17.309200 -31.369300 -14.902200
C -17.164100 -31.371100 -13.963000
C -15.962300 -30.967500 -13.536900
H -15.754200 -30.941200 -12.610100
O -15.187600 -30.575700 -15.738900
C -14.972000 -30.567800 -14.551500
O -13.813400 -30.197800 -13.990300
H -13.010400 -29.059400 -15.437400
C -12.750700 -29.853600 -14.924400
H -12.599300 -30.602600 -15.538100
H -11.926400 -29.666200 -14.428400
