23
Fragment
Br -10.767900 -30.944100 -18.128200
H -9.545500 -30.409500 -20.838000
H -9.390700 -29.677500 -15.862400
C -9.381300 -29.705200 -18.378800
N -9.058600 -28.955300 -16.035100
N -8.962300 -29.877300 -20.799000
C -8.766700 -29.398500 -19.548000
C -8.760500 -28.953400 -17.361600
H -8.559000 -28.431000 -15.368700
H -8.497100 -29.519200 -21.578500
N -7.820600 -28.440900 -19.237500
N -7.801500 -28.160000 -17.861700
H -7.021200 -28.023700 -21.021100
C -6.997400 -27.764300 -20.106600
C -6.175300 -26.784900 -19.774000
H -6.129800 -26.495500 -18.870500
O -5.342900 -26.395200 -21.969600
C -5.341900 -26.143900 -20.774400
O -4.580900 -25.162600 -20.243000
H -4.287700 -24.018400 -21.858200
C -3.734000 -24.430500 -21.162800
H -3.249300 -23.732900 -20.674500
H -3.093600 -25.045600 -21.576200
23
Fragment
H -10.261100 -34.309400 -17.397700
H -10.105400 -35.622100 -18.299400
C -9.620800 -34.924500 -17.811100
H -9.067000 -35.336600 -17.115600
O -8.773800 -34.192400 -18.730800
C -8.012800 -33.211100 -18.199500
O -8.011900 -32.959800 -17.004300
H -7.225000 -32.859500 -20.103400
C -7.179500 -32.570100 -19.199800
C -6.357300 -31.590700 -18.867200
H -6.333600 -31.331300 -17.952800
N -5.553300 -31.195000 -21.112100
N -5.534200 -30.914100 -19.736400
H -4.857600 -29.835800 -17.395300
H -4.795700 -30.924000 -23.605200
C -4.594200 -30.401600 -21.612300
C -4.588100 -29.956500 -19.425900
N -4.392400 -29.477700 -18.174800
N -4.296200 -30.399700 -22.938700
C -3.973500 -29.649800 -20.595100
H -3.964100 -29.677500 -23.111500
H -3.809300 -28.945500 -18.135800
Br -2.586900 -28.410900 -20.845700
46
Fragment
Br -10.767900 -30.944100 -18.128200
H -9.545500 -30.409500 -20.838000
H -9.390700 -29.677500 -15.862400
C -9.381300 -29.705200 -18.378800
N -9.058600 -28.955300 -16.035100
N -8.962300 -29.877300 -20.799000
C -8.766700 -29.398500 -19.548000
C -8.760500 -28.953400 -17.361600
H -8.559000 -28.431000 -15.368700
H -8.497100 -29.519200 -21.578500
N -7.820600 -28.440900 -19.237500
N -7.801500 -28.160000 -17.861700
H -7.021200 -28.023700 -21.021100
C -6.997400 -27.764300 -20.106600
C -6.175300 -26.784900 -19.774000
H -6.129800 -26.495500 -18.870500
O -5.342900 -26.395200 -21.969600
C -5.341900 -26.143900 -20.774400
O -4.580900 -25.162600 -20.243000
H -4.287700 -24.018400 -21.858200
C -3.734000 -24.430500 -21.162800
H -3.249300 -23.732900 -20.674500
H -3.093600 -25.045600 -21.576200
H -10.261100 -34.309400 -17.397700
H -10.105400 -35.622100 -18.299400
C -9.620800 -34.924500 -17.811100
H -9.067000 -35.336600 -17.115600
O -8.773800 -34.192400 -18.730800
C -8.012800 -33.211100 -18.199500
O -8.011900 -32.959800 -17.004300
H -7.225000 -32.859500 -20.103400
C -7.179500 -32.570100 -19.199800
C -6.357300 -31.590700 -18.867200
H -6.333600 -31.331300 -17.952800
N -5.553300 -31.195000 -21.112100
N -5.534200 -30.914100 -19.736400
H -4.857600 -29.835800 -17.395300
H -4.795700 -30.924000 -23.605200
C -4.594200 -30.401600 -21.612300
C -4.588100 -29.956500 -19.425900
N -4.392400 -29.477700 -18.174800
N -4.296200 -30.399700 -22.938700
C -3.973500 -29.649800 -20.595100
H -3.964100 -29.677500 -23.111500
H -3.809300 -28.945500 -18.135800
Br -2.586900 -28.410900 -20.845700
