23
Fragment
Br -10.767900 -30.944100 -18.128200
H -9.545500 -30.409500 -20.838000
H -9.390700 -29.677500 -15.862400
C -9.381300 -29.705200 -18.378800
N -9.058600 -28.955300 -16.035100
N -8.962300 -29.877300 -20.799000
C -8.766700 -29.398500 -19.548000
C -8.760500 -28.953400 -17.361600
H -8.559000 -28.431000 -15.368700
H -8.497100 -29.519200 -21.578500
N -7.820600 -28.440900 -19.237500
N -7.801500 -28.160000 -17.861700
H -7.021200 -28.023700 -21.021100
C -6.997400 -27.764300 -20.106600
C -6.175300 -26.784900 -19.774000
H -6.129800 -26.495500 -18.870500
O -5.342900 -26.395200 -21.969600
C -5.341900 -26.143900 -20.774400
O -4.580900 -25.162600 -20.243000
H -4.287700 -24.018400 -21.858200
C -3.734000 -24.430500 -21.162800
H -3.249300 -23.732900 -20.674500
H -3.093600 -25.045600 -21.576200
6
Fragment
N -12.365200 -26.986700 -17.264100
C -11.512600 -26.525700 -17.839600
H -10.648100 -25.933600 -19.569300
C -10.412200 -25.934200 -18.617800
H -10.258200 -25.013800 -18.319000
H -9.596600 -26.461600 -18.484500
29
Fragment
Br -10.767900 -30.944100 -18.128200
H -9.545500 -30.409500 -20.838000
H -9.390700 -29.677500 -15.862400
C -9.381300 -29.705200 -18.378800
N -9.058600 -28.955300 -16.035100
N -8.962300 -29.877300 -20.799000
C -8.766700 -29.398500 -19.548000
C -8.760500 -28.953400 -17.361600
H -8.559000 -28.431000 -15.368700
H -8.497100 -29.519200 -21.578500
N -7.820600 -28.440900 -19.237500
N -7.801500 -28.160000 -17.861700
H -7.021200 -28.023700 -21.021100
C -6.997400 -27.764300 -20.106600
C -6.175300 -26.784900 -19.774000
H -6.129800 -26.495500 -18.870500
O -5.342900 -26.395200 -21.969600
C -5.341900 -26.143900 -20.774400
O -4.580900 -25.162600 -20.243000
H -4.287700 -24.018400 -21.858200
C -3.734000 -24.430500 -21.162800
H -3.249300 -23.732900 -20.674500
H -3.093600 -25.045600 -21.576200
N -12.365200 -26.986700 -17.264100
C -11.512600 -26.525700 -17.839600
H -10.648100 -25.933600 -19.569300
C -10.412200 -25.934200 -18.617800
H -10.258200 -25.013800 -18.319000
H -9.596600 -26.461600 -18.484500
