42
Fragment
H -10.970300 -27.854300 -30.183400
H -10.670200 -25.686500 -30.796600
C -10.173000 -27.424600 -29.974500
H -10.081400 -29.965300 -29.195700
C -9.979100 -26.145400 -30.376800
C -9.293200 -29.522000 -28.980500
C -9.171300 -28.121700 -29.233400
H -9.105400 -23.801700 -31.235900
H -8.956800 -23.967400 -25.837800
C -8.723600 -25.493500 -30.163400
H -8.534500 -25.976500 -26.863400
C -8.438400 -24.243700 -30.763400
H -8.285800 -31.137200 -28.408600
C -8.263000 -30.208100 -28.426400
C -8.106300 -24.341400 -25.786500
C -8.024400 -27.433400 -28.795700
C -7.850600 -25.546200 -26.402500
C -7.722600 -26.143400 -29.393200
H -7.267600 -22.848900 -24.687200
C -7.194700 -23.674100 -30.659700
C -7.145400 -29.518700 -27.871200
C -7.145400 -28.103600 -27.871200
C -7.096100 -23.674100 -25.082800
H -7.023200 -22.848900 -31.055300
C -6.568200 -26.143400 -26.349300
C -6.440200 -25.546200 -29.340000
C -6.266400 -27.433400 -26.946800
C -6.184500 -24.341400 -29.956000
C -6.027800 -30.208100 -27.316100
H -6.005000 -31.137200 -27.333900
C -5.852400 -24.243700 -24.979100
H -5.756300 -25.976500 -28.879100
C -5.567200 -25.493500 -25.579100
H -5.334000 -23.967400 -29.904700
H -5.185400 -23.801700 -24.506600
C -5.119500 -28.121700 -26.509100
C -4.997600 -29.522000 -26.762000
C -4.311700 -26.145400 -25.365700
H -4.209400 -29.965300 -26.546800
C -4.117800 -27.424600 -25.768000
H -3.620600 -25.686500 -24.945900
H -3.320500 -27.854300 -25.559100
42
Fragment
H -14.543000 -19.224300 -25.559100
H -14.242900 -17.056400 -24.945900
C -13.745700 -18.794500 -25.768000
H -13.654100 -21.335200 -26.546800
C -13.551800 -17.515400 -25.365700
C -12.865900 -20.892000 -26.762000
C -12.744000 -19.491700 -26.509100
H -12.678100 -15.171600 -24.506600
H -12.529500 -15.337300 -29.904700
C -12.296300 -16.863500 -25.579100
H -12.107200 -17.346400 -28.879100
C -12.011100 -15.613700 -24.979100
H -11.858500 -22.507200 -27.333900
C -11.835700 -21.578100 -27.316100
C -11.679000 -15.711400 -29.956000
C -11.597100 -18.803300 -26.946800
C -11.423300 -16.916100 -29.340000
C -11.295300 -17.513300 -26.349300
H -10.840300 -14.218900 -31.055300
C -10.767400 -15.044100 -25.082800
C -10.718100 -20.888700 -27.871200
C -10.718100 -19.473500 -27.871200
C -10.668800 -15.044100 -30.659700
H -10.595900 -14.218900 -24.687200
C -10.140900 -17.513300 -29.393200
C -10.012900 -16.916100 -26.402500
C -9.839100 -18.803300 -28.795700
C -9.757200 -15.711400 -25.786500
C -9.600500 -21.578100 -28.426400
H -9.577700 -22.507200 -28.408600
C -9.425100 -15.613700 -30.763400
H -9.329000 -17.346400 -26.863400
C -9.139900 -16.863500 -30.163400
H -8.906700 -15.337300 -25.837800
H -8.758100 -15.171600 -31.235900
C -8.692200 -19.491700 -29.233400
C -8.570300 -20.892000 -28.980500
C -7.884400 -17.515400 -30.376800
H -7.782100 -21.335200 -29.195700
C -7.690500 -18.794500 -29.974500
H -7.193300 -17.056400 -30.796600
H -6.893200 -19.224300 -30.183400
84
Fragment
H -10.970300 -27.854300 -30.183400
H -10.670200 -25.686500 -30.796600
C -10.173000 -27.424600 -29.974500
H -10.081400 -29.965300 -29.195700
C -9.979100 -26.145400 -30.376800
C -9.293200 -29.522000 -28.980500
C -9.171300 -28.121700 -29.233400
H -9.105400 -23.801700 -31.235900
H -8.956800 -23.967400 -25.837800
C -8.723600 -25.493500 -30.163400
H -8.534500 -25.976500 -26.863400
C -8.438400 -24.243700 -30.763400
H -8.285800 -31.137200 -28.408600
C -8.263000 -30.208100 -28.426400
C -8.106300 -24.341400 -25.786500
C -8.024400 -27.433400 -28.795700
C -7.850600 -25.546200 -26.402500
C -7.722600 -26.143400 -29.393200
H -7.267600 -22.848900 -24.687200
C -7.194700 -23.674100 -30.659700
C -7.145400 -29.518700 -27.871200
C -7.145400 -28.103600 -27.871200
C -7.096100 -23.674100 -25.082800
H -7.023200 -22.848900 -31.055300
C -6.568200 -26.143400 -26.349300
C -6.440200 -25.546200 -29.340000
C -6.266400 -27.433400 -26.946800
C -6.184500 -24.341400 -29.956000
C -6.027800 -30.208100 -27.316100
H -6.005000 -31.137200 -27.333900
C -5.852400 -24.243700 -24.979100
H -5.756300 -25.976500 -28.879100
C -5.567200 -25.493500 -25.579100
H -5.334000 -23.967400 -29.904700
H -5.185400 -23.801700 -24.506600
C -5.119500 -28.121700 -26.509100
C -4.997600 -29.522000 -26.762000
C -4.311700 -26.145400 -25.365700
H -4.209400 -29.965300 -26.546800
C -4.117800 -27.424600 -25.768000
H -3.620600 -25.686500 -24.945900
H -3.320500 -27.854300 -25.559100
H -14.543000 -19.224300 -25.559100
H -14.242900 -17.056400 -24.945900
C -13.745700 -18.794500 -25.768000
H -13.654100 -21.335200 -26.546800
C -13.551800 -17.515400 -25.365700
C -12.865900 -20.892000 -26.762000
C -12.744000 -19.491700 -26.509100
H -12.678100 -15.171600 -24.506600
H -12.529500 -15.337300 -29.904700
C -12.296300 -16.863500 -25.579100
H -12.107200 -17.346400 -28.879100
C -12.011100 -15.613700 -24.979100
H -11.858500 -22.507200 -27.333900
C -11.835700 -21.578100 -27.316100
C -11.679000 -15.711400 -29.956000
C -11.597100 -18.803300 -26.946800
C -11.423300 -16.916100 -29.340000
C -11.295300 -17.513300 -26.349300
H -10.840300 -14.218900 -31.055300
C -10.767400 -15.044100 -25.082800
C -10.718100 -20.888700 -27.871200
C -10.718100 -19.473500 -27.871200
C -10.668800 -15.044100 -30.659700
H -10.595900 -14.218900 -24.687200
C -10.140900 -17.513300 -29.393200
C -10.012900 -16.916100 -26.402500
C -9.839100 -18.803300 -28.795700
C -9.757200 -15.711400 -25.786500
C -9.600500 -21.578100 -28.426400
H -9.577700 -22.507200 -28.408600
C -9.425100 -15.613700 -30.763400
H -9.329000 -17.346400 -26.863400
C -9.139900 -16.863500 -30.163400
H -8.906700 -15.337300 -25.837800
H -8.758100 -15.171600 -31.235900
C -8.692200 -19.491700 -29.233400
C -8.570300 -20.892000 -28.980500
C -7.884400 -17.515400 -30.376800
H -7.782100 -21.335200 -29.195700
C -7.690500 -18.794500 -29.974500
H -7.193300 -17.056400 -30.796600
H -6.893200 -19.224300 -30.183400
