42
Fragment
H -10.970300 -27.854300 -30.183400
H -10.670200 -25.686500 -30.796600
C -10.173000 -27.424600 -29.974500
H -10.081400 -29.965300 -29.195700
C -9.979100 -26.145400 -30.376800
C -9.293200 -29.522000 -28.980500
C -9.171300 -28.121700 -29.233400
H -9.105400 -23.801700 -31.235900
H -8.956800 -23.967400 -25.837800
C -8.723600 -25.493500 -30.163400
H -8.534500 -25.976500 -26.863400
C -8.438400 -24.243700 -30.763400
H -8.285800 -31.137200 -28.408600
C -8.263000 -30.208100 -28.426400
C -8.106300 -24.341400 -25.786500
C -8.024400 -27.433400 -28.795700
C -7.850600 -25.546200 -26.402500
C -7.722600 -26.143400 -29.393200
H -7.267600 -22.848900 -24.687200
C -7.194700 -23.674100 -30.659700
C -7.145400 -29.518700 -27.871200
C -7.145400 -28.103600 -27.871200
C -7.096100 -23.674100 -25.082800
H -7.023200 -22.848900 -31.055300
C -6.568200 -26.143400 -26.349300
C -6.440200 -25.546200 -29.340000
C -6.266400 -27.433400 -26.946800
C -6.184500 -24.341400 -29.956000
C -6.027800 -30.208100 -27.316100
H -6.005000 -31.137200 -27.333900
C -5.852400 -24.243700 -24.979100
H -5.756300 -25.976500 -28.879100
C -5.567200 -25.493500 -25.579100
H -5.334000 -23.967400 -29.904700
H -5.185400 -23.801700 -24.506600
C -5.119500 -28.121700 -26.509100
C -4.997600 -29.522000 -26.762000
C -4.311700 -26.145400 -25.365700
H -4.209400 -29.965300 -26.546800
C -4.117800 -27.424600 -25.768000
H -3.620600 -25.686500 -24.945900
H -3.320500 -27.854300 -25.559100
20
Fragment
N -6.265200 -21.160500 -23.061600
F -6.043500 -18.343300 -21.982200
F -5.574100 -15.949400 -21.028500
C -5.316800 -20.533800 -23.200700
C -4.824000 -17.821200 -22.132900
N -4.720800 -13.319800 -19.775400
C -4.580600 -16.601800 -21.631400
C -4.082300 -19.824400 -23.393300
C -4.018500 -13.960100 -20.411100
C -3.838900 -18.581000 -22.856900
C -3.306500 -15.939200 -21.737100
C -3.126900 -20.560100 -24.182900
C -3.063100 -14.695800 -21.200700
C -2.564800 -17.918400 -22.962600
N -2.424600 -21.200400 -24.818600
C -2.321400 -16.699000 -22.461100
C -1.828600 -13.986400 -21.393300
F -1.571300 -18.570800 -23.565500
F -1.101900 -16.176900 -22.611800
N -0.880200 -13.359700 -21.532400
62
Fragment
H -10.970300 -27.854300 -30.183400
H -10.670200 -25.686500 -30.796600
C -10.173000 -27.424600 -29.974500
H -10.081400 -29.965300 -29.195700
C -9.979100 -26.145400 -30.376800
C -9.293200 -29.522000 -28.980500
C -9.171300 -28.121700 -29.233400
H -9.105400 -23.801700 -31.235900
H -8.956800 -23.967400 -25.837800
C -8.723600 -25.493500 -30.163400
H -8.534500 -25.976500 -26.863400
C -8.438400 -24.243700 -30.763400
H -8.285800 -31.137200 -28.408600
C -8.263000 -30.208100 -28.426400
C -8.106300 -24.341400 -25.786500
C -8.024400 -27.433400 -28.795700
C -7.850600 -25.546200 -26.402500
C -7.722600 -26.143400 -29.393200
H -7.267600 -22.848900 -24.687200
C -7.194700 -23.674100 -30.659700
C -7.145400 -29.518700 -27.871200
C -7.145400 -28.103600 -27.871200
C -7.096100 -23.674100 -25.082800
H -7.023200 -22.848900 -31.055300
C -6.568200 -26.143400 -26.349300
C -6.440200 -25.546200 -29.340000
C -6.266400 -27.433400 -26.946800
C -6.184500 -24.341400 -29.956000
C -6.027800 -30.208100 -27.316100
H -6.005000 -31.137200 -27.333900
C -5.852400 -24.243700 -24.979100
H -5.756300 -25.976500 -28.879100
C -5.567200 -25.493500 -25.579100
H -5.334000 -23.967400 -29.904700
H -5.185400 -23.801700 -24.506600
C -5.119500 -28.121700 -26.509100
C -4.997600 -29.522000 -26.762000
C -4.311700 -26.145400 -25.365700
H -4.209400 -29.965300 -26.546800
C -4.117800 -27.424600 -25.768000
H -3.620600 -25.686500 -24.945900
H -3.320500 -27.854300 -25.559100
N -6.265200 -21.160500 -23.061600
F -6.043500 -18.343300 -21.982200
F -5.574100 -15.949400 -21.028500
C -5.316800 -20.533800 -23.200700
C -4.824000 -17.821200 -22.132900
N -4.720800 -13.319800 -19.775400
C -4.580600 -16.601800 -21.631400
C -4.082300 -19.824400 -23.393300
C -4.018500 -13.960100 -20.411100
C -3.838900 -18.581000 -22.856900
C -3.306500 -15.939200 -21.737100
C -3.126900 -20.560100 -24.182900
C -3.063100 -14.695800 -21.200700
C -2.564800 -17.918400 -22.962600
N -2.424600 -21.200400 -24.818600
C -2.321400 -16.699000 -22.461100
C -1.828600 -13.986400 -21.393300
F -1.571300 -18.570800 -23.565500
F -1.101900 -16.176900 -22.611800
N -0.880200 -13.359700 -21.532400
