42
Fragment
H -10.970300 -27.854300 -30.183400
H -10.670200 -25.686500 -30.796600
C -10.173000 -27.424600 -29.974500
H -10.081400 -29.965300 -29.195700
C -9.979100 -26.145400 -30.376800
C -9.293200 -29.522000 -28.980500
C -9.171300 -28.121700 -29.233400
H -9.105400 -23.801700 -31.235900
H -8.956800 -23.967400 -25.837800
C -8.723600 -25.493500 -30.163400
H -8.534500 -25.976500 -26.863400
C -8.438400 -24.243700 -30.763400
H -8.285800 -31.137200 -28.408600
C -8.263000 -30.208100 -28.426400
C -8.106300 -24.341400 -25.786500
C -8.024400 -27.433400 -28.795700
C -7.850600 -25.546200 -26.402500
C -7.722600 -26.143400 -29.393200
H -7.267600 -22.848900 -24.687200
C -7.194700 -23.674100 -30.659700
C -7.145400 -29.518700 -27.871200
C -7.145400 -28.103600 -27.871200
C -7.096100 -23.674100 -25.082800
H -7.023200 -22.848900 -31.055300
C -6.568200 -26.143400 -26.349300
C -6.440200 -25.546200 -29.340000
C -6.266400 -27.433400 -26.946800
C -6.184500 -24.341400 -29.956000
C -6.027800 -30.208100 -27.316100
H -6.005000 -31.137200 -27.333900
C -5.852400 -24.243700 -24.979100
H -5.756300 -25.976500 -28.879100
C -5.567200 -25.493500 -25.579100
H -5.334000 -23.967400 -29.904700
H -5.185400 -23.801700 -24.506600
C -5.119500 -28.121700 -26.509100
C -4.997600 -29.522000 -26.762000
C -4.311700 -26.145400 -25.365700
H -4.209400 -29.965300 -26.546800
C -4.117800 -27.424600 -25.768000
H -3.620600 -25.686500 -24.945900
H -3.320500 -27.854300 -25.559100
42
Fragment
H -18.115700 -27.854300 -30.183400
H -17.815600 -25.686500 -30.796600
C -17.318400 -27.424600 -29.974500
H -17.226800 -29.965300 -29.195700
C -17.124500 -26.145400 -30.376800
C -16.438600 -29.522000 -28.980500
C -16.316700 -28.121700 -29.233400
H -16.250800 -23.801700 -31.235900
H -16.102200 -23.967400 -25.837800
C -15.869000 -25.493500 -30.163400
H -15.679900 -25.976500 -26.863400
C -15.583800 -24.243700 -30.763400
H -15.431200 -31.137200 -28.408600
C -15.408400 -30.208100 -28.426400
C -15.251700 -24.341400 -25.786500
C -15.169800 -27.433400 -28.795700
C -14.996000 -25.546200 -26.402500
C -14.868000 -26.143400 -29.393200
H -14.413000 -22.848900 -24.687200
C -14.340100 -23.674100 -30.659700
C -14.290800 -29.518700 -27.871200
C -14.290800 -28.103600 -27.871200
C -14.241500 -23.674100 -25.082800
H -14.168600 -22.848900 -31.055300
C -13.713600 -26.143400 -26.349300
C -13.585600 -25.546200 -29.340000
C -13.411800 -27.433400 -26.946800
C -13.329900 -24.341400 -29.956000
C -13.173200 -30.208100 -27.316100
H -13.150400 -31.137200 -27.333900
C -12.997800 -24.243700 -24.979100
H -12.901700 -25.976500 -28.879100
C -12.712600 -25.493500 -25.579100
H -12.479400 -23.967400 -29.904700
H -12.330800 -23.801700 -24.506600
C -12.264900 -28.121700 -26.509100
C -12.143000 -29.522000 -26.762000
C -11.457100 -26.145400 -25.365700
H -11.354800 -29.965300 -26.546800
C -11.263200 -27.424600 -25.768000
H -10.766000 -25.686500 -24.945900
H -10.465900 -27.854300 -25.559100
84
Fragment
H -10.970300 -27.854300 -30.183400
H -10.670200 -25.686500 -30.796600
C -10.173000 -27.424600 -29.974500
H -10.081400 -29.965300 -29.195700
C -9.979100 -26.145400 -30.376800
C -9.293200 -29.522000 -28.980500
C -9.171300 -28.121700 -29.233400
H -9.105400 -23.801700 -31.235900
H -8.956800 -23.967400 -25.837800
C -8.723600 -25.493500 -30.163400
H -8.534500 -25.976500 -26.863400
C -8.438400 -24.243700 -30.763400
H -8.285800 -31.137200 -28.408600
C -8.263000 -30.208100 -28.426400
C -8.106300 -24.341400 -25.786500
C -8.024400 -27.433400 -28.795700
C -7.850600 -25.546200 -26.402500
C -7.722600 -26.143400 -29.393200
H -7.267600 -22.848900 -24.687200
C -7.194700 -23.674100 -30.659700
C -7.145400 -29.518700 -27.871200
C -7.145400 -28.103600 -27.871200
C -7.096100 -23.674100 -25.082800
H -7.023200 -22.848900 -31.055300
C -6.568200 -26.143400 -26.349300
C -6.440200 -25.546200 -29.340000
C -6.266400 -27.433400 -26.946800
C -6.184500 -24.341400 -29.956000
C -6.027800 -30.208100 -27.316100
H -6.005000 -31.137200 -27.333900
C -5.852400 -24.243700 -24.979100
H -5.756300 -25.976500 -28.879100
C -5.567200 -25.493500 -25.579100
H -5.334000 -23.967400 -29.904700
H -5.185400 -23.801700 -24.506600
C -5.119500 -28.121700 -26.509100
C -4.997600 -29.522000 -26.762000
C -4.311700 -26.145400 -25.365700
H -4.209400 -29.965300 -26.546800
C -4.117800 -27.424600 -25.768000
H -3.620600 -25.686500 -24.945900
H -3.320500 -27.854300 -25.559100
H -18.115700 -27.854300 -30.183400
H -17.815600 -25.686500 -30.796600
C -17.318400 -27.424600 -29.974500
H -17.226800 -29.965300 -29.195700
C -17.124500 -26.145400 -30.376800
C -16.438600 -29.522000 -28.980500
C -16.316700 -28.121700 -29.233400
H -16.250800 -23.801700 -31.235900
H -16.102200 -23.967400 -25.837800
C -15.869000 -25.493500 -30.163400
H -15.679900 -25.976500 -26.863400
C -15.583800 -24.243700 -30.763400
H -15.431200 -31.137200 -28.408600
C -15.408400 -30.208100 -28.426400
C -15.251700 -24.341400 -25.786500
C -15.169800 -27.433400 -28.795700
C -14.996000 -25.546200 -26.402500
C -14.868000 -26.143400 -29.393200
H -14.413000 -22.848900 -24.687200
C -14.340100 -23.674100 -30.659700
C -14.290800 -29.518700 -27.871200
C -14.290800 -28.103600 -27.871200
C -14.241500 -23.674100 -25.082800
H -14.168600 -22.848900 -31.055300
C -13.713600 -26.143400 -26.349300
C -13.585600 -25.546200 -29.340000
C -13.411800 -27.433400 -26.946800
C -13.329900 -24.341400 -29.956000
C -13.173200 -30.208100 -27.316100
H -13.150400 -31.137200 -27.333900
C -12.997800 -24.243700 -24.979100
H -12.901700 -25.976500 -28.879100
C -12.712600 -25.493500 -25.579100
H -12.479400 -23.967400 -29.904700
H -12.330800 -23.801700 -24.506600
C -12.264900 -28.121700 -26.509100
C -12.143000 -29.522000 -26.762000
C -11.457100 -26.145400 -25.365700
H -11.354800 -29.965300 -26.546800
C -11.263200 -27.424600 -25.768000
H -10.766000 -25.686500 -24.945900
H -10.465900 -27.854300 -25.559100
