54
Fragment
H -11.676100 -27.109900 -16.078300
H -11.627900 -37.681600 -20.876600
O -11.397100 -36.721500 -20.920200
H -11.382900 -34.457600 -22.164300
H -11.164600 -29.302500 -15.426400
H -11.143800 -34.088300 -20.662000
C -10.806200 -27.307600 -15.723000
H -10.784300 -27.090300 -14.789000
C -10.710700 -34.176500 -21.524800
O -10.575700 -29.037200 -17.306800
C -10.511700 -28.766300 -15.903500
O -10.422500 -29.307600 -19.872700
H -10.359100 -34.131500 -24.422500
C -10.264400 -30.298300 -17.734100
C -10.222600 -30.433100 -19.131800
N -10.191900 -32.877500 -21.926400
H -10.166400 -29.536200 -20.724500
H -10.145800 -26.787700 -16.187200
C -10.136100 -33.229600 -24.425700
H -10.134700 -41.280800 -20.458600
H -10.071700 -40.713000 -18.998000
C -10.063500 -36.525200 -21.116200
C -10.029400 -32.503800 -23.249800
H -10.001700 -31.284800 -16.009400
C -9.981500 -31.374700 -16.934600
C -9.957400 -31.679700 -19.708900
H -9.949700 -33.007700 -26.406900
C -9.929600 -31.764700 -21.168600
C -9.895600 -32.552300 -25.597400
C -9.693200 -31.150000 -23.234100
C -9.665000 -32.602400 -17.508300
N -9.658300 -30.704600 -21.922600
O -9.658100 -38.782800 -20.652900
C -9.654600 -32.757100 -18.868700
C -9.647100 -35.245900 -21.430900
H -9.629300 -28.976300 -15.559400
C -9.571900 -31.191600 -25.596300
C -9.549600 -40.979400 -19.758700
C -9.468200 -30.480800 -24.428900
H -9.457400 -33.326000 -16.962300
H -9.445300 -33.585300 -19.236600
H -9.423700 -30.760200 -26.406900
H -9.254100 -29.575500 -24.436900
C -9.128000 -37.562900 -20.982100
H -8.958500 -41.693400 -19.507300
C -8.745200 -39.811900 -20.247200
C -8.303200 -34.996300 -21.630300
H -8.190600 -40.080400 -20.996700
H -8.167300 -39.485100 -19.540900
H -8.022100 -34.137400 -21.850400
C -7.782600 -37.293200 -21.185400
C -7.375900 -36.007900 -21.505100
H -7.154500 -37.974300 -21.107200
H -6.473100 -35.827000 -21.635800
54
Fragment
H -17.998100 -23.111900 -10.395900
H -17.316700 -20.964600 -10.924400
C -17.095200 -22.931000 -10.526500
C -16.688500 -21.645700 -10.846200
H -16.449100 -24.801500 -10.181200
H -16.303900 -19.453800 -12.490700
H -16.280600 -18.858500 -11.034900
C -16.167900 -23.942600 -10.401300
C -15.725900 -19.127000 -11.784400
H -15.512700 -17.245500 -12.524400
C -15.343200 -21.376000 -11.049500
H -15.217000 -29.363400 -7.594700
H -15.047500 -28.178700 -5.624800
H -15.025800 -25.353600 -12.795000
H -15.013700 -25.612900 -15.069300
C -15.002900 -28.458100 -7.602700
C -14.921500 -17.959500 -12.272900
C -14.899300 -27.747300 -6.435300
H -14.841800 -29.962600 -16.472300
C -14.824000 -23.693000 -10.600700
C -14.816600 -26.181800 -13.162900
O -14.813000 -20.156100 -11.378800
N -14.812900 -28.234300 -10.109000
C -14.806100 -26.336500 -14.523300
C -14.777900 -27.788900 -8.797500
C -14.575600 -26.386600 -6.434200
C -14.541500 -27.174200 -10.863000
H -14.521400 -25.931200 -5.624800
C -14.513800 -27.259200 -12.322700
C -14.489600 -27.564200 -15.097000
H -14.469400 -27.654100 -16.022200
C -14.441700 -26.435100 -8.781800
C -14.407600 -22.413700 -10.915400
H -14.399500 -18.225900 -13.033700
H -14.336500 -17.658100 -11.573000
C -14.335100 -25.709300 -7.605900
H -14.325400 -32.151200 -15.844400
H -14.304700 -29.402700 -11.307200
N -14.279200 -26.061400 -10.105200
C -14.248500 -28.505800 -12.899800
C -14.206800 -28.640600 -14.297500
H -14.112000 -24.807400 -7.609100
O -14.048600 -29.631300 -12.158900
C -13.959500 -30.172600 -16.128100
O -13.895500 -29.901700 -14.724800
C -13.760500 -24.762400 -10.506900
H -13.686800 -31.848600 -17.242600
C -13.665000 -31.631300 -16.308600
H -13.327400 -24.850600 -11.369600
H -13.306600 -29.636400 -16.605200
H -13.088200 -24.481300 -9.867300
O -13.074100 -22.217400 -11.111400
H -12.843300 -21.257300 -11.155000
H -12.795100 -31.829000 -15.953300
108
Fragment
H -11.676100 -27.109900 -16.078300
H -11.627900 -37.681600 -20.876600
O -11.397100 -36.721500 -20.920200
H -11.382900 -34.457600 -22.164300
H -11.164600 -29.302500 -15.426400
H -11.143800 -34.088300 -20.662000
C -10.806200 -27.307600 -15.723000
H -10.784300 -27.090300 -14.789000
C -10.710700 -34.176500 -21.524800
O -10.575700 -29.037200 -17.306800
C -10.511700 -28.766300 -15.903500
O -10.422500 -29.307600 -19.872700
H -10.359100 -34.131500 -24.422500
C -10.264400 -30.298300 -17.734100
C -10.222600 -30.433100 -19.131800
N -10.191900 -32.877500 -21.926400
H -10.166400 -29.536200 -20.724500
H -10.145800 -26.787700 -16.187200
C -10.136100 -33.229600 -24.425700
H -10.134700 -41.280800 -20.458600
H -10.071700 -40.713000 -18.998000
C -10.063500 -36.525200 -21.116200
C -10.029400 -32.503800 -23.249800
H -10.001700 -31.284800 -16.009400
C -9.981500 -31.374700 -16.934600
C -9.957400 -31.679700 -19.708900
H -9.949700 -33.007700 -26.406900
C -9.929600 -31.764700 -21.168600
C -9.895600 -32.552300 -25.597400
C -9.693200 -31.150000 -23.234100
C -9.665000 -32.602400 -17.508300
N -9.658300 -30.704600 -21.922600
O -9.658100 -38.782800 -20.652900
C -9.654600 -32.757100 -18.868700
C -9.647100 -35.245900 -21.430900
H -9.629300 -28.976300 -15.559400
C -9.571900 -31.191600 -25.596300
C -9.549600 -40.979400 -19.758700
C -9.468200 -30.480800 -24.428900
H -9.457400 -33.326000 -16.962300
H -9.445300 -33.585300 -19.236600
H -9.423700 -30.760200 -26.406900
H -9.254100 -29.575500 -24.436900
C -9.128000 -37.562900 -20.982100
H -8.958500 -41.693400 -19.507300
C -8.745200 -39.811900 -20.247200
C -8.303200 -34.996300 -21.630300
H -8.190600 -40.080400 -20.996700
H -8.167300 -39.485100 -19.540900
H -8.022100 -34.137400 -21.850400
C -7.782600 -37.293200 -21.185400
C -7.375900 -36.007900 -21.505100
H -7.154500 -37.974300 -21.107200
H -6.473100 -35.827000 -21.635800
H -17.998100 -23.111900 -10.395900
H -17.316700 -20.964600 -10.924400
C -17.095200 -22.931000 -10.526500
C -16.688500 -21.645700 -10.846200
H -16.449100 -24.801500 -10.181200
H -16.303900 -19.453800 -12.490700
H -16.280600 -18.858500 -11.034900
C -16.167900 -23.942600 -10.401300
C -15.725900 -19.127000 -11.784400
H -15.512700 -17.245500 -12.524400
C -15.343200 -21.376000 -11.049500
H -15.217000 -29.363400 -7.594700
H -15.047500 -28.178700 -5.624800
H -15.025800 -25.353600 -12.795000
H -15.013700 -25.612900 -15.069300
C -15.002900 -28.458100 -7.602700
C -14.921500 -17.959500 -12.272900
C -14.899300 -27.747300 -6.435300
H -14.841800 -29.962600 -16.472300
C -14.824000 -23.693000 -10.600700
C -14.816600 -26.181800 -13.162900
O -14.813000 -20.156100 -11.378800
N -14.812900 -28.234300 -10.109000
C -14.806100 -26.336500 -14.523300
C -14.777900 -27.788900 -8.797500
C -14.575600 -26.386600 -6.434200
C -14.541500 -27.174200 -10.863000
H -14.521400 -25.931200 -5.624800
C -14.513800 -27.259200 -12.322700
C -14.489600 -27.564200 -15.097000
H -14.469400 -27.654100 -16.022200
C -14.441700 -26.435100 -8.781800
C -14.407600 -22.413700 -10.915400
H -14.399500 -18.225900 -13.033700
H -14.336500 -17.658100 -11.573000
C -14.335100 -25.709300 -7.605900
H -14.325400 -32.151200 -15.844400
H -14.304700 -29.402700 -11.307200
N -14.279200 -26.061400 -10.105200
C -14.248500 -28.505800 -12.899800
C -14.206800 -28.640600 -14.297500
H -14.112000 -24.807400 -7.609100
O -14.048600 -29.631300 -12.158900
C -13.959500 -30.172600 -16.128100
O -13.895500 -29.901700 -14.724800
C -13.760500 -24.762400 -10.506900
H -13.686800 -31.848600 -17.242600
C -13.665000 -31.631300 -16.308600
H -13.327400 -24.850600 -11.369600
H -13.306600 -29.636400 -16.605200
H -13.088200 -24.481300 -9.867300
O -13.074100 -22.217400 -11.111400
H -12.843300 -21.257300 -11.155000
H -12.795100 -31.829000 -15.953300
