54
Fragment
H -11.676100 -27.109900 -16.078300
H -11.627900 -37.681600 -20.876600
O -11.397100 -36.721500 -20.920200
H -11.382900 -34.457600 -22.164300
H -11.164600 -29.302500 -15.426400
H -11.143800 -34.088300 -20.662000
C -10.806200 -27.307600 -15.723000
H -10.784300 -27.090300 -14.789000
C -10.710700 -34.176500 -21.524800
O -10.575700 -29.037200 -17.306800
C -10.511700 -28.766300 -15.903500
O -10.422500 -29.307600 -19.872700
H -10.359100 -34.131500 -24.422500
C -10.264400 -30.298300 -17.734100
C -10.222600 -30.433100 -19.131800
N -10.191900 -32.877500 -21.926400
H -10.166400 -29.536200 -20.724500
H -10.145800 -26.787700 -16.187200
C -10.136100 -33.229600 -24.425700
H -10.134700 -41.280800 -20.458600
H -10.071700 -40.713000 -18.998000
C -10.063500 -36.525200 -21.116200
C -10.029400 -32.503800 -23.249800
H -10.001700 -31.284800 -16.009400
C -9.981500 -31.374700 -16.934600
C -9.957400 -31.679700 -19.708900
H -9.949700 -33.007700 -26.406900
C -9.929600 -31.764700 -21.168600
C -9.895600 -32.552300 -25.597400
C -9.693200 -31.150000 -23.234100
C -9.665000 -32.602400 -17.508300
N -9.658300 -30.704600 -21.922600
O -9.658100 -38.782800 -20.652900
C -9.654600 -32.757100 -18.868700
C -9.647100 -35.245900 -21.430900
H -9.629300 -28.976300 -15.559400
C -9.571900 -31.191600 -25.596300
C -9.549600 -40.979400 -19.758700
C -9.468200 -30.480800 -24.428900
H -9.457400 -33.326000 -16.962300
H -9.445300 -33.585300 -19.236600
H -9.423700 -30.760200 -26.406900
H -9.254100 -29.575500 -24.436900
C -9.128000 -37.562900 -20.982100
H -8.958500 -41.693400 -19.507300
C -8.745200 -39.811900 -20.247200
C -8.303200 -34.996300 -21.630300
H -8.190600 -40.080400 -20.996700
H -8.167300 -39.485100 -19.540900
H -8.022100 -34.137400 -21.850400
C -7.782600 -37.293200 -21.185400
C -7.375900 -36.007900 -21.505100
H -7.154500 -37.974300 -21.107200
H -6.473100 -35.827000 -21.635800
54
Fragment
H -19.191200 -27.109900 -16.078300
H -19.143000 -37.681600 -20.876600
O -18.912200 -36.721500 -20.920200
H -18.898000 -34.457600 -22.164300
H -18.679700 -29.302500 -15.426400
H -18.658900 -34.088300 -20.662000
C -18.321300 -27.307600 -15.723000
H -18.299400 -27.090300 -14.789000
C -18.225800 -34.176500 -21.524800
O -18.090800 -29.037200 -17.306800
C -18.026800 -28.766300 -15.903500
O -17.937600 -29.307600 -19.872700
H -17.874200 -34.131500 -24.422500
C -17.779500 -30.298300 -17.734100
C -17.737700 -30.433100 -19.131800
N -17.707000 -32.877500 -21.926400
H -17.681500 -29.536200 -20.724500
H -17.660900 -26.787700 -16.187200
C -17.651200 -33.229600 -24.425700
H -17.649800 -41.280800 -20.458600
H -17.586800 -40.713000 -18.998000
C -17.578600 -36.525200 -21.116200
C -17.544500 -32.503800 -23.249800
H -17.516800 -31.284800 -16.009400
C -17.496600 -31.374700 -16.934600
C -17.472500 -31.679700 -19.708900
H -17.464800 -33.007700 -26.406900
C -17.444700 -31.764700 -21.168600
C -17.410700 -32.552300 -25.597400
C -17.208300 -31.150000 -23.234100
C -17.180100 -32.602400 -17.508300
N -17.173400 -30.704600 -21.922600
O -17.173200 -38.782800 -20.652900
C -17.169700 -32.757100 -18.868700
C -17.162200 -35.245900 -21.430900
H -17.144400 -28.976300 -15.559400
C -17.087000 -31.191600 -25.596300
C -17.064700 -40.979400 -19.758700
C -16.983300 -30.480800 -24.428900
H -16.972500 -33.326000 -16.962300
H -16.960400 -33.585300 -19.236600
H -16.938800 -30.760200 -26.406900
H -16.769200 -29.575500 -24.436900
C -16.643100 -37.562900 -20.982100
H -16.473600 -41.693400 -19.507300
C -16.260300 -39.811900 -20.247200
C -15.818300 -34.996300 -21.630300
H -15.705700 -40.080400 -20.996700
H -15.682400 -39.485100 -19.540900
H -15.537200 -34.137400 -21.850400
C -15.297700 -37.293200 -21.185400
C -14.891000 -36.007900 -21.505100
H -14.669600 -37.974300 -21.107200
H -13.988200 -35.827000 -21.635800
108
Fragment
H -11.676100 -27.109900 -16.078300
H -11.627900 -37.681600 -20.876600
O -11.397100 -36.721500 -20.920200
H -11.382900 -34.457600 -22.164300
H -11.164600 -29.302500 -15.426400
H -11.143800 -34.088300 -20.662000
C -10.806200 -27.307600 -15.723000
H -10.784300 -27.090300 -14.789000
C -10.710700 -34.176500 -21.524800
O -10.575700 -29.037200 -17.306800
C -10.511700 -28.766300 -15.903500
O -10.422500 -29.307600 -19.872700
H -10.359100 -34.131500 -24.422500
C -10.264400 -30.298300 -17.734100
C -10.222600 -30.433100 -19.131800
N -10.191900 -32.877500 -21.926400
H -10.166400 -29.536200 -20.724500
H -10.145800 -26.787700 -16.187200
C -10.136100 -33.229600 -24.425700
H -10.134700 -41.280800 -20.458600
H -10.071700 -40.713000 -18.998000
C -10.063500 -36.525200 -21.116200
C -10.029400 -32.503800 -23.249800
H -10.001700 -31.284800 -16.009400
C -9.981500 -31.374700 -16.934600
C -9.957400 -31.679700 -19.708900
H -9.949700 -33.007700 -26.406900
C -9.929600 -31.764700 -21.168600
C -9.895600 -32.552300 -25.597400
C -9.693200 -31.150000 -23.234100
C -9.665000 -32.602400 -17.508300
N -9.658300 -30.704600 -21.922600
O -9.658100 -38.782800 -20.652900
C -9.654600 -32.757100 -18.868700
C -9.647100 -35.245900 -21.430900
H -9.629300 -28.976300 -15.559400
C -9.571900 -31.191600 -25.596300
C -9.549600 -40.979400 -19.758700
C -9.468200 -30.480800 -24.428900
H -9.457400 -33.326000 -16.962300
H -9.445300 -33.585300 -19.236600
H -9.423700 -30.760200 -26.406900
H -9.254100 -29.575500 -24.436900
C -9.128000 -37.562900 -20.982100
H -8.958500 -41.693400 -19.507300
C -8.745200 -39.811900 -20.247200
C -8.303200 -34.996300 -21.630300
H -8.190600 -40.080400 -20.996700
H -8.167300 -39.485100 -19.540900
H -8.022100 -34.137400 -21.850400
C -7.782600 -37.293200 -21.185400
C -7.375900 -36.007900 -21.505100
H -7.154500 -37.974300 -21.107200
H -6.473100 -35.827000 -21.635800
H -19.191200 -27.109900 -16.078300
H -19.143000 -37.681600 -20.876600
O -18.912200 -36.721500 -20.920200
H -18.898000 -34.457600 -22.164300
H -18.679700 -29.302500 -15.426400
H -18.658900 -34.088300 -20.662000
C -18.321300 -27.307600 -15.723000
H -18.299400 -27.090300 -14.789000
C -18.225800 -34.176500 -21.524800
O -18.090800 -29.037200 -17.306800
C -18.026800 -28.766300 -15.903500
O -17.937600 -29.307600 -19.872700
H -17.874200 -34.131500 -24.422500
C -17.779500 -30.298300 -17.734100
C -17.737700 -30.433100 -19.131800
N -17.707000 -32.877500 -21.926400
H -17.681500 -29.536200 -20.724500
H -17.660900 -26.787700 -16.187200
C -17.651200 -33.229600 -24.425700
H -17.649800 -41.280800 -20.458600
H -17.586800 -40.713000 -18.998000
C -17.578600 -36.525200 -21.116200
C -17.544500 -32.503800 -23.249800
H -17.516800 -31.284800 -16.009400
C -17.496600 -31.374700 -16.934600
C -17.472500 -31.679700 -19.708900
H -17.464800 -33.007700 -26.406900
C -17.444700 -31.764700 -21.168600
C -17.410700 -32.552300 -25.597400
C -17.208300 -31.150000 -23.234100
C -17.180100 -32.602400 -17.508300
N -17.173400 -30.704600 -21.922600
O -17.173200 -38.782800 -20.652900
C -17.169700 -32.757100 -18.868700
C -17.162200 -35.245900 -21.430900
H -17.144400 -28.976300 -15.559400
C -17.087000 -31.191600 -25.596300
C -17.064700 -40.979400 -19.758700
C -16.983300 -30.480800 -24.428900
H -16.972500 -33.326000 -16.962300
H -16.960400 -33.585300 -19.236600
H -16.938800 -30.760200 -26.406900
H -16.769200 -29.575500 -24.436900
C -16.643100 -37.562900 -20.982100
H -16.473600 -41.693400 -19.507300
C -16.260300 -39.811900 -20.247200
C -15.818300 -34.996300 -21.630300
H -15.705700 -40.080400 -20.996700
H -15.682400 -39.485100 -19.540900
H -15.537200 -34.137400 -21.850400
C -15.297700 -37.293200 -21.185400
C -14.891000 -36.007900 -21.505100
H -14.669600 -37.974300 -21.107200
H -13.988200 -35.827000 -21.635800
