16
Fragment
H -11.382600 -16.414600 -9.901100
H -11.117700 -18.741800 -10.540500
N -10.754100 -16.465300 -9.347000
H -10.434500 -15.684200 -9.126100
C -10.204200 -18.681100 -10.196300
C -9.837900 -17.494000 -9.558800
H -9.596400 -20.611000 -10.792400
C -9.320700 -19.729700 -10.321600
C -8.537600 -17.407300 -9.054400
H -8.261900 -16.526000 -8.583600
C -8.020500 -19.643000 -9.817200
C -7.654100 -18.455900 -9.179700
H -7.423900 -21.452800 -10.249900
N -7.104300 -20.671700 -10.029000
H -6.740700 -18.395200 -8.835400
H -6.475700 -20.722400 -9.474800
16
Fragment
H -15.878600 -14.532900 -9.901100
H -15.613700 -12.205700 -10.540500
N -15.250100 -14.482200 -9.347000
H -14.930500 -15.263300 -9.126100
C -14.700200 -12.266400 -10.196300
C -14.333900 -13.453500 -9.558800
H -14.092400 -10.336500 -10.792400
C -13.816700 -11.217800 -10.321600
C -13.033600 -13.540200 -9.054400
H -12.757900 -14.421500 -8.583600
C -12.516500 -11.304500 -9.817200
C -12.150100 -12.491600 -9.179700
H -11.919900 -9.494700 -10.249900
N -11.600300 -10.275800 -10.029000
H -11.236700 -12.552300 -8.835400
H -10.971700 -10.225100 -9.474800
32
Fragment
H -11.382600 -16.414600 -9.901100
H -11.117700 -18.741800 -10.540500
N -10.754100 -16.465300 -9.347000
H -10.434500 -15.684200 -9.126100
C -10.204200 -18.681100 -10.196300
C -9.837900 -17.494000 -9.558800
H -9.596400 -20.611000 -10.792400
C -9.320700 -19.729700 -10.321600
C -8.537600 -17.407300 -9.054400
H -8.261900 -16.526000 -8.583600
C -8.020500 -19.643000 -9.817200
C -7.654100 -18.455900 -9.179700
H -7.423900 -21.452800 -10.249900
N -7.104300 -20.671700 -10.029000
H -6.740700 -18.395200 -8.835400
H -6.475700 -20.722400 -9.474800
H -15.878600 -14.532900 -9.901100
H -15.613700 -12.205700 -10.540500
N -15.250100 -14.482200 -9.347000
H -14.930500 -15.263300 -9.126100
C -14.700200 -12.266400 -10.196300
C -14.333900 -13.453500 -9.558800
H -14.092400 -10.336500 -10.792400
C -13.816700 -11.217800 -10.321600
C -13.033600 -13.540200 -9.054400
H -12.757900 -14.421500 -8.583600
C -12.516500 -11.304500 -9.817200
C -12.150100 -12.491600 -9.179700
H -11.919900 -9.494700 -10.249900
N -11.600300 -10.275800 -10.029000
H -11.236700 -12.552300 -8.835400
H -10.971700 -10.225100 -9.474800
