16
Fragment
H -11.382600 -16.414600 -9.901100
H -11.117700 -18.741800 -10.540500
N -10.754100 -16.465300 -9.347000
H -10.434500 -15.684200 -9.126100
C -10.204200 -18.681100 -10.196300
C -9.837900 -17.494000 -9.558800
H -9.596400 -20.611000 -10.792400
C -9.320700 -19.729700 -10.321600
C -8.537600 -17.407300 -9.054400
H -8.261900 -16.526000 -8.583600
C -8.020500 -19.643000 -9.817200
C -7.654100 -18.455900 -9.179700
H -7.423900 -21.452800 -10.249900
N -7.104300 -20.671700 -10.029000
H -6.740700 -18.395200 -8.835400
H -6.475700 -20.722400 -9.474800
16
Fragment
N -9.382600 -14.275500 -7.103900
N -8.946700 -10.539500 -8.280600
C -8.393000 -13.749400 -6.904300
C -8.083800 -11.070500 -7.769800
C -7.145000 -13.059800 -6.669200
C -6.989300 -11.736500 -7.107100
H -6.188400 -14.644400 -5.709500
C -6.110900 -13.701100 -6.019500
C -5.794700 -11.056900 -6.897800
H -5.717100 -10.113600 -7.207900
C -4.916300 -13.021500 -5.810200
C -4.760600 -11.698200 -6.248100
C -3.821800 -13.687500 -5.147500
C -3.512600 -11.008600 -6.013000
N -2.958900 -14.218500 -4.636700
N -2.522900 -10.482500 -5.813400
32
Fragment
H -11.382600 -16.414600 -9.901100
H -11.117700 -18.741800 -10.540500
N -10.754100 -16.465300 -9.347000
H -10.434500 -15.684200 -9.126100
C -10.204200 -18.681100 -10.196300
C -9.837900 -17.494000 -9.558800
H -9.596400 -20.611000 -10.792400
C -9.320700 -19.729700 -10.321600
C -8.537600 -17.407300 -9.054400
H -8.261900 -16.526000 -8.583600
C -8.020500 -19.643000 -9.817200
C -7.654100 -18.455900 -9.179700
H -7.423900 -21.452800 -10.249900
N -7.104300 -20.671700 -10.029000
H -6.740700 -18.395200 -8.835400
H -6.475700 -20.722400 -9.474800
N -9.382600 -14.275500 -7.103900
N -8.946700 -10.539500 -8.280600
C -8.393000 -13.749400 -6.904300
C -8.083800 -11.070500 -7.769800
C -7.145000 -13.059800 -6.669200
C -6.989300 -11.736500 -7.107100
H -6.188400 -14.644400 -5.709500
C -6.110900 -13.701100 -6.019500
C -5.794700 -11.056900 -6.897800
H -5.717100 -10.113600 -7.207900
C -4.916300 -13.021500 -5.810200
C -4.760600 -11.698200 -6.248100
C -3.821800 -13.687500 -5.147500
C -3.512600 -11.008600 -6.013000
N -2.958900 -14.218500 -4.636700
N -2.522900 -10.482500 -5.813400
