16
Fragment
H -11.382600 -16.414600 -9.901100
H -11.117700 -18.741800 -10.540500
N -10.754100 -16.465300 -9.347000
H -10.434500 -15.684200 -9.126100
C -10.204200 -18.681100 -10.196300
C -9.837900 -17.494000 -9.558800
H -9.596400 -20.611000 -10.792400
C -9.320700 -19.729700 -10.321600
C -8.537600 -17.407300 -9.054400
H -8.261900 -16.526000 -8.583600
C -8.020500 -19.643000 -9.817200
C -7.654100 -18.455900 -9.179700
H -7.423900 -21.452800 -10.249900
N -7.104300 -20.671700 -10.029000
H -6.740700 -18.395200 -8.835400
H -6.475700 -20.722400 -9.474800
16
Fragment
N -15.335400 -26.654500 -13.562500
N -14.899500 -22.918500 -14.739300
C -14.345800 -26.128400 -13.363000
C -14.036600 -23.449500 -14.228400
C -13.097700 -25.438800 -13.127900
C -12.942000 -24.115500 -13.565800
H -12.141200 -27.023400 -12.168100
C -12.063700 -26.080100 -12.478100
C -11.747500 -23.435900 -13.356500
H -11.669900 -22.492600 -13.666500
C -10.869100 -25.400500 -12.268900
C -10.713400 -24.077200 -12.706800
C -9.774600 -26.066500 -11.606200
C -9.465300 -23.387600 -12.471700
N -8.911700 -26.597500 -11.095300
N -8.475700 -22.861500 -12.272100
32
Fragment
H -11.382600 -16.414600 -9.901100
H -11.117700 -18.741800 -10.540500
N -10.754100 -16.465300 -9.347000
H -10.434500 -15.684200 -9.126100
C -10.204200 -18.681100 -10.196300
C -9.837900 -17.494000 -9.558800
H -9.596400 -20.611000 -10.792400
C -9.320700 -19.729700 -10.321600
C -8.537600 -17.407300 -9.054400
H -8.261900 -16.526000 -8.583600
C -8.020500 -19.643000 -9.817200
C -7.654100 -18.455900 -9.179700
H -7.423900 -21.452800 -10.249900
N -7.104300 -20.671700 -10.029000
H -6.740700 -18.395200 -8.835400
H -6.475700 -20.722400 -9.474800
N -15.335400 -26.654500 -13.562500
N -14.899500 -22.918500 -14.739300
C -14.345800 -26.128400 -13.363000
C -14.036600 -23.449500 -14.228400
C -13.097700 -25.438800 -13.127900
C -12.942000 -24.115500 -13.565800
H -12.141200 -27.023400 -12.168100
C -12.063700 -26.080100 -12.478100
C -11.747500 -23.435900 -13.356500
H -11.669900 -22.492600 -13.666500
C -10.869100 -25.400500 -12.268900
C -10.713400 -24.077200 -12.706800
C -9.774600 -26.066500 -11.606200
C -9.465300 -23.387600 -12.471700
N -8.911700 -26.597500 -11.095300
N -8.475700 -22.861500 -12.272100
