24
Fragment
O -14.296200 -13.784900 -16.464700
O -13.644600 -14.696300 -14.612300
N -13.449400 -14.138400 -15.673900
O -12.095800 -16.671900 -16.170000
C -12.051600 -13.828800 -15.987800
N -11.738600 -12.562000 -16.080100
H -11.174500 -10.401700 -16.094500
N -11.007700 -16.119700 -16.164000
C -10.976800 -14.721400 -16.104100
N -10.373900 -12.613300 -16.261000
N -10.272100 -10.361500 -16.316200
O -9.924200 -16.708300 -16.233500
C -9.851700 -13.891300 -16.282600
H -9.799700 -9.638600 -16.402400
C -9.616400 -11.480900 -16.364100
N -8.573300 -14.152400 -16.444400
C -8.240000 -11.733700 -16.521000
O -7.844300 -9.484700 -16.716400
C -7.742000 -13.079700 -16.553400
N -7.357800 -10.634900 -16.644500
N -6.477600 -13.409000 -16.706800
H -6.191000 -14.370700 -16.704400
O -6.144600 -10.807400 -16.680400
H -5.816900 -12.801700 -16.858900
6
Fragment
H -15.100100 -11.477200 -18.939100
H -14.288800 -10.147000 -18.768900
C -14.283000 -11.093800 -18.611900
H -14.204900 -11.261700 -17.670100
O -13.192300 -11.673100 -19.282900
H -12.466500 -10.981900 -19.078000
30
Fragment
O -14.296200 -13.784900 -16.464700
O -13.644600 -14.696300 -14.612300
N -13.449400 -14.138400 -15.673900
O -12.095800 -16.671900 -16.170000
C -12.051600 -13.828800 -15.987800
N -11.738600 -12.562000 -16.080100
H -11.174500 -10.401700 -16.094500
N -11.007700 -16.119700 -16.164000
C -10.976800 -14.721400 -16.104100
N -10.373900 -12.613300 -16.261000
N -10.272100 -10.361500 -16.316200
O -9.924200 -16.708300 -16.233500
C -9.851700 -13.891300 -16.282600
H -9.799700 -9.638600 -16.402400
C -9.616400 -11.480900 -16.364100
N -8.573300 -14.152400 -16.444400
C -8.240000 -11.733700 -16.521000
O -7.844300 -9.484700 -16.716400
C -7.742000 -13.079700 -16.553400
N -7.357800 -10.634900 -16.644500
N -6.477600 -13.409000 -16.706800
H -6.191000 -14.370700 -16.704400
O -6.144600 -10.807400 -16.680400
H -5.816900 -12.801700 -16.858900
H -15.100100 -11.477200 -18.939100
H -14.288800 -10.147000 -18.768900
C -14.283000 -11.093800 -18.611900
H -14.204900 -11.261700 -17.670100
O -13.192300 -11.673100 -19.282900
H -12.466500 -10.981900 -19.078000
