24
Fragment
O -14.296200 -13.784900 -16.464700
O -13.644600 -14.696300 -14.612300
N -13.449400 -14.138400 -15.673900
O -12.095800 -16.671900 -16.170000
C -12.051600 -13.828800 -15.987800
N -11.738600 -12.562000 -16.080100
H -11.174500 -10.401700 -16.094500
N -11.007700 -16.119700 -16.164000
C -10.976800 -14.721400 -16.104100
N -10.373900 -12.613300 -16.261000
N -10.272100 -10.361500 -16.316200
O -9.924200 -16.708300 -16.233500
C -9.851700 -13.891300 -16.282600
H -9.799700 -9.638600 -16.402400
C -9.616400 -11.480900 -16.364100
N -8.573300 -14.152400 -16.444400
C -8.240000 -11.733700 -16.521000
O -7.844300 -9.484700 -16.716400
C -7.742000 -13.079700 -16.553400
N -7.357800 -10.634900 -16.644500
N -6.477600 -13.409000 -16.706800
H -6.191000 -14.370700 -16.704400
O -6.144600 -10.807400 -16.680400
H -5.816900 -12.801700 -16.858900
24
Fragment
O -25.145200 -13.784900 -16.464700
O -24.493600 -14.696300 -14.612300
N -24.298400 -14.138400 -15.673900
O -22.944800 -16.671900 -16.170000
C -22.900600 -13.828800 -15.987800
N -22.587600 -12.562000 -16.080100
H -22.023500 -10.401700 -16.094500
N -21.856700 -16.119700 -16.164000
C -21.825800 -14.721400 -16.104100
N -21.222900 -12.613300 -16.261000
N -21.121100 -10.361500 -16.316200
O -20.773200 -16.708300 -16.233500
C -20.700700 -13.891300 -16.282600
H -20.648700 -9.638600 -16.402400
C -20.465400 -11.480900 -16.364100
N -19.422300 -14.152400 -16.444400
C -19.089000 -11.733700 -16.521000
O -18.693300 -9.484700 -16.716400
C -18.591000 -13.079700 -16.553400
N -18.206800 -10.634900 -16.644500
N -17.326600 -13.409000 -16.706800
H -17.040000 -14.370700 -16.704400
O -16.993600 -10.807400 -16.680400
H -16.665900 -12.801700 -16.858900
48
Fragment
O -14.296200 -13.784900 -16.464700
O -13.644600 -14.696300 -14.612300
N -13.449400 -14.138400 -15.673900
O -12.095800 -16.671900 -16.170000
C -12.051600 -13.828800 -15.987800
N -11.738600 -12.562000 -16.080100
H -11.174500 -10.401700 -16.094500
N -11.007700 -16.119700 -16.164000
C -10.976800 -14.721400 -16.104100
N -10.373900 -12.613300 -16.261000
N -10.272100 -10.361500 -16.316200
O -9.924200 -16.708300 -16.233500
C -9.851700 -13.891300 -16.282600
H -9.799700 -9.638600 -16.402400
C -9.616400 -11.480900 -16.364100
N -8.573300 -14.152400 -16.444400
C -8.240000 -11.733700 -16.521000
O -7.844300 -9.484700 -16.716400
C -7.742000 -13.079700 -16.553400
N -7.357800 -10.634900 -16.644500
N -6.477600 -13.409000 -16.706800
H -6.191000 -14.370700 -16.704400
O -6.144600 -10.807400 -16.680400
H -5.816900 -12.801700 -16.858900
O -25.145200 -13.784900 -16.464700
O -24.493600 -14.696300 -14.612300
N -24.298400 -14.138400 -15.673900
O -22.944800 -16.671900 -16.170000
C -22.900600 -13.828800 -15.987800
N -22.587600 -12.562000 -16.080100
H -22.023500 -10.401700 -16.094500
N -21.856700 -16.119700 -16.164000
C -21.825800 -14.721400 -16.104100
N -21.222900 -12.613300 -16.261000
N -21.121100 -10.361500 -16.316200
O -20.773200 -16.708300 -16.233500
C -20.700700 -13.891300 -16.282600
H -20.648700 -9.638600 -16.402400
C -20.465400 -11.480900 -16.364100
N -19.422300 -14.152400 -16.444400
C -19.089000 -11.733700 -16.521000
O -18.693300 -9.484700 -16.716400
C -18.591000 -13.079700 -16.553400
N -18.206800 -10.634900 -16.644500
N -17.326600 -13.409000 -16.706800
H -17.040000 -14.370700 -16.704400
O -16.993600 -10.807400 -16.680400
H -16.665900 -12.801700 -16.858900
