24
Fragment
O -14.296200 -13.784900 -16.464700
O -13.644600 -14.696300 -14.612300
N -13.449400 -14.138400 -15.673900
O -12.095800 -16.671900 -16.170000
C -12.051600 -13.828800 -15.987800
N -11.738600 -12.562000 -16.080100
H -11.174500 -10.401700 -16.094500
N -11.007700 -16.119700 -16.164000
C -10.976800 -14.721400 -16.104100
N -10.373900 -12.613300 -16.261000
N -10.272100 -10.361500 -16.316200
O -9.924200 -16.708300 -16.233500
C -9.851700 -13.891300 -16.282600
H -9.799700 -9.638600 -16.402400
C -9.616400 -11.480900 -16.364100
N -8.573300 -14.152400 -16.444400
C -8.240000 -11.733700 -16.521000
O -7.844300 -9.484700 -16.716400
C -7.742000 -13.079700 -16.553400
N -7.357800 -10.634900 -16.644500
N -6.477600 -13.409000 -16.706800
H -6.191000 -14.370700 -16.704400
O -6.144600 -10.807400 -16.680400
H -5.816900 -12.801700 -16.858900
24
Fragment
H -10.193800 -17.465700 -13.096500
O -9.866100 -15.471400 -13.275100
H -9.819700 -19.034700 -13.251100
N -9.533100 -18.073000 -13.248700
N -8.652900 -15.298900 -13.311000
C -8.268700 -17.743700 -13.402100
O -8.166400 -14.148700 -13.239100
C -7.770700 -16.397700 -13.434400
N -7.437400 -18.816400 -13.511100
C -6.394300 -16.144900 -13.591400
H -6.211100 -14.302600 -13.553100
C -6.159000 -18.555300 -13.672900
O -6.086600 -21.372300 -13.722000
N -5.738600 -15.025500 -13.639300
N -5.636800 -17.277300 -13.694400
C -5.033900 -19.385400 -13.851400
N -5.003000 -20.783700 -13.791500
H -4.836200 -15.065700 -13.861000
N -4.272100 -17.226000 -13.875400
C -3.959100 -18.492800 -13.967600
O -3.914900 -21.335900 -13.785500
N -2.561400 -18.802400 -14.281600
O -2.366100 -19.360300 -15.343200
O -1.714500 -18.448900 -13.490700
48
Fragment
O -14.296200 -13.784900 -16.464700
O -13.644600 -14.696300 -14.612300
N -13.449400 -14.138400 -15.673900
O -12.095800 -16.671900 -16.170000
C -12.051600 -13.828800 -15.987800
N -11.738600 -12.562000 -16.080100
H -11.174500 -10.401700 -16.094500
N -11.007700 -16.119700 -16.164000
C -10.976800 -14.721400 -16.104100
N -10.373900 -12.613300 -16.261000
N -10.272100 -10.361500 -16.316200
O -9.924200 -16.708300 -16.233500
C -9.851700 -13.891300 -16.282600
H -9.799700 -9.638600 -16.402400
C -9.616400 -11.480900 -16.364100
N -8.573300 -14.152400 -16.444400
C -8.240000 -11.733700 -16.521000
O -7.844300 -9.484700 -16.716400
C -7.742000 -13.079700 -16.553400
N -7.357800 -10.634900 -16.644500
N -6.477600 -13.409000 -16.706800
H -6.191000 -14.370700 -16.704400
O -6.144600 -10.807400 -16.680400
H -5.816900 -12.801700 -16.858900
H -10.193800 -17.465700 -13.096500
O -9.866100 -15.471400 -13.275100
H -9.819700 -19.034700 -13.251100
N -9.533100 -18.073000 -13.248700
N -8.652900 -15.298900 -13.311000
C -8.268700 -17.743700 -13.402100
O -8.166400 -14.148700 -13.239100
C -7.770700 -16.397700 -13.434400
N -7.437400 -18.816400 -13.511100
C -6.394300 -16.144900 -13.591400
H -6.211100 -14.302600 -13.553100
C -6.159000 -18.555300 -13.672900
O -6.086600 -21.372300 -13.722000
N -5.738600 -15.025500 -13.639300
N -5.636800 -17.277300 -13.694400
C -5.033900 -19.385400 -13.851400
N -5.003000 -20.783700 -13.791500
H -4.836200 -15.065700 -13.861000
N -4.272100 -17.226000 -13.875400
C -3.959100 -18.492800 -13.967600
O -3.914900 -21.335900 -13.785500
N -2.561400 -18.802400 -14.281600
O -2.366100 -19.360300 -15.343200
O -1.714500 -18.448900 -13.490700
