24
Fragment
O -14.296200 -13.784900 -16.464700
O -13.644600 -14.696300 -14.612300
N -13.449400 -14.138400 -15.673900
O -12.095800 -16.671900 -16.170000
C -12.051600 -13.828800 -15.987800
N -11.738600 -12.562000 -16.080100
H -11.174500 -10.401700 -16.094500
N -11.007700 -16.119700 -16.164000
C -10.976800 -14.721400 -16.104100
N -10.373900 -12.613300 -16.261000
N -10.272100 -10.361500 -16.316200
O -9.924200 -16.708300 -16.233500
C -9.851700 -13.891300 -16.282600
H -9.799700 -9.638600 -16.402400
C -9.616400 -11.480900 -16.364100
N -8.573300 -14.152400 -16.444400
C -8.240000 -11.733700 -16.521000
O -7.844300 -9.484700 -16.716400
C -7.742000 -13.079700 -16.553400
N -7.357800 -10.634900 -16.644500
N -6.477600 -13.409000 -16.706800
H -6.191000 -14.370700 -16.704400
O -6.144600 -10.807400 -16.680400
H -5.816900 -12.801700 -16.858900
24
Fragment
H -24.245000 -15.182300 -19.087600
O -23.917300 -17.176600 -19.266200
H -23.870800 -13.613300 -19.242200
N -23.584200 -14.575000 -19.239800
N -22.704100 -17.349100 -19.302100
C -22.319800 -14.904300 -19.393200
O -22.217600 -18.499300 -19.230200
C -21.821800 -16.250300 -19.425500
N -21.488500 -13.831600 -19.502200
C -20.445400 -16.503100 -19.582500
H -20.262200 -18.345400 -19.544200
C -20.210200 -14.092700 -19.664000
O -20.137700 -11.275700 -19.713100
N -19.789700 -17.622500 -19.630400
N -19.687900 -15.370700 -19.685500
C -19.085100 -13.262600 -19.842500
N -19.054100 -11.864300 -19.782600
H -18.887300 -17.582300 -19.852100
N -18.323300 -15.422000 -19.866500
C -18.010200 -14.155200 -19.958700
O -17.966000 -11.312100 -19.776600
N -16.612500 -13.845600 -20.272700
O -16.417200 -13.287700 -21.334300
O -15.765600 -14.199100 -19.481800
48
Fragment
O -14.296200 -13.784900 -16.464700
O -13.644600 -14.696300 -14.612300
N -13.449400 -14.138400 -15.673900
O -12.095800 -16.671900 -16.170000
C -12.051600 -13.828800 -15.987800
N -11.738600 -12.562000 -16.080100
H -11.174500 -10.401700 -16.094500
N -11.007700 -16.119700 -16.164000
C -10.976800 -14.721400 -16.104100
N -10.373900 -12.613300 -16.261000
N -10.272100 -10.361500 -16.316200
O -9.924200 -16.708300 -16.233500
C -9.851700 -13.891300 -16.282600
H -9.799700 -9.638600 -16.402400
C -9.616400 -11.480900 -16.364100
N -8.573300 -14.152400 -16.444400
C -8.240000 -11.733700 -16.521000
O -7.844300 -9.484700 -16.716400
C -7.742000 -13.079700 -16.553400
N -7.357800 -10.634900 -16.644500
N -6.477600 -13.409000 -16.706800
H -6.191000 -14.370700 -16.704400
O -6.144600 -10.807400 -16.680400
H -5.816900 -12.801700 -16.858900
H -24.245000 -15.182300 -19.087600
O -23.917300 -17.176600 -19.266200
H -23.870800 -13.613300 -19.242200
N -23.584200 -14.575000 -19.239800
N -22.704100 -17.349100 -19.302100
C -22.319800 -14.904300 -19.393200
O -22.217600 -18.499300 -19.230200
C -21.821800 -16.250300 -19.425500
N -21.488500 -13.831600 -19.502200
C -20.445400 -16.503100 -19.582500
H -20.262200 -18.345400 -19.544200
C -20.210200 -14.092700 -19.664000
O -20.137700 -11.275700 -19.713100
N -19.789700 -17.622500 -19.630400
N -19.687900 -15.370700 -19.685500
C -19.085100 -13.262600 -19.842500
N -19.054100 -11.864300 -19.782600
H -18.887300 -17.582300 -19.852100
N -18.323300 -15.422000 -19.866500
C -18.010200 -14.155200 -19.958700
O -17.966000 -11.312100 -19.776600
N -16.612500 -13.845600 -20.272700
O -16.417200 -13.287700 -21.334300
O -15.765600 -14.199100 -19.481800
