24
Fragment
O -14.296200 -13.784900 -16.464700
O -13.644600 -14.696300 -14.612300
N -13.449400 -14.138400 -15.673900
O -12.095800 -16.671900 -16.170000
C -12.051600 -13.828800 -15.987800
N -11.738600 -12.562000 -16.080100
H -11.174500 -10.401700 -16.094500
N -11.007700 -16.119700 -16.164000
C -10.976800 -14.721400 -16.104100
N -10.373900 -12.613300 -16.261000
N -10.272100 -10.361500 -16.316200
O -9.924200 -16.708300 -16.233500
C -9.851700 -13.891300 -16.282600
H -9.799700 -9.638600 -16.402400
C -9.616400 -11.480900 -16.364100
N -8.573300 -14.152400 -16.444400
C -8.240000 -11.733700 -16.521000
O -7.844300 -9.484700 -16.716400
C -7.742000 -13.079700 -16.553400
N -7.357800 -10.634900 -16.644500
N -6.477600 -13.409000 -16.706800
H -6.191000 -14.370700 -16.704400
O -6.144600 -10.807400 -16.680400
H -5.816900 -12.801700 -16.858900
24
Fragment
H -13.396000 -5.854300 -19.087600
O -13.068300 -7.848600 -19.266200
H -13.021800 -4.285300 -19.242200
N -12.735200 -5.247000 -19.239800
N -11.855100 -8.021100 -19.302100
C -11.470800 -5.576300 -19.393200
O -11.368600 -9.171300 -19.230200
C -10.972800 -6.922300 -19.425500
N -10.639500 -4.503600 -19.502200
C -9.596400 -7.175100 -19.582500
H -9.413200 -9.017400 -19.544200
C -9.361200 -4.764700 -19.664000
O -9.288700 -1.947700 -19.713100
N -8.940700 -8.294500 -19.630400
N -8.838900 -6.042700 -19.685500
C -8.236100 -3.934600 -19.842500
N -8.205100 -2.536300 -19.782600
H -8.038300 -8.254300 -19.852100
N -7.474300 -6.094000 -19.866500
C -7.161200 -4.827200 -19.958700
O -7.117000 -1.984100 -19.776600
N -5.763500 -4.517600 -20.272700
O -5.568200 -3.959700 -21.334300
O -4.916600 -4.871100 -19.481800
48
Fragment
O -14.296200 -13.784900 -16.464700
O -13.644600 -14.696300 -14.612300
N -13.449400 -14.138400 -15.673900
O -12.095800 -16.671900 -16.170000
C -12.051600 -13.828800 -15.987800
N -11.738600 -12.562000 -16.080100
H -11.174500 -10.401700 -16.094500
N -11.007700 -16.119700 -16.164000
C -10.976800 -14.721400 -16.104100
N -10.373900 -12.613300 -16.261000
N -10.272100 -10.361500 -16.316200
O -9.924200 -16.708300 -16.233500
C -9.851700 -13.891300 -16.282600
H -9.799700 -9.638600 -16.402400
C -9.616400 -11.480900 -16.364100
N -8.573300 -14.152400 -16.444400
C -8.240000 -11.733700 -16.521000
O -7.844300 -9.484700 -16.716400
C -7.742000 -13.079700 -16.553400
N -7.357800 -10.634900 -16.644500
N -6.477600 -13.409000 -16.706800
H -6.191000 -14.370700 -16.704400
O -6.144600 -10.807400 -16.680400
H -5.816900 -12.801700 -16.858900
H -13.396000 -5.854300 -19.087600
O -13.068300 -7.848600 -19.266200
H -13.021800 -4.285300 -19.242200
N -12.735200 -5.247000 -19.239800
N -11.855100 -8.021100 -19.302100
C -11.470800 -5.576300 -19.393200
O -11.368600 -9.171300 -19.230200
C -10.972800 -6.922300 -19.425500
N -10.639500 -4.503600 -19.502200
C -9.596400 -7.175100 -19.582500
H -9.413200 -9.017400 -19.544200
C -9.361200 -4.764700 -19.664000
O -9.288700 -1.947700 -19.713100
N -8.940700 -8.294500 -19.630400
N -8.838900 -6.042700 -19.685500
C -8.236100 -3.934600 -19.842500
N -8.205100 -2.536300 -19.782600
H -8.038300 -8.254300 -19.852100
N -7.474300 -6.094000 -19.866500
C -7.161200 -4.827200 -19.958700
O -7.117000 -1.984100 -19.776600
N -5.763500 -4.517600 -20.272700
O -5.568200 -3.959700 -21.334300
O -4.916600 -4.871100 -19.481800
