30
Fragment
H -28.898300 -10.076400 -18.454900
H -28.887600 -12.168700 -18.414100
H -28.799800 -11.933300 -21.117400
H -28.329400 -10.440700 -21.194400
C -28.232100 -11.148500 -18.495600
C -28.049600 -11.342200 -21.017800
H -27.534100 -11.052700 -17.744000
N -27.438400 -11.468900 -19.669900
H -26.949900 -12.681400 -22.160400
C -26.887600 -11.758300 -21.903800
H -26.838700 -11.211100 -22.691600
C -26.105000 -11.509900 -19.754400
N -25.715600 -11.517100 -21.051000
N -25.311800 -11.569700 -18.678300
C -24.367300 -11.940500 -21.369400
H -24.304100 -12.896600 -21.319600
H -24.134100 -11.648900 -22.253900
C -23.961000 -11.559600 -18.924300
C -23.444400 -11.337100 -20.341600
H -23.438200 -11.801500 -17.004400
H -23.436200 -10.391000 -20.504600
C -23.083200 -11.648900 -17.884300
H -22.027000 -12.795100 -20.453300
C -22.020200 -11.836100 -20.503100
H -21.682800 -11.561800 -21.358900
C -21.670400 -11.536600 -18.018700
C -21.098000 -11.317700 -19.414800
H -20.976500 -10.374500 -19.547700
O -20.868800 -11.570400 -17.033100
H -20.246900 -11.760500 -19.473700
30
Fragment
H -37.235600 -9.839500 -25.807000
O -36.613700 -10.029600 -28.247600
H -36.506000 -11.225500 -25.733000
C -36.384500 -10.282300 -25.865800
C -35.812100 -10.063400 -27.262000
H -35.799700 -10.038200 -23.921800
C -35.462300 -9.763900 -24.777600
H -35.455400 -8.804900 -24.827400
C -34.399300 -9.951100 -27.396300
H -34.046200 -11.209000 -24.776100
H -34.044200 -9.798500 -28.276300
C -34.038000 -10.262900 -24.939100
C -33.521500 -10.040400 -26.356400
H -33.348400 -9.951100 -23.026700
H -33.178400 -8.703400 -23.961000
C -33.115100 -9.659500 -23.911200
N -32.170700 -10.030300 -26.602400
N -31.766900 -10.082900 -24.229700
C -31.377400 -10.090100 -25.526200
H -30.643800 -10.388900 -22.589000
C -30.594900 -9.841700 -23.376900
H -30.532600 -8.918600 -23.120300
N -30.044000 -10.131100 -25.610700
H -29.948400 -10.547300 -27.536700
C -29.432800 -10.257800 -24.262900
C -29.250400 -10.451500 -26.785000
H -29.153000 -11.159300 -24.086300
H -28.682700 -9.666700 -24.163300
H -28.594800 -9.431300 -26.866500
H -28.584200 -11.523600 -26.825800
60
Fragment
H -28.898300 -10.076400 -18.454900
H -28.887600 -12.168700 -18.414100
H -28.799800 -11.933300 -21.117400
H -28.329400 -10.440700 -21.194400
C -28.232100 -11.148500 -18.495600
C -28.049600 -11.342200 -21.017800
H -27.534100 -11.052700 -17.744000
N -27.438400 -11.468900 -19.669900
H -26.949900 -12.681400 -22.160400
C -26.887600 -11.758300 -21.903800
H -26.838700 -11.211100 -22.691600
C -26.105000 -11.509900 -19.754400
N -25.715600 -11.517100 -21.051000
N -25.311800 -11.569700 -18.678300
C -24.367300 -11.940500 -21.369400
H -24.304100 -12.896600 -21.319600
H -24.134100 -11.648900 -22.253900
C -23.961000 -11.559600 -18.924300
C -23.444400 -11.337100 -20.341600
H -23.438200 -11.801500 -17.004400
H -23.436200 -10.391000 -20.504600
C -23.083200 -11.648900 -17.884300
H -22.027000 -12.795100 -20.453300
C -22.020200 -11.836100 -20.503100
H -21.682800 -11.561800 -21.358900
C -21.670400 -11.536600 -18.018700
C -21.098000 -11.317700 -19.414800
H -20.976500 -10.374500 -19.547700
O -20.868800 -11.570400 -17.033100
H -20.246900 -11.760500 -19.473700
H -37.235600 -9.839500 -25.807000
O -36.613700 -10.029600 -28.247600
H -36.506000 -11.225500 -25.733000
C -36.384500 -10.282300 -25.865800
C -35.812100 -10.063400 -27.262000
H -35.799700 -10.038200 -23.921800
C -35.462300 -9.763900 -24.777600
H -35.455400 -8.804900 -24.827400
C -34.399300 -9.951100 -27.396300
H -34.046200 -11.209000 -24.776100
H -34.044200 -9.798500 -28.276300
C -34.038000 -10.262900 -24.939100
C -33.521500 -10.040400 -26.356400
H -33.348400 -9.951100 -23.026700
H -33.178400 -8.703400 -23.961000
C -33.115100 -9.659500 -23.911200
N -32.170700 -10.030300 -26.602400
N -31.766900 -10.082900 -24.229700
C -31.377400 -10.090100 -25.526200
H -30.643800 -10.388900 -22.589000
C -30.594900 -9.841700 -23.376900
H -30.532600 -8.918600 -23.120300
N -30.044000 -10.131100 -25.610700
H -29.948400 -10.547300 -27.536700
C -29.432800 -10.257800 -24.262900
C -29.250400 -10.451500 -26.785000
H -29.153000 -11.159300 -24.086300
H -28.682700 -9.666700 -24.163300
H -28.594800 -9.431300 -26.866500
H -28.584200 -11.523600 -26.825800
