30
Fragment
H -28.898300 -10.076400 -18.454900
H -28.887600 -12.168700 -18.414100
H -28.799800 -11.933300 -21.117400
H -28.329400 -10.440700 -21.194400
C -28.232100 -11.148500 -18.495600
C -28.049600 -11.342200 -21.017800
H -27.534100 -11.052700 -17.744000
N -27.438400 -11.468900 -19.669900
H -26.949900 -12.681400 -22.160400
C -26.887600 -11.758300 -21.903800
H -26.838700 -11.211100 -22.691600
C -26.105000 -11.509900 -19.754400
N -25.715600 -11.517100 -21.051000
N -25.311800 -11.569700 -18.678300
C -24.367300 -11.940500 -21.369400
H -24.304100 -12.896600 -21.319600
H -24.134100 -11.648900 -22.253900
C -23.961000 -11.559600 -18.924300
C -23.444400 -11.337100 -20.341600
H -23.438200 -11.801500 -17.004400
H -23.436200 -10.391000 -20.504600
C -23.083200 -11.648900 -17.884300
H -22.027000 -12.795100 -20.453300
C -22.020200 -11.836100 -20.503100
H -21.682800 -11.561800 -21.358900
C -21.670400 -11.536600 -18.018700
C -21.098000 -11.317700 -19.414800
H -20.976500 -10.374500 -19.547700
O -20.868800 -11.570400 -17.033100
H -20.246900 -11.760500 -19.473700
30
Fragment
H -27.655200 -15.360500 -18.260200
O -27.033300 -15.170400 -20.700800
H -26.925500 -13.974500 -18.186200
C -26.804100 -14.917700 -18.319000
C -26.231700 -15.136600 -19.715200
H -26.219200 -15.161800 -16.375000
C -25.881900 -15.436100 -17.230800
H -25.875000 -16.395100 -17.280600
C -24.818900 -15.248900 -19.849500
H -24.465800 -13.991000 -17.229300
H -24.463800 -15.401500 -20.729500
C -24.457600 -14.937100 -17.392300
C -23.941100 -15.159600 -18.809600
H -23.768000 -15.248900 -15.479900
H -23.597900 -16.496600 -16.414200
C -23.534700 -15.540500 -16.364400
N -22.590300 -15.169700 -19.055600
N -22.186500 -15.117100 -16.682900
C -21.797000 -15.109900 -17.979400
H -21.063400 -14.811100 -15.042200
C -21.014400 -15.358300 -15.830100
H -20.952200 -16.281400 -15.573500
N -20.463600 -15.068900 -18.064000
H -20.367900 -14.652700 -19.989900
C -19.852400 -14.942200 -16.716100
C -19.670000 -14.748500 -19.238200
H -19.572600 -14.040700 -16.539500
H -19.102300 -15.533300 -16.616500
H -19.014400 -15.768700 -19.319700
H -19.003800 -13.676400 -19.279000
60
Fragment
H -28.898300 -10.076400 -18.454900
H -28.887600 -12.168700 -18.414100
H -28.799800 -11.933300 -21.117400
H -28.329400 -10.440700 -21.194400
C -28.232100 -11.148500 -18.495600
C -28.049600 -11.342200 -21.017800
H -27.534100 -11.052700 -17.744000
N -27.438400 -11.468900 -19.669900
H -26.949900 -12.681400 -22.160400
C -26.887600 -11.758300 -21.903800
H -26.838700 -11.211100 -22.691600
C -26.105000 -11.509900 -19.754400
N -25.715600 -11.517100 -21.051000
N -25.311800 -11.569700 -18.678300
C -24.367300 -11.940500 -21.369400
H -24.304100 -12.896600 -21.319600
H -24.134100 -11.648900 -22.253900
C -23.961000 -11.559600 -18.924300
C -23.444400 -11.337100 -20.341600
H -23.438200 -11.801500 -17.004400
H -23.436200 -10.391000 -20.504600
C -23.083200 -11.648900 -17.884300
H -22.027000 -12.795100 -20.453300
C -22.020200 -11.836100 -20.503100
H -21.682800 -11.561800 -21.358900
C -21.670400 -11.536600 -18.018700
C -21.098000 -11.317700 -19.414800
H -20.976500 -10.374500 -19.547700
O -20.868800 -11.570400 -17.033100
H -20.246900 -11.760500 -19.473700
H -27.655200 -15.360500 -18.260200
O -27.033300 -15.170400 -20.700800
H -26.925500 -13.974500 -18.186200
C -26.804100 -14.917700 -18.319000
C -26.231700 -15.136600 -19.715200
H -26.219200 -15.161800 -16.375000
C -25.881900 -15.436100 -17.230800
H -25.875000 -16.395100 -17.280600
C -24.818900 -15.248900 -19.849500
H -24.465800 -13.991000 -17.229300
H -24.463800 -15.401500 -20.729500
C -24.457600 -14.937100 -17.392300
C -23.941100 -15.159600 -18.809600
H -23.768000 -15.248900 -15.479900
H -23.597900 -16.496600 -16.414200
C -23.534700 -15.540500 -16.364400
N -22.590300 -15.169700 -19.055600
N -22.186500 -15.117100 -16.682900
C -21.797000 -15.109900 -17.979400
H -21.063400 -14.811100 -15.042200
C -21.014400 -15.358300 -15.830100
H -20.952200 -16.281400 -15.573500
N -20.463600 -15.068900 -18.064000
H -20.367900 -14.652700 -19.989900
C -19.852400 -14.942200 -16.716100
C -19.670000 -14.748500 -19.238200
H -19.572600 -14.040700 -16.539500
H -19.102300 -15.533300 -16.616500
H -19.014400 -15.768700 -19.319700
H -19.003800 -13.676400 -19.279000
