20
Fragment
H -10.614300 -11.603500 -11.203800
H -9.955800 -13.525200 -9.898000
N -9.869200 -12.027700 -11.270200
O -9.714100 -11.283800 -8.310300
O -9.371900 -11.373700 -13.409000
C -9.336600 -12.820700 -10.182500
C -9.141700 -11.997800 -12.364500
C -8.925000 -11.896000 -9.015100
C -8.025900 -13.387600 -10.723100
H -7.981800 -14.365800 -10.683800
C -7.888500 -12.829800 -12.157100
H -7.793500 -13.538600 -12.827700
N -7.593000 -11.899600 -8.928700
H -7.174200 -11.457000 -8.322000
C -6.898700 -12.692700 -9.916900
N -6.724600 -11.947800 -12.110200
H -6.416400 -11.557300 -12.811200
H -6.289300 -13.340400 -9.505900
C -6.181800 -11.790600 -10.923000
O -5.271400 -11.034900 -10.606700
20
Fragment
O -5.874800 -10.257300 -14.392600
H -4.871600 -7.991100 -13.176600
C -4.860900 -9.582400 -14.525800
H -4.295900 -9.954000 -16.340300
H -4.282800 -9.896200 -11.802000
C -4.253300 -8.694900 -13.464400
N -4.090300 -9.534300 -15.618200
N -3.754300 -9.478800 -12.337300
H -2.983700 -7.134300 -14.128500
C -2.974700 -8.113600 -14.103500
C -2.890400 -8.733100 -15.512200
H -2.829700 -8.054700 -16.216700
C -2.443000 -9.508800 -12.190900
C -1.808100 -8.660400 -13.296400
O -1.807500 -10.132900 -11.336900
C -1.645700 -9.624200 -15.451200
O -1.246700 -10.337300 -16.369000
H -1.239000 -7.947300 -12.937100
N -1.086700 -9.526100 -14.235800
H -0.362800 -9.938500 -14.024000
40
Fragment
H -10.614300 -11.603500 -11.203800
H -9.955800 -13.525200 -9.898000
N -9.869200 -12.027700 -11.270200
O -9.714100 -11.283800 -8.310300
O -9.371900 -11.373700 -13.409000
C -9.336600 -12.820700 -10.182500
C -9.141700 -11.997800 -12.364500
C -8.925000 -11.896000 -9.015100
C -8.025900 -13.387600 -10.723100
H -7.981800 -14.365800 -10.683800
C -7.888500 -12.829800 -12.157100
H -7.793500 -13.538600 -12.827700
N -7.593000 -11.899600 -8.928700
H -7.174200 -11.457000 -8.322000
C -6.898700 -12.692700 -9.916900
N -6.724600 -11.947800 -12.110200
H -6.416400 -11.557300 -12.811200
H -6.289300 -13.340400 -9.505900
C -6.181800 -11.790600 -10.923000
O -5.271400 -11.034900 -10.606700
O -5.874800 -10.257300 -14.392600
H -4.871600 -7.991100 -13.176600
C -4.860900 -9.582400 -14.525800
H -4.295900 -9.954000 -16.340300
H -4.282800 -9.896200 -11.802000
C -4.253300 -8.694900 -13.464400
N -4.090300 -9.534300 -15.618200
N -3.754300 -9.478800 -12.337300
H -2.983700 -7.134300 -14.128500
C -2.974700 -8.113600 -14.103500
C -2.890400 -8.733100 -15.512200
H -2.829700 -8.054700 -16.216700
C -2.443000 -9.508800 -12.190900
C -1.808100 -8.660400 -13.296400
O -1.807500 -10.132900 -11.336900
C -1.645700 -9.624200 -15.451200
O -1.246700 -10.337300 -16.369000
H -1.239000 -7.947300 -12.937100
N -1.086700 -9.526100 -14.235800
H -0.362800 -9.938500 -14.024000
