20
Fragment
H -10.614300 -11.603500 -11.203800
H -9.955800 -13.525200 -9.898000
N -9.869200 -12.027700 -11.270200
O -9.714100 -11.283800 -8.310300
O -9.371900 -11.373700 -13.409000
C -9.336600 -12.820700 -10.182500
C -9.141700 -11.997800 -12.364500
C -8.925000 -11.896000 -9.015100
C -8.025900 -13.387600 -10.723100
H -7.981800 -14.365800 -10.683800
C -7.888500 -12.829800 -12.157100
H -7.793500 -13.538600 -12.827700
N -7.593000 -11.899600 -8.928700
H -7.174200 -11.457000 -8.322000
C -6.898700 -12.692700 -9.916900
N -6.724600 -11.947800 -12.110200
H -6.416400 -11.557300 -12.811200
H -6.289300 -13.340400 -9.505900
C -6.181800 -11.790600 -10.923000
O -5.271400 -11.034900 -10.606700
20
Fragment
O -10.708300 -10.257300 -5.007700
H -9.705100 -7.991100 -3.791700
C -9.694400 -9.582400 -5.141000
H -9.129400 -9.954000 -6.955500
H -9.116300 -9.896200 -2.417200
C -9.086800 -8.694900 -4.079600
N -8.923800 -9.534300 -6.233400
N -8.587800 -9.478800 -2.952500
H -7.817200 -7.134300 -4.743700
C -7.808200 -8.113600 -4.718700
C -7.723900 -8.733100 -6.127300
H -7.663200 -8.054700 -6.831900
C -7.276500 -9.508800 -2.806100
C -6.641600 -8.660400 -3.911600
O -6.641000 -10.132900 -1.952000
C -6.479200 -9.624200 -6.066300
O -6.080200 -10.337300 -6.984200
H -6.072500 -7.947300 -3.552200
N -5.920200 -9.526100 -4.851000
H -5.196300 -9.938500 -4.639200
40
Fragment
H -10.614300 -11.603500 -11.203800
H -9.955800 -13.525200 -9.898000
N -9.869200 -12.027700 -11.270200
O -9.714100 -11.283800 -8.310300
O -9.371900 -11.373700 -13.409000
C -9.336600 -12.820700 -10.182500
C -9.141700 -11.997800 -12.364500
C -8.925000 -11.896000 -9.015100
C -8.025900 -13.387600 -10.723100
H -7.981800 -14.365800 -10.683800
C -7.888500 -12.829800 -12.157100
H -7.793500 -13.538600 -12.827700
N -7.593000 -11.899600 -8.928700
H -7.174200 -11.457000 -8.322000
C -6.898700 -12.692700 -9.916900
N -6.724600 -11.947800 -12.110200
H -6.416400 -11.557300 -12.811200
H -6.289300 -13.340400 -9.505900
C -6.181800 -11.790600 -10.923000
O -5.271400 -11.034900 -10.606700
O -10.708300 -10.257300 -5.007700
H -9.705100 -7.991100 -3.791700
C -9.694400 -9.582400 -5.141000
H -9.129400 -9.954000 -6.955500
H -9.116300 -9.896200 -2.417200
C -9.086800 -8.694900 -4.079600
N -8.923800 -9.534300 -6.233400
N -8.587800 -9.478800 -2.952500
H -7.817200 -7.134300 -4.743700
C -7.808200 -8.113600 -4.718700
C -7.723900 -8.733100 -6.127300
H -7.663200 -8.054700 -6.831900
C -7.276500 -9.508800 -2.806100
C -6.641600 -8.660400 -3.911600
O -6.641000 -10.132900 -1.952000
C -6.479200 -9.624200 -6.066300
O -6.080200 -10.337300 -6.984200
H -6.072500 -7.947300 -3.552200
N -5.920200 -9.526100 -4.851000
H -5.196300 -9.938500 -4.639200
