20
Fragment
H -10.614300 -11.603500 -11.203800
H -9.955800 -13.525200 -9.898000
N -9.869200 -12.027700 -11.270200
O -9.714100 -11.283800 -8.310300
O -9.371900 -11.373700 -13.409000
C -9.336600 -12.820700 -10.182500
C -9.141700 -11.997800 -12.364500
C -8.925000 -11.896000 -9.015100
C -8.025900 -13.387600 -10.723100
H -7.981800 -14.365800 -10.683800
C -7.888500 -12.829800 -12.157100
H -7.793500 -13.538600 -12.827700
N -7.593000 -11.899600 -8.928700
H -7.174200 -11.457000 -8.322000
C -6.898700 -12.692700 -9.916900
N -6.724600 -11.947800 -12.110200
H -6.416400 -11.557300 -12.811200
H -6.289300 -13.340400 -9.505900
C -6.181800 -11.790600 -10.923000
O -5.271400 -11.034900 -10.606700
6
Fragment
H -8.921000 -12.818900 -15.856600
C -8.092400 -12.926100 -17.615300
C -8.060700 -12.626300 -16.245100
N -7.983000 -13.180400 -18.722700
H -7.855200 -11.701100 -16.124600
H -7.392900 -13.166600 -15.813900
26
Fragment
H -10.614300 -11.603500 -11.203800
H -9.955800 -13.525200 -9.898000
N -9.869200 -12.027700 -11.270200
O -9.714100 -11.283800 -8.310300
O -9.371900 -11.373700 -13.409000
C -9.336600 -12.820700 -10.182500
C -9.141700 -11.997800 -12.364500
C -8.925000 -11.896000 -9.015100
C -8.025900 -13.387600 -10.723100
H -7.981800 -14.365800 -10.683800
C -7.888500 -12.829800 -12.157100
H -7.793500 -13.538600 -12.827700
N -7.593000 -11.899600 -8.928700
H -7.174200 -11.457000 -8.322000
C -6.898700 -12.692700 -9.916900
N -6.724600 -11.947800 -12.110200
H -6.416400 -11.557300 -12.811200
H -6.289300 -13.340400 -9.505900
C -6.181800 -11.790600 -10.923000
O -5.271400 -11.034900 -10.606700
H -8.921000 -12.818900 -15.856600
C -8.092400 -12.926100 -17.615300
C -8.060700 -12.626300 -16.245100
N -7.983000 -13.180400 -18.722700
H -7.855200 -11.701100 -16.124600
H -7.392900 -13.166600 -15.813900
