20
Fragment
H -10.614300 -11.603500 -11.203800
H -9.955800 -13.525200 -9.898000
N -9.869200 -12.027700 -11.270200
O -9.714100 -11.283800 -8.310300
O -9.371900 -11.373700 -13.409000
C -9.336600 -12.820700 -10.182500
C -9.141700 -11.997800 -12.364500
C -8.925000 -11.896000 -9.015100
C -8.025900 -13.387600 -10.723100
H -7.981800 -14.365800 -10.683800
C -7.888500 -12.829800 -12.157100
H -7.793500 -13.538600 -12.827700
N -7.593000 -11.899600 -8.928700
H -7.174200 -11.457000 -8.322000
C -6.898700 -12.692700 -9.916900
N -6.724600 -11.947800 -12.110200
H -6.416400 -11.557300 -12.811200
H -6.289300 -13.340400 -9.505900
C -6.181800 -11.790600 -10.923000
O -5.271400 -11.034900 -10.606700
20
Fragment
O -10.952900 -6.493000 -17.547700
C -10.042500 -7.248800 -17.231500
H -9.935000 -8.798600 -18.648600
H -9.807900 -7.015400 -15.343200
N -9.499700 -7.405900 -16.044300
C -9.325600 -8.150800 -18.237500
H -9.050100 -6.915100 -19.832500
N -8.631300 -7.357800 -19.225700
H -8.430800 -8.996800 -15.326700
C -8.335800 -8.288000 -15.997400
H -8.242500 -9.823900 -17.470700
C -8.198400 -8.845700 -17.431400
C -7.299300 -7.354200 -19.139400
C -7.082600 -7.455900 -15.790000
C -6.887700 -8.278900 -17.971900
O -6.852400 -6.831900 -14.745400
O -6.510200 -6.741900 -19.844200
N -6.355100 -7.485900 -16.884200
H -6.268500 -8.983300 -18.256500
H -5.610000 -7.061700 -16.950700
40
Fragment
H -10.614300 -11.603500 -11.203800
H -9.955800 -13.525200 -9.898000
N -9.869200 -12.027700 -11.270200
O -9.714100 -11.283800 -8.310300
O -9.371900 -11.373700 -13.409000
C -9.336600 -12.820700 -10.182500
C -9.141700 -11.997800 -12.364500
C -8.925000 -11.896000 -9.015100
C -8.025900 -13.387600 -10.723100
H -7.981800 -14.365800 -10.683800
C -7.888500 -12.829800 -12.157100
H -7.793500 -13.538600 -12.827700
N -7.593000 -11.899600 -8.928700
H -7.174200 -11.457000 -8.322000
C -6.898700 -12.692700 -9.916900
N -6.724600 -11.947800 -12.110200
H -6.416400 -11.557300 -12.811200
H -6.289300 -13.340400 -9.505900
C -6.181800 -11.790600 -10.923000
O -5.271400 -11.034900 -10.606700
O -10.952900 -6.493000 -17.547700
C -10.042500 -7.248800 -17.231500
H -9.935000 -8.798600 -18.648600
H -9.807900 -7.015400 -15.343200
N -9.499700 -7.405900 -16.044300
C -9.325600 -8.150800 -18.237500
H -9.050100 -6.915100 -19.832500
N -8.631300 -7.357800 -19.225700
H -8.430800 -8.996800 -15.326700
C -8.335800 -8.288000 -15.997400
H -8.242500 -9.823900 -17.470700
C -8.198400 -8.845700 -17.431400
C -7.299300 -7.354200 -19.139400
C -7.082600 -7.455900 -15.790000
C -6.887700 -8.278900 -17.971900
O -6.852400 -6.831900 -14.745400
O -6.510200 -6.741900 -19.844200
N -6.355100 -7.485900 -16.884200
H -6.268500 -8.983300 -18.256500
H -5.610000 -7.061700 -16.950700
