37
Fragment
H -28.073300 -23.416300 -34.042500
H -27.657600 -21.728200 -32.485400
H -27.528000 -25.964400 -33.971100
H -27.277200 -26.784100 -35.325600
C -27.179600 -23.205600 -33.794900
C -26.935900 -22.217900 -32.861600
C -26.854100 -26.181700 -34.663500
H -26.809300 -28.041300 -32.773300
N -26.421200 -24.931000 -35.339800
O -26.288700 -20.048300 -31.237400
O -26.227800 -29.605700 -30.844900
C -26.118700 -23.893400 -34.374900
H -26.043500 -19.477900 -30.670300
C -25.918600 -27.854300 -33.047700
C -25.688600 -26.887400 -34.021300
C -25.626800 -21.941900 -32.471600
H -25.452800 -26.018300 -36.739900
C -25.311100 -20.923500 -31.436200
C -25.245800 -25.245800 -36.156600
C -25.180400 -29.568000 -31.436200
H -25.038700 -24.473200 -36.739900
C -24.864700 -28.549600 -32.471600
C -24.802900 -23.604100 -34.021300
C -24.572900 -22.637200 -33.047700
H -24.448000 -31.013600 -30.670300
C -24.372800 -26.598100 -34.374900
O -24.263700 -20.885800 -30.844900
O -24.202800 -30.443200 -31.237400
N -24.070300 -25.560500 -35.339800
H -23.682200 -22.450200 -32.773300
C -23.637400 -24.309800 -34.663500
C -23.555600 -28.273600 -32.861600
C -23.311900 -27.285900 -33.794900
H -23.214300 -23.707400 -35.325600
H -22.963500 -24.527100 -33.971100
H -22.833900 -28.763300 -32.485400
H -22.418200 -27.075200 -34.042500
37
Fragment
H -30.924400 -15.898100 -30.304100
O -30.434300 -17.737700 -31.515000
O -30.221900 -15.686700 -30.712900
C -29.840000 -16.687600 -31.479500
C -28.653400 -16.400600 -32.338000
H -28.590000 -14.374900 -32.084600
H -28.345900 -18.346900 -32.824000
C -28.193300 -15.101800 -32.550400
C -28.032900 -17.462700 -32.976300
C -27.161400 -14.875500 -33.437200
C -26.959100 -17.255300 -33.834800
H -26.864800 -13.987800 -33.602600
H -26.824500 -18.830000 -35.157400
C -26.555800 -15.939500 -34.087900
C -26.247300 -18.427000 -34.460600
H -26.075500 -19.114400 -33.770700
H -26.025000 -17.019000 -36.484200
N -25.530500 -15.655100 -35.069000
C -25.245800 -16.830500 -35.902600
N -24.961000 -18.005900 -35.069000
H -24.466500 -16.642000 -36.484200
H -24.416000 -14.546600 -33.770700
C -24.244200 -15.234000 -34.460600
C -23.935700 -17.721500 -34.087900
H -23.667000 -14.831000 -35.157400
H -23.626700 -19.673200 -33.602600
C -23.532400 -16.405700 -33.834800
C -23.330100 -18.785500 -33.437200
C -22.458600 -16.198300 -32.976300
C -22.298200 -18.559200 -32.550400
H -22.145600 -15.314100 -32.824000
H -21.901500 -19.286100 -32.084600
C -21.838100 -17.260400 -32.338000
C -20.651500 -16.973400 -31.479500
O -20.269600 -17.974300 -30.712900
O -20.057200 -15.923300 -31.515000
H -19.567100 -17.762900 -30.304100
74
Fragment
H -28.073300 -23.416300 -34.042500
H -27.657600 -21.728200 -32.485400
H -27.528000 -25.964400 -33.971100
H -27.277200 -26.784100 -35.325600
C -27.179600 -23.205600 -33.794900
C -26.935900 -22.217900 -32.861600
C -26.854100 -26.181700 -34.663500
H -26.809300 -28.041300 -32.773300
N -26.421200 -24.931000 -35.339800
O -26.288700 -20.048300 -31.237400
O -26.227800 -29.605700 -30.844900
C -26.118700 -23.893400 -34.374900
H -26.043500 -19.477900 -30.670300
C -25.918600 -27.854300 -33.047700
C -25.688600 -26.887400 -34.021300
C -25.626800 -21.941900 -32.471600
H -25.452800 -26.018300 -36.739900
C -25.311100 -20.923500 -31.436200
C -25.245800 -25.245800 -36.156600
C -25.180400 -29.568000 -31.436200
H -25.038700 -24.473200 -36.739900
C -24.864700 -28.549600 -32.471600
C -24.802900 -23.604100 -34.021300
C -24.572900 -22.637200 -33.047700
H -24.448000 -31.013600 -30.670300
C -24.372800 -26.598100 -34.374900
O -24.263700 -20.885800 -30.844900
O -24.202800 -30.443200 -31.237400
N -24.070300 -25.560500 -35.339800
H -23.682200 -22.450200 -32.773300
C -23.637400 -24.309800 -34.663500
C -23.555600 -28.273600 -32.861600
C -23.311900 -27.285900 -33.794900
H -23.214300 -23.707400 -35.325600
H -22.963500 -24.527100 -33.971100
H -22.833900 -28.763300 -32.485400
H -22.418200 -27.075200 -34.042500
H -30.924400 -15.898100 -30.304100
O -30.434300 -17.737700 -31.515000
O -30.221900 -15.686700 -30.712900
C -29.840000 -16.687600 -31.479500
C -28.653400 -16.400600 -32.338000
H -28.590000 -14.374900 -32.084600
H -28.345900 -18.346900 -32.824000
C -28.193300 -15.101800 -32.550400
C -28.032900 -17.462700 -32.976300
C -27.161400 -14.875500 -33.437200
C -26.959100 -17.255300 -33.834800
H -26.864800 -13.987800 -33.602600
H -26.824500 -18.830000 -35.157400
C -26.555800 -15.939500 -34.087900
C -26.247300 -18.427000 -34.460600
H -26.075500 -19.114400 -33.770700
H -26.025000 -17.019000 -36.484200
N -25.530500 -15.655100 -35.069000
C -25.245800 -16.830500 -35.902600
N -24.961000 -18.005900 -35.069000
H -24.466500 -16.642000 -36.484200
H -24.416000 -14.546600 -33.770700
C -24.244200 -15.234000 -34.460600
C -23.935700 -17.721500 -34.087900
H -23.667000 -14.831000 -35.157400
H -23.626700 -19.673200 -33.602600
C -23.532400 -16.405700 -33.834800
C -23.330100 -18.785500 -33.437200
C -22.458600 -16.198300 -32.976300
C -22.298200 -18.559200 -32.550400
H -22.145600 -15.314100 -32.824000
H -21.901500 -19.286100 -32.084600
C -21.838100 -17.260400 -32.338000
C -20.651500 -16.973400 -31.479500
O -20.269600 -17.974300 -30.712900
O -20.057200 -15.923300 -31.515000
H -19.567100 -17.762900 -30.304100
