37
Fragment
H -28.073300 -23.416300 -34.042500
H -27.657600 -21.728200 -32.485400
H -27.528000 -25.964400 -33.971100
H -27.277200 -26.784100 -35.325600
C -27.179600 -23.205600 -33.794900
C -26.935900 -22.217900 -32.861600
C -26.854100 -26.181700 -34.663500
H -26.809300 -28.041300 -32.773300
N -26.421200 -24.931000 -35.339800
O -26.288700 -20.048300 -31.237400
O -26.227800 -29.605700 -30.844900
C -26.118700 -23.893400 -34.374900
H -26.043500 -19.477900 -30.670300
C -25.918600 -27.854300 -33.047700
C -25.688600 -26.887400 -34.021300
C -25.626800 -21.941900 -32.471600
H -25.452800 -26.018300 -36.739900
C -25.311100 -20.923500 -31.436200
C -25.245800 -25.245800 -36.156600
C -25.180400 -29.568000 -31.436200
H -25.038700 -24.473200 -36.739900
C -24.864700 -28.549600 -32.471600
C -24.802900 -23.604100 -34.021300
C -24.572900 -22.637200 -33.047700
H -24.448000 -31.013600 -30.670300
C -24.372800 -26.598100 -34.374900
O -24.263700 -20.885800 -30.844900
O -24.202800 -30.443200 -31.237400
N -24.070300 -25.560500 -35.339800
H -23.682200 -22.450200 -32.773300
C -23.637400 -24.309800 -34.663500
C -23.555600 -28.273600 -32.861600
C -23.311900 -27.285900 -33.794900
H -23.214300 -23.707400 -35.325600
H -22.963500 -24.527100 -33.971100
H -22.833900 -28.763300 -32.485400
H -22.418200 -27.075200 -34.042500
37
Fragment
H -28.088400 -26.864800 -39.361200
H -27.701300 -28.590000 -37.843200
H -27.529600 -24.416000 -39.529300
H -27.245200 -23.667000 -40.916000
C -27.200800 -27.161400 -39.195800
C -26.974400 -28.193300 -38.309000
C -26.842300 -24.244200 -40.219200
H -26.762200 -22.145600 -38.582600
N -26.421200 -25.530500 -40.827600
O -26.389600 -30.221900 -36.471500
H -26.178200 -30.924400 -36.062700
O -26.152900 -20.057200 -37.273600
C -26.136800 -26.555800 -39.846500
C -25.877900 -22.458600 -38.734900
C -25.675600 -28.653400 -38.096600
C -25.670600 -23.532400 -39.593400
H -25.434300 -24.466500 -42.242800
C -25.388600 -29.840000 -37.238100
C -25.245800 -25.245800 -41.661200
C -25.102900 -20.651500 -37.238100
H -25.057200 -26.025000 -42.242800
C -24.820900 -26.959100 -39.593400
C -24.815900 -21.838100 -38.096600
C -24.613600 -28.032900 -38.734900
C -24.354700 -23.935700 -39.846500
O -24.338600 -30.434300 -37.273600
H -24.313300 -19.567100 -36.062700
O -24.101900 -20.269600 -36.471500
N -24.070300 -24.961000 -40.827600
H -23.729300 -28.345900 -38.582600
C -23.649200 -26.247300 -40.219200
C -23.517100 -22.298200 -38.309000
C -23.290700 -23.330100 -39.195800
H -23.246300 -26.824500 -40.916000
H -22.961900 -26.075500 -39.529300
H -22.790200 -21.901500 -37.843200
H -22.403100 -23.626700 -39.361200
74
Fragment
H -28.073300 -23.416300 -34.042500
H -27.657600 -21.728200 -32.485400
H -27.528000 -25.964400 -33.971100
H -27.277200 -26.784100 -35.325600
C -27.179600 -23.205600 -33.794900
C -26.935900 -22.217900 -32.861600
C -26.854100 -26.181700 -34.663500
H -26.809300 -28.041300 -32.773300
N -26.421200 -24.931000 -35.339800
O -26.288700 -20.048300 -31.237400
O -26.227800 -29.605700 -30.844900
C -26.118700 -23.893400 -34.374900
H -26.043500 -19.477900 -30.670300
C -25.918600 -27.854300 -33.047700
C -25.688600 -26.887400 -34.021300
C -25.626800 -21.941900 -32.471600
H -25.452800 -26.018300 -36.739900
C -25.311100 -20.923500 -31.436200
C -25.245800 -25.245800 -36.156600
C -25.180400 -29.568000 -31.436200
H -25.038700 -24.473200 -36.739900
C -24.864700 -28.549600 -32.471600
C -24.802900 -23.604100 -34.021300
C -24.572900 -22.637200 -33.047700
H -24.448000 -31.013600 -30.670300
C -24.372800 -26.598100 -34.374900
O -24.263700 -20.885800 -30.844900
O -24.202800 -30.443200 -31.237400
N -24.070300 -25.560500 -35.339800
H -23.682200 -22.450200 -32.773300
C -23.637400 -24.309800 -34.663500
C -23.555600 -28.273600 -32.861600
C -23.311900 -27.285900 -33.794900
H -23.214300 -23.707400 -35.325600
H -22.963500 -24.527100 -33.971100
H -22.833900 -28.763300 -32.485400
H -22.418200 -27.075200 -34.042500
H -28.088400 -26.864800 -39.361200
H -27.701300 -28.590000 -37.843200
H -27.529600 -24.416000 -39.529300
H -27.245200 -23.667000 -40.916000
C -27.200800 -27.161400 -39.195800
C -26.974400 -28.193300 -38.309000
C -26.842300 -24.244200 -40.219200
H -26.762200 -22.145600 -38.582600
N -26.421200 -25.530500 -40.827600
O -26.389600 -30.221900 -36.471500
H -26.178200 -30.924400 -36.062700
O -26.152900 -20.057200 -37.273600
C -26.136800 -26.555800 -39.846500
C -25.877900 -22.458600 -38.734900
C -25.675600 -28.653400 -38.096600
C -25.670600 -23.532400 -39.593400
H -25.434300 -24.466500 -42.242800
C -25.388600 -29.840000 -37.238100
C -25.245800 -25.245800 -41.661200
C -25.102900 -20.651500 -37.238100
H -25.057200 -26.025000 -42.242800
C -24.820900 -26.959100 -39.593400
C -24.815900 -21.838100 -38.096600
C -24.613600 -28.032900 -38.734900
C -24.354700 -23.935700 -39.846500
O -24.338600 -30.434300 -37.273600
H -24.313300 -19.567100 -36.062700
O -24.101900 -20.269600 -36.471500
N -24.070300 -24.961000 -40.827600
H -23.729300 -28.345900 -38.582600
C -23.649200 -26.247300 -40.219200
C -23.517100 -22.298200 -38.309000
C -23.290700 -23.330100 -39.195800
H -23.246300 -26.824500 -40.916000
H -22.961900 -26.075500 -39.529300
H -22.790200 -21.901500 -37.843200
H -22.403100 -23.626700 -39.361200
