22
Fragment
O -17.945200 -17.018000 -13.620000
H -17.238600 -14.941000 -14.319700
N -17.070500 -13.405000 -11.906600
N -16.889900 -16.544200 -13.235100
O -16.856500 -12.493700 -10.860000
N -16.458300 -15.396200 -13.983500
O -16.147200 -16.973600 -12.386900
C -15.886500 -13.745000 -12.289600
N -15.545100 -14.628900 -13.301100
N -15.490400 -12.295400 -10.638700
C -14.906500 -13.050200 -11.506600
C -14.184200 -14.811800 -13.498700
N -13.600300 -15.566600 -14.366600
N -13.545600 -13.233100 -11.704200
C -13.204200 -14.117000 -12.715700
O -12.943500 -10.888400 -12.618400
N -12.632300 -12.465800 -11.021800
O -12.234200 -15.368300 -14.145300
N -12.200800 -11.317800 -11.770200
N -12.020200 -14.457000 -13.098700
H -11.852100 -12.921000 -10.685600
O -11.145500 -10.844000 -11.385300
22
Fragment
O -17.080600 -7.361200 -17.787500
H -16.373900 -9.438300 -18.487200
N -16.205800 -10.974200 -16.074200
N -16.025200 -7.835000 -17.402700
O -15.991800 -11.885600 -15.027500
N -15.593700 -8.983100 -18.151000
O -15.282600 -7.405600 -16.554400
C -15.021900 -10.634300 -16.457200
N -14.680400 -9.750400 -17.468600
N -14.625700 -12.083900 -14.806200
C -14.041800 -11.329000 -15.674200
C -13.319600 -9.567500 -17.666200
N -12.735700 -8.812600 -18.534200
N -12.681000 -11.146100 -15.871800
C -12.339500 -10.262200 -16.883200
O -12.078800 -13.490900 -16.786000
N -11.767700 -11.913400 -15.189400
O -11.369600 -9.010900 -18.312900
N -11.336200 -13.061500 -15.937700
N -11.155600 -9.922300 -17.266200
H -10.987500 -11.458200 -14.853100
O -10.280800 -13.535300 -15.552900
44
Fragment
O -17.945200 -17.018000 -13.620000
H -17.238600 -14.941000 -14.319700
N -17.070500 -13.405000 -11.906600
N -16.889900 -16.544200 -13.235100
O -16.856500 -12.493700 -10.860000
N -16.458300 -15.396200 -13.983500
O -16.147200 -16.973600 -12.386900
C -15.886500 -13.745000 -12.289600
N -15.545100 -14.628900 -13.301100
N -15.490400 -12.295400 -10.638700
C -14.906500 -13.050200 -11.506600
C -14.184200 -14.811800 -13.498700
N -13.600300 -15.566600 -14.366600
N -13.545600 -13.233100 -11.704200
C -13.204200 -14.117000 -12.715700
O -12.943500 -10.888400 -12.618400
N -12.632300 -12.465800 -11.021800
O -12.234200 -15.368300 -14.145300
N -12.200800 -11.317800 -11.770200
N -12.020200 -14.457000 -13.098700
H -11.852100 -12.921000 -10.685600
O -11.145500 -10.844000 -11.385300
O -17.080600 -7.361200 -17.787500
H -16.373900 -9.438300 -18.487200
N -16.205800 -10.974200 -16.074200
N -16.025200 -7.835000 -17.402700
O -15.991800 -11.885600 -15.027500
N -15.593700 -8.983100 -18.151000
O -15.282600 -7.405600 -16.554400
C -15.021900 -10.634300 -16.457200
N -14.680400 -9.750400 -17.468600
N -14.625700 -12.083900 -14.806200
C -14.041800 -11.329000 -15.674200
C -13.319600 -9.567500 -17.666200
N -12.735700 -8.812600 -18.534200
N -12.681000 -11.146100 -15.871800
C -12.339500 -10.262200 -16.883200
O -12.078800 -13.490900 -16.786000
N -11.767700 -11.913400 -15.189400
O -11.369600 -9.010900 -18.312900
N -11.336200 -13.061500 -15.937700
N -11.155600 -9.922300 -17.266200
H -10.987500 -11.458200 -14.853100
O -10.280800 -13.535300 -15.552900
