22
Fragment
O -17.945200 -17.018000 -13.620000
H -17.238600 -14.941000 -14.319700
N -17.070500 -13.405000 -11.906600
N -16.889900 -16.544200 -13.235100
O -16.856500 -12.493700 -10.860000
N -16.458300 -15.396200 -13.983500
O -16.147200 -16.973600 -12.386900
C -15.886500 -13.745000 -12.289600
N -15.545100 -14.628900 -13.301100
N -15.490400 -12.295400 -10.638700
C -14.906500 -13.050200 -11.506600
C -14.184200 -14.811800 -13.498700
N -13.600300 -15.566600 -14.366600
N -13.545600 -13.233100 -11.704200
C -13.204200 -14.117000 -12.715700
O -12.943500 -10.888400 -12.618400
N -12.632300 -12.465800 -11.021800
O -12.234200 -15.368300 -14.145300
N -12.200800 -11.317800 -11.770200
N -12.020200 -14.457000 -13.098700
H -11.852100 -12.921000 -10.685600
O -11.145500 -10.844000 -11.385300
22
Fragment
O -18.809900 -7.361200 -9.452400
H -18.103200 -9.438300 -10.152200
N -17.935100 -10.974200 -7.739100
N -17.754500 -7.835000 -9.067600
O -17.721100 -11.885600 -6.692400
N -17.323000 -8.983100 -9.815900
O -17.011900 -7.405600 -8.219300
C -16.751200 -10.634300 -8.122100
N -16.409700 -9.750400 -9.133500
N -16.355000 -12.083900 -6.471100
C -15.771100 -11.329000 -7.339100
C -15.048900 -9.567500 -9.331100
N -14.465000 -8.812600 -10.199100
N -14.410300 -11.146100 -7.536700
C -14.068800 -10.262200 -8.548100
O -13.808100 -13.490900 -8.450900
N -13.497000 -11.913400 -6.854300
O -13.098900 -9.010900 -9.977800
N -13.065500 -13.061500 -7.602600
N -12.884900 -9.922300 -8.931100
H -12.716800 -11.458200 -6.518000
O -12.010100 -13.535300 -7.217800
44
Fragment
O -17.945200 -17.018000 -13.620000
H -17.238600 -14.941000 -14.319700
N -17.070500 -13.405000 -11.906600
N -16.889900 -16.544200 -13.235100
O -16.856500 -12.493700 -10.860000
N -16.458300 -15.396200 -13.983500
O -16.147200 -16.973600 -12.386900
C -15.886500 -13.745000 -12.289600
N -15.545100 -14.628900 -13.301100
N -15.490400 -12.295400 -10.638700
C -14.906500 -13.050200 -11.506600
C -14.184200 -14.811800 -13.498700
N -13.600300 -15.566600 -14.366600
N -13.545600 -13.233100 -11.704200
C -13.204200 -14.117000 -12.715700
O -12.943500 -10.888400 -12.618400
N -12.632300 -12.465800 -11.021800
O -12.234200 -15.368300 -14.145300
N -12.200800 -11.317800 -11.770200
N -12.020200 -14.457000 -13.098700
H -11.852100 -12.921000 -10.685600
O -11.145500 -10.844000 -11.385300
O -18.809900 -7.361200 -9.452400
H -18.103200 -9.438300 -10.152200
N -17.935100 -10.974200 -7.739100
N -17.754500 -7.835000 -9.067600
O -17.721100 -11.885600 -6.692400
N -17.323000 -8.983100 -9.815900
O -17.011900 -7.405600 -8.219300
C -16.751200 -10.634300 -8.122100
N -16.409700 -9.750400 -9.133500
N -16.355000 -12.083900 -6.471100
C -15.771100 -11.329000 -7.339100
C -15.048900 -9.567500 -9.331100
N -14.465000 -8.812600 -10.199100
N -14.410300 -11.146100 -7.536700
C -14.068800 -10.262200 -8.548100
O -13.808100 -13.490900 -8.450900
N -13.497000 -11.913400 -6.854300
O -13.098900 -9.010900 -9.977800
N -13.065500 -13.061500 -7.602600
N -12.884900 -9.922300 -8.931100
H -12.716800 -11.458200 -6.518000
O -12.010100 -13.535300 -7.217800
