9
Fragment
H -14.385500 -13.084900 -22.480700
H -14.062000 -12.158000 -21.216800
C -13.700200 -12.536000 -22.045200
H -13.433400 -11.809500 -22.645900
H -12.620000 -13.116600 -19.796300
C -12.506300 -13.384700 -21.727800
N -12.183400 -13.545100 -20.451900
O -11.842900 -13.916000 -22.642800
H -11.439900 -14.022000 -20.264500
9
Fragment
O -16.111000 -15.038000 -27.047500
H -15.481200 -13.040600 -25.422200
C -15.058800 -14.372900 -26.923000
C -14.745000 -13.649300 -25.643000
H -14.631400 -14.299700 -24.919500
H -14.296800 -14.733200 -28.643800
N -14.174700 -14.273200 -27.896300
H -13.918000 -13.135400 -25.752500
H -13.375300 -13.845500 -27.806400
18
Fragment
H -14.385500 -13.084900 -22.480700
H -14.062000 -12.158000 -21.216800
C -13.700200 -12.536000 -22.045200
H -13.433400 -11.809500 -22.645900
H -12.620000 -13.116600 -19.796300
C -12.506300 -13.384700 -21.727800
N -12.183400 -13.545100 -20.451900
O -11.842900 -13.916000 -22.642800
H -11.439900 -14.022000 -20.264500
O -16.111000 -15.038000 -27.047500
H -15.481200 -13.040600 -25.422200
C -15.058800 -14.372900 -26.923000
C -14.745000 -13.649300 -25.643000
H -14.631400 -14.299700 -24.919500
H -14.296800 -14.733200 -28.643800
N -14.174700 -14.273200 -27.896300
H -13.918000 -13.135400 -25.752500
H -13.375300 -13.845500 -27.806400
