30
Fragment
H -20.385900 -10.477100 -19.957800
H -20.155000 -14.925600 -27.705500
H -19.809600 -11.833300 -21.758200
H -19.649500 -13.786900 -25.734600
C -19.471500 -10.685900 -20.108500
C -19.267000 -14.949300 -27.368600
O -19.150500 -12.502900 -23.906900
C -19.131700 -11.489300 -21.188600
C -18.969700 -14.269800 -26.190300
H -18.766900 -9.640800 -18.511400
H -18.522600 -16.122500 -28.858300
C -18.518600 -10.183900 -19.250000
C -18.305800 -15.655900 -28.059600
C -18.022500 -12.906700 -23.642100
C -17.792300 -11.790400 -21.435800
C -17.669800 -14.299500 -25.680000
N -17.348600 -12.605900 -22.490400
N -17.274700 -13.699400 -24.472900
C -17.181700 -10.491200 -19.491200
C -17.007700 -15.666100 -27.552700
C -16.815500 -11.288200 -20.576900
C -16.684000 -14.994300 -26.374300
H -16.548900 -12.962500 -22.400600
H -16.445400 -13.850900 -24.218900
C -16.153200 -9.983300 -18.620800
C -15.969800 -16.393200 -28.240900
H -15.900000 -11.489000 -20.731000
H -15.792600 -15.011100 -26.046200
N -15.317400 -9.593600 -17.933300
N -15.136900 -16.970600 -28.773300
30
Fragment
N -19.643100 -15.791200 -22.519000
N -19.462500 -23.168200 -33.358900
H -18.987300 -17.750700 -25.246000
H -18.879900 -21.272800 -30.561200
C -18.810100 -16.368600 -23.051400
C -18.626700 -22.778500 -32.671500
H -18.334600 -18.910900 -27.073300
H -18.231100 -19.799300 -28.891600
C -18.095900 -17.767500 -24.917900
C -17.964400 -21.473600 -30.715300
C -17.772200 -17.095700 -23.739600
C -17.598300 -22.270600 -31.801100
N -17.505200 -19.062400 -26.819300
N -17.431400 -20.155900 -28.801900
C -17.110100 -18.462300 -25.612300
C -16.987700 -20.971400 -29.856400
C -16.757400 -19.855100 -27.650100
C -16.474100 -17.105900 -23.232700
C -16.261300 -22.577900 -32.042300
H -16.257300 -16.639300 -22.433900
H -16.013000 -23.121000 -32.780900
C -15.810200 -18.492000 -25.101900
C -15.648200 -21.272500 -30.103700
O -15.629400 -20.258900 -27.385300
C -15.512900 -17.812500 -23.923600
C -15.308400 -22.075900 -31.183800
H -15.130400 -18.974900 -25.557600
H -14.970300 -20.928500 -29.534100
H -14.624900 -17.836200 -23.586700
H -14.394000 -22.284700 -31.334400
60
Fragment
H -20.385900 -10.477100 -19.957800
H -20.155000 -14.925600 -27.705500
H -19.809600 -11.833300 -21.758200
H -19.649500 -13.786900 -25.734600
C -19.471500 -10.685900 -20.108500
C -19.267000 -14.949300 -27.368600
O -19.150500 -12.502900 -23.906900
C -19.131700 -11.489300 -21.188600
C -18.969700 -14.269800 -26.190300
H -18.766900 -9.640800 -18.511400
H -18.522600 -16.122500 -28.858300
C -18.518600 -10.183900 -19.250000
C -18.305800 -15.655900 -28.059600
C -18.022500 -12.906700 -23.642100
C -17.792300 -11.790400 -21.435800
C -17.669800 -14.299500 -25.680000
N -17.348600 -12.605900 -22.490400
N -17.274700 -13.699400 -24.472900
C -17.181700 -10.491200 -19.491200
C -17.007700 -15.666100 -27.552700
C -16.815500 -11.288200 -20.576900
C -16.684000 -14.994300 -26.374300
H -16.548900 -12.962500 -22.400600
H -16.445400 -13.850900 -24.218900
C -16.153200 -9.983300 -18.620800
C -15.969800 -16.393200 -28.240900
H -15.900000 -11.489000 -20.731000
H -15.792600 -15.011100 -26.046200
N -15.317400 -9.593600 -17.933300
N -15.136900 -16.970600 -28.773300
N -19.643100 -15.791200 -22.519000
N -19.462500 -23.168200 -33.358900
H -18.987300 -17.750700 -25.246000
H -18.879900 -21.272800 -30.561200
C -18.810100 -16.368600 -23.051400
C -18.626700 -22.778500 -32.671500
H -18.334600 -18.910900 -27.073300
H -18.231100 -19.799300 -28.891600
C -18.095900 -17.767500 -24.917900
C -17.964400 -21.473600 -30.715300
C -17.772200 -17.095700 -23.739600
C -17.598300 -22.270600 -31.801100
N -17.505200 -19.062400 -26.819300
N -17.431400 -20.155900 -28.801900
C -17.110100 -18.462300 -25.612300
C -16.987700 -20.971400 -29.856400
C -16.757400 -19.855100 -27.650100
C -16.474100 -17.105900 -23.232700
C -16.261300 -22.577900 -32.042300
H -16.257300 -16.639300 -22.433900
H -16.013000 -23.121000 -32.780900
C -15.810200 -18.492000 -25.101900
C -15.648200 -21.272500 -30.103700
O -15.629400 -20.258900 -27.385300
C -15.512900 -17.812500 -23.923600
C -15.308400 -22.075900 -31.183800
H -15.130400 -18.974900 -25.557600
H -14.970300 -20.928500 -29.534100
H -14.624900 -17.836200 -23.586700
H -14.394000 -22.284700 -31.334400
