9
Fragment
H -14.385500 -13.084900 -22.480700
H -14.062000 -12.158000 -21.216800
C -13.700200 -12.536000 -22.045200
H -13.433400 -11.809500 -22.645900
H -12.620000 -13.116600 -19.796300
C -12.506300 -13.384700 -21.727800
N -12.183400 -13.545100 -20.451900
O -11.842900 -13.916000 -22.642800
H -11.439900 -14.022000 -20.264500
9
Fragment
H -11.844500 -10.282100 -19.984400
O -11.397500 -10.243400 -17.435900
C -10.889200 -10.202000 -19.778500
C -10.719800 -9.726500 -18.360700
H -10.476400 -9.557700 -20.390900
H -10.457800 -11.075200 -19.883900
N -9.840100 -8.774400 -18.132800
H -9.724000 -8.479000 -17.265500
H -9.467100 -8.342900 -18.790900
18
Fragment
H -14.385500 -13.084900 -22.480700
H -14.062000 -12.158000 -21.216800
C -13.700200 -12.536000 -22.045200
H -13.433400 -11.809500 -22.645900
H -12.620000 -13.116600 -19.796300
C -12.506300 -13.384700 -21.727800
N -12.183400 -13.545100 -20.451900
O -11.842900 -13.916000 -22.642800
H -11.439900 -14.022000 -20.264500
H -11.844500 -10.282100 -19.984400
O -11.397500 -10.243400 -17.435900
C -10.889200 -10.202000 -19.778500
C -10.719800 -9.726500 -18.360700
H -10.476400 -9.557700 -20.390900
H -10.457800 -11.075200 -19.883900
N -9.840100 -8.774400 -18.132800
H -9.724000 -8.479000 -17.265500
H -9.467100 -8.342900 -18.790900
