30
Fragment
H -20.385900 -10.477100 -19.957800
H -20.155000 -14.925600 -27.705500
H -19.809600 -11.833300 -21.758200
H -19.649500 -13.786900 -25.734600
C -19.471500 -10.685900 -20.108500
C -19.267000 -14.949300 -27.368600
O -19.150500 -12.502900 -23.906900
C -19.131700 -11.489300 -21.188600
C -18.969700 -14.269800 -26.190300
H -18.766900 -9.640800 -18.511400
H -18.522600 -16.122500 -28.858300
C -18.518600 -10.183900 -19.250000
C -18.305800 -15.655900 -28.059600
C -18.022500 -12.906700 -23.642100
C -17.792300 -11.790400 -21.435800
C -17.669800 -14.299500 -25.680000
N -17.348600 -12.605900 -22.490400
N -17.274700 -13.699400 -24.472900
C -17.181700 -10.491200 -19.491200
C -17.007700 -15.666100 -27.552700
C -16.815500 -11.288200 -20.576900
C -16.684000 -14.994300 -26.374300
H -16.548900 -12.962500 -22.400600
H -16.445400 -13.850900 -24.218900
C -16.153200 -9.983300 -18.620800
C -15.969800 -16.393200 -28.240900
H -15.900000 -11.489000 -20.731000
H -15.792600 -15.011100 -26.046200
N -15.317400 -9.593600 -17.933300
N -15.136900 -16.970600 -28.773300
30
Fragment
H -13.539000 -10.477100 -19.957800
H -13.308100 -14.925600 -27.705500
H -12.962700 -11.833300 -21.758200
H -12.802600 -13.786900 -25.734600
C -12.624600 -10.685900 -20.108500
C -12.420100 -14.949300 -27.368600
O -12.303600 -12.502900 -23.906900
C -12.284800 -11.489300 -21.188600
C -12.122800 -14.269800 -26.190300
H -11.920000 -9.640800 -18.511400
H -11.675700 -16.122500 -28.858300
C -11.671700 -10.183900 -19.250000
C -11.458900 -15.655900 -28.059600
C -11.175600 -12.906700 -23.642100
C -10.945400 -11.790400 -21.435800
C -10.822900 -14.299500 -25.680000
N -10.501700 -12.605900 -22.490400
N -10.427800 -13.699400 -24.472900
C -10.334800 -10.491200 -19.491200
C -10.160800 -15.666100 -27.552700
C -9.968600 -11.288200 -20.576900
C -9.837100 -14.994300 -26.374300
H -9.702000 -12.962500 -22.400600
H -9.598500 -13.850900 -24.218900
C -9.306300 -9.983300 -18.620800
C -9.122900 -16.393200 -28.240900
H -9.053100 -11.489000 -20.731000
H -8.945700 -15.011100 -26.046200
N -8.470500 -9.593600 -17.933300
N -8.290000 -16.970600 -28.773300
60
Fragment
H -20.385900 -10.477100 -19.957800
H -20.155000 -14.925600 -27.705500
H -19.809600 -11.833300 -21.758200
H -19.649500 -13.786900 -25.734600
C -19.471500 -10.685900 -20.108500
C -19.267000 -14.949300 -27.368600
O -19.150500 -12.502900 -23.906900
C -19.131700 -11.489300 -21.188600
C -18.969700 -14.269800 -26.190300
H -18.766900 -9.640800 -18.511400
H -18.522600 -16.122500 -28.858300
C -18.518600 -10.183900 -19.250000
C -18.305800 -15.655900 -28.059600
C -18.022500 -12.906700 -23.642100
C -17.792300 -11.790400 -21.435800
C -17.669800 -14.299500 -25.680000
N -17.348600 -12.605900 -22.490400
N -17.274700 -13.699400 -24.472900
C -17.181700 -10.491200 -19.491200
C -17.007700 -15.666100 -27.552700
C -16.815500 -11.288200 -20.576900
C -16.684000 -14.994300 -26.374300
H -16.548900 -12.962500 -22.400600
H -16.445400 -13.850900 -24.218900
C -16.153200 -9.983300 -18.620800
C -15.969800 -16.393200 -28.240900
H -15.900000 -11.489000 -20.731000
H -15.792600 -15.011100 -26.046200
N -15.317400 -9.593600 -17.933300
N -15.136900 -16.970600 -28.773300
H -13.539000 -10.477100 -19.957800
H -13.308100 -14.925600 -27.705500
H -12.962700 -11.833300 -21.758200
H -12.802600 -13.786900 -25.734600
C -12.624600 -10.685900 -20.108500
C -12.420100 -14.949300 -27.368600
O -12.303600 -12.502900 -23.906900
C -12.284800 -11.489300 -21.188600
C -12.122800 -14.269800 -26.190300
H -11.920000 -9.640800 -18.511400
H -11.675700 -16.122500 -28.858300
C -11.671700 -10.183900 -19.250000
C -11.458900 -15.655900 -28.059600
C -11.175600 -12.906700 -23.642100
C -10.945400 -11.790400 -21.435800
C -10.822900 -14.299500 -25.680000
N -10.501700 -12.605900 -22.490400
N -10.427800 -13.699400 -24.472900
C -10.334800 -10.491200 -19.491200
C -10.160800 -15.666100 -27.552700
C -9.968600 -11.288200 -20.576900
C -9.837100 -14.994300 -26.374300
H -9.702000 -12.962500 -22.400600
H -9.598500 -13.850900 -24.218900
C -9.306300 -9.983300 -18.620800
C -9.122900 -16.393200 -28.240900
H -9.053100 -11.489000 -20.731000
H -8.945700 -15.011100 -26.046200
N -8.470500 -9.593600 -17.933300
N -8.290000 -16.970600 -28.773300
