30
Fragment
H -20.385900 -10.477100 -19.957800
H -20.155000 -14.925600 -27.705500
H -19.809600 -11.833300 -21.758200
H -19.649500 -13.786900 -25.734600
C -19.471500 -10.685900 -20.108500
C -19.267000 -14.949300 -27.368600
O -19.150500 -12.502900 -23.906900
C -19.131700 -11.489300 -21.188600
C -18.969700 -14.269800 -26.190300
H -18.766900 -9.640800 -18.511400
H -18.522600 -16.122500 -28.858300
C -18.518600 -10.183900 -19.250000
C -18.305800 -15.655900 -28.059600
C -18.022500 -12.906700 -23.642100
C -17.792300 -11.790400 -21.435800
C -17.669800 -14.299500 -25.680000
N -17.348600 -12.605900 -22.490400
N -17.274700 -13.699400 -24.472900
C -17.181700 -10.491200 -19.491200
C -17.007700 -15.666100 -27.552700
C -16.815500 -11.288200 -20.576900
C -16.684000 -14.994300 -26.374300
H -16.548900 -12.962500 -22.400600
H -16.445400 -13.850900 -24.218900
C -16.153200 -9.983300 -18.620800
C -15.969800 -16.393200 -28.240900
H -15.900000 -11.489000 -20.731000
H -15.792600 -15.011100 -26.046200
N -15.317400 -9.593600 -17.933300
N -15.136900 -16.970600 -28.773300
30
Fragment
H -23.673000 -2.286600 -7.134800
H -23.442100 -6.735100 -14.882400
H -23.096700 -3.642800 -8.935100
H -22.936600 -5.596500 -12.911500
C -22.758600 -2.495500 -7.285400
C -22.554100 -6.758800 -14.545600
O -22.437600 -4.312400 -11.083900
C -22.418800 -3.298900 -8.365500
C -22.256800 -6.079300 -13.367300
H -22.054000 -1.450400 -5.688300
H -21.809700 -7.932100 -16.035200
C -21.805700 -1.993400 -6.426900
C -21.592900 -7.465500 -15.236500
C -21.309600 -4.716300 -10.819100
C -21.079400 -3.599900 -8.612700
C -20.956900 -6.109000 -12.856900
N -20.635600 -4.415400 -9.667300
N -20.561800 -5.509000 -11.649900
C -20.468800 -2.300800 -6.668100
C -20.294800 -7.475600 -14.729600
C -20.102600 -3.097800 -7.753800
C -19.971100 -6.803900 -13.551300
H -19.836000 -4.772000 -9.577500
H -19.732400 -5.660500 -11.395900
C -19.440300 -1.792800 -5.797700
C -19.256900 -8.202700 -15.417800
H -19.187100 -3.298500 -7.908000
H -19.079700 -6.820600 -13.223100
N -18.604500 -1.403200 -5.110200
N -18.423900 -8.780200 -15.950200
60
Fragment
H -20.385900 -10.477100 -19.957800
H -20.155000 -14.925600 -27.705500
H -19.809600 -11.833300 -21.758200
H -19.649500 -13.786900 -25.734600
C -19.471500 -10.685900 -20.108500
C -19.267000 -14.949300 -27.368600
O -19.150500 -12.502900 -23.906900
C -19.131700 -11.489300 -21.188600
C -18.969700 -14.269800 -26.190300
H -18.766900 -9.640800 -18.511400
H -18.522600 -16.122500 -28.858300
C -18.518600 -10.183900 -19.250000
C -18.305800 -15.655900 -28.059600
C -18.022500 -12.906700 -23.642100
C -17.792300 -11.790400 -21.435800
C -17.669800 -14.299500 -25.680000
N -17.348600 -12.605900 -22.490400
N -17.274700 -13.699400 -24.472900
C -17.181700 -10.491200 -19.491200
C -17.007700 -15.666100 -27.552700
C -16.815500 -11.288200 -20.576900
C -16.684000 -14.994300 -26.374300
H -16.548900 -12.962500 -22.400600
H -16.445400 -13.850900 -24.218900
C -16.153200 -9.983300 -18.620800
C -15.969800 -16.393200 -28.240900
H -15.900000 -11.489000 -20.731000
H -15.792600 -15.011100 -26.046200
N -15.317400 -9.593600 -17.933300
N -15.136900 -16.970600 -28.773300
H -23.673000 -2.286600 -7.134800
H -23.442100 -6.735100 -14.882400
H -23.096700 -3.642800 -8.935100
H -22.936600 -5.596500 -12.911500
C -22.758600 -2.495500 -7.285400
C -22.554100 -6.758800 -14.545600
O -22.437600 -4.312400 -11.083900
C -22.418800 -3.298900 -8.365500
C -22.256800 -6.079300 -13.367300
H -22.054000 -1.450400 -5.688300
H -21.809700 -7.932100 -16.035200
C -21.805700 -1.993400 -6.426900
C -21.592900 -7.465500 -15.236500
C -21.309600 -4.716300 -10.819100
C -21.079400 -3.599900 -8.612700
C -20.956900 -6.109000 -12.856900
N -20.635600 -4.415400 -9.667300
N -20.561800 -5.509000 -11.649900
C -20.468800 -2.300800 -6.668100
C -20.294800 -7.475600 -14.729600
C -20.102600 -3.097800 -7.753800
C -19.971100 -6.803900 -13.551300
H -19.836000 -4.772000 -9.577500
H -19.732400 -5.660500 -11.395900
C -19.440300 -1.792800 -5.797700
C -19.256900 -8.202700 -15.417800
H -19.187100 -3.298500 -7.908000
H -19.079700 -6.820600 -13.223100
N -18.604500 -1.403200 -5.110200
N -18.423900 -8.780200 -15.950200
