30
Fragment
H -20.385900 -10.477100 -19.957800
H -20.155000 -14.925600 -27.705500
H -19.809600 -11.833300 -21.758200
H -19.649500 -13.786900 -25.734600
C -19.471500 -10.685900 -20.108500
C -19.267000 -14.949300 -27.368600
O -19.150500 -12.502900 -23.906900
C -19.131700 -11.489300 -21.188600
C -18.969700 -14.269800 -26.190300
H -18.766900 -9.640800 -18.511400
H -18.522600 -16.122500 -28.858300
C -18.518600 -10.183900 -19.250000
C -18.305800 -15.655900 -28.059600
C -18.022500 -12.906700 -23.642100
C -17.792300 -11.790400 -21.435800
C -17.669800 -14.299500 -25.680000
N -17.348600 -12.605900 -22.490400
N -17.274700 -13.699400 -24.472900
C -17.181700 -10.491200 -19.491200
C -17.007700 -15.666100 -27.552700
C -16.815500 -11.288200 -20.576900
C -16.684000 -14.994300 -26.374300
H -16.548900 -12.962500 -22.400600
H -16.445400 -13.850900 -24.218900
C -16.153200 -9.983300 -18.620800
C -15.969800 -16.393200 -28.240900
H -15.900000 -11.489000 -20.731000
H -15.792600 -15.011100 -26.046200
N -15.317400 -9.593600 -17.933300
N -15.136900 -16.970600 -28.773300
30
Fragment
N -16.083300 -7.600700 -9.695900
N -15.902700 -14.977700 -20.535900
H -15.427500 -9.560300 -12.423000
H -15.320100 -13.082400 -17.738100
C -15.250300 -8.178200 -10.228300
C -15.066900 -14.588100 -19.848400
H -14.774800 -10.720400 -14.250300
H -14.671300 -11.608900 -16.068600
C -14.536100 -9.577000 -12.094800
C -14.404600 -13.283100 -17.892300
C -14.212400 -8.905300 -10.916500
C -14.038400 -14.080100 -18.978000
N -13.945400 -10.871900 -13.996200
N -13.871600 -11.965500 -15.978800
C -13.550300 -10.271900 -12.789200
C -13.427900 -12.781000 -17.033400
C -13.197600 -11.664600 -14.827000
C -12.914300 -8.915400 -10.409600
C -12.701500 -14.387500 -19.219200
H -12.697500 -8.448800 -9.610900
H -12.453200 -14.930500 -19.957800
C -12.250400 -10.301600 -12.278900
C -12.088400 -13.082000 -17.280600
O -12.069600 -12.068500 -14.562300
C -11.953100 -9.622100 -11.100500
C -11.748600 -13.885400 -18.360700
H -11.570600 -10.784400 -12.734600
H -11.410500 -12.738100 -16.711000
H -11.065100 -9.645800 -10.763700
H -10.834200 -14.094300 -18.511400
60
Fragment
H -20.385900 -10.477100 -19.957800
H -20.155000 -14.925600 -27.705500
H -19.809600 -11.833300 -21.758200
H -19.649500 -13.786900 -25.734600
C -19.471500 -10.685900 -20.108500
C -19.267000 -14.949300 -27.368600
O -19.150500 -12.502900 -23.906900
C -19.131700 -11.489300 -21.188600
C -18.969700 -14.269800 -26.190300
H -18.766900 -9.640800 -18.511400
H -18.522600 -16.122500 -28.858300
C -18.518600 -10.183900 -19.250000
C -18.305800 -15.655900 -28.059600
C -18.022500 -12.906700 -23.642100
C -17.792300 -11.790400 -21.435800
C -17.669800 -14.299500 -25.680000
N -17.348600 -12.605900 -22.490400
N -17.274700 -13.699400 -24.472900
C -17.181700 -10.491200 -19.491200
C -17.007700 -15.666100 -27.552700
C -16.815500 -11.288200 -20.576900
C -16.684000 -14.994300 -26.374300
H -16.548900 -12.962500 -22.400600
H -16.445400 -13.850900 -24.218900
C -16.153200 -9.983300 -18.620800
C -15.969800 -16.393200 -28.240900
H -15.900000 -11.489000 -20.731000
H -15.792600 -15.011100 -26.046200
N -15.317400 -9.593600 -17.933300
N -15.136900 -16.970600 -28.773300
N -16.083300 -7.600700 -9.695900
N -15.902700 -14.977700 -20.535900
H -15.427500 -9.560300 -12.423000
H -15.320100 -13.082400 -17.738100
C -15.250300 -8.178200 -10.228300
C -15.066900 -14.588100 -19.848400
H -14.774800 -10.720400 -14.250300
H -14.671300 -11.608900 -16.068600
C -14.536100 -9.577000 -12.094800
C -14.404600 -13.283100 -17.892300
C -14.212400 -8.905300 -10.916500
C -14.038400 -14.080100 -18.978000
N -13.945400 -10.871900 -13.996200
N -13.871600 -11.965500 -15.978800
C -13.550300 -10.271900 -12.789200
C -13.427900 -12.781000 -17.033400
C -13.197600 -11.664600 -14.827000
C -12.914300 -8.915400 -10.409600
C -12.701500 -14.387500 -19.219200
H -12.697500 -8.448800 -9.610900
H -12.453200 -14.930500 -19.957800
C -12.250400 -10.301600 -12.278900
C -12.088400 -13.082000 -17.280600
O -12.069600 -12.068500 -14.562300
C -11.953100 -9.622100 -11.100500
C -11.748600 -13.885400 -18.360700
H -11.570600 -10.784400 -12.734600
H -11.410500 -12.738100 -16.711000
H -11.065100 -9.645800 -10.763700
H -10.834200 -14.094300 -18.511400
