30
Fragment
H -20.385900 -10.477100 -19.957800
H -20.155000 -14.925600 -27.705500
H -19.809600 -11.833300 -21.758200
H -19.649500 -13.786900 -25.734600
C -19.471500 -10.685900 -20.108500
C -19.267000 -14.949300 -27.368600
O -19.150500 -12.502900 -23.906900
C -19.131700 -11.489300 -21.188600
C -18.969700 -14.269800 -26.190300
H -18.766900 -9.640800 -18.511400
H -18.522600 -16.122500 -28.858300
C -18.518600 -10.183900 -19.250000
C -18.305800 -15.655900 -28.059600
C -18.022500 -12.906700 -23.642100
C -17.792300 -11.790400 -21.435800
C -17.669800 -14.299500 -25.680000
N -17.348600 -12.605900 -22.490400
N -17.274700 -13.699400 -24.472900
C -17.181700 -10.491200 -19.491200
C -17.007700 -15.666100 -27.552700
C -16.815500 -11.288200 -20.576900
C -16.684000 -14.994300 -26.374300
H -16.548900 -12.962500 -22.400600
H -16.445400 -13.850900 -24.218900
C -16.153200 -9.983300 -18.620800
C -15.969800 -16.393200 -28.240900
H -15.900000 -11.489000 -20.731000
H -15.792600 -15.011100 -26.046200
N -15.317400 -9.593600 -17.933300
N -15.136900 -16.970600 -28.773300
30
Fragment
N -15.122200 0.153800 -9.695900
N -14.941600 -7.223100 -20.535900
H -14.466500 -1.805700 -12.423000
H -14.359000 -5.327800 -17.738100
C -14.289200 -0.423600 -10.228300
C -14.105800 -6.833500 -19.848400
H -13.813700 -2.965900 -14.250300
H -13.710200 -3.854300 -16.068600
C -13.575000 -1.822500 -12.094800
C -13.443500 -5.528500 -17.892300
C -13.251400 -1.150700 -10.916500
C -13.077400 -6.325600 -18.978000
N -12.984300 -3.117400 -13.996200
N -12.910500 -4.210900 -15.978800
C -12.589200 -2.517300 -12.789200
C -12.466800 -5.026400 -17.033400
C -12.236600 -3.910000 -14.827000
C -11.953200 -1.160900 -10.409600
C -11.740400 -6.632900 -19.219200
H -11.736400 -0.694300 -9.610900
H -11.492100 -7.176000 -19.957800
C -11.289400 -2.547000 -12.278900
C -11.127400 -5.327500 -17.280600
O -11.108500 -4.313900 -14.562300
C -10.992100 -1.867500 -11.100500
C -10.787500 -6.130900 -18.360700
H -10.609500 -3.029900 -12.734600
H -10.449400 -4.983500 -16.711000
H -10.104000 -1.891200 -10.763700
H -9.873100 -6.339700 -18.511400
60
Fragment
H -20.385900 -10.477100 -19.957800
H -20.155000 -14.925600 -27.705500
H -19.809600 -11.833300 -21.758200
H -19.649500 -13.786900 -25.734600
C -19.471500 -10.685900 -20.108500
C -19.267000 -14.949300 -27.368600
O -19.150500 -12.502900 -23.906900
C -19.131700 -11.489300 -21.188600
C -18.969700 -14.269800 -26.190300
H -18.766900 -9.640800 -18.511400
H -18.522600 -16.122500 -28.858300
C -18.518600 -10.183900 -19.250000
C -18.305800 -15.655900 -28.059600
C -18.022500 -12.906700 -23.642100
C -17.792300 -11.790400 -21.435800
C -17.669800 -14.299500 -25.680000
N -17.348600 -12.605900 -22.490400
N -17.274700 -13.699400 -24.472900
C -17.181700 -10.491200 -19.491200
C -17.007700 -15.666100 -27.552700
C -16.815500 -11.288200 -20.576900
C -16.684000 -14.994300 -26.374300
H -16.548900 -12.962500 -22.400600
H -16.445400 -13.850900 -24.218900
C -16.153200 -9.983300 -18.620800
C -15.969800 -16.393200 -28.240900
H -15.900000 -11.489000 -20.731000
H -15.792600 -15.011100 -26.046200
N -15.317400 -9.593600 -17.933300
N -15.136900 -16.970600 -28.773300
N -15.122200 0.153800 -9.695900
N -14.941600 -7.223100 -20.535900
H -14.466500 -1.805700 -12.423000
H -14.359000 -5.327800 -17.738100
C -14.289200 -0.423600 -10.228300
C -14.105800 -6.833500 -19.848400
H -13.813700 -2.965900 -14.250300
H -13.710200 -3.854300 -16.068600
C -13.575000 -1.822500 -12.094800
C -13.443500 -5.528500 -17.892300
C -13.251400 -1.150700 -10.916500
C -13.077400 -6.325600 -18.978000
N -12.984300 -3.117400 -13.996200
N -12.910500 -4.210900 -15.978800
C -12.589200 -2.517300 -12.789200
C -12.466800 -5.026400 -17.033400
C -12.236600 -3.910000 -14.827000
C -11.953200 -1.160900 -10.409600
C -11.740400 -6.632900 -19.219200
H -11.736400 -0.694300 -9.610900
H -11.492100 -7.176000 -19.957800
C -11.289400 -2.547000 -12.278900
C -11.127400 -5.327500 -17.280600
O -11.108500 -4.313900 -14.562300
C -10.992100 -1.867500 -11.100500
C -10.787500 -6.130900 -18.360700
H -10.609500 -3.029900 -12.734600
H -10.449400 -4.983500 -16.711000
H -10.104000 -1.891200 -10.763700
H -9.873100 -6.339700 -18.511400
