30
Fragment
H -20.385900 -10.477100 -19.957800
H -20.155000 -14.925600 -27.705500
H -19.809600 -11.833300 -21.758200
H -19.649500 -13.786900 -25.734600
C -19.471500 -10.685900 -20.108500
C -19.267000 -14.949300 -27.368600
O -19.150500 -12.502900 -23.906900
C -19.131700 -11.489300 -21.188600
C -18.969700 -14.269800 -26.190300
H -18.766900 -9.640800 -18.511400
H -18.522600 -16.122500 -28.858300
C -18.518600 -10.183900 -19.250000
C -18.305800 -15.655900 -28.059600
C -18.022500 -12.906700 -23.642100
C -17.792300 -11.790400 -21.435800
C -17.669800 -14.299500 -25.680000
N -17.348600 -12.605900 -22.490400
N -17.274700 -13.699400 -24.472900
C -17.181700 -10.491200 -19.491200
C -17.007700 -15.666100 -27.552700
C -16.815500 -11.288200 -20.576900
C -16.684000 -14.994300 -26.374300
H -16.548900 -12.962500 -22.400600
H -16.445400 -13.850900 -24.218900
C -16.153200 -9.983300 -18.620800
C -15.969800 -16.393200 -28.240900
H -15.900000 -11.489000 -20.731000
H -15.792600 -15.011100 -26.046200
N -15.317400 -9.593600 -17.933300
N -15.136900 -16.970600 -28.773300
30
Fragment
H -16.826100 -2.286600 -7.134800
H -16.595200 -6.735100 -14.882400
H -16.249800 -3.642800 -8.935100
H -16.089700 -5.596500 -12.911500
C -15.911700 -2.495500 -7.285400
C -15.707200 -6.758800 -14.545600
O -15.590700 -4.312400 -11.083900
C -15.571900 -3.298900 -8.365500
C -15.409900 -6.079300 -13.367300
H -15.207100 -1.450400 -5.688300
H -14.962800 -7.932100 -16.035200
C -14.958800 -1.993400 -6.426900
C -14.746000 -7.465500 -15.236500
C -14.462700 -4.716300 -10.819100
C -14.232500 -3.599900 -8.612700
C -14.110000 -6.109000 -12.856900
N -13.788700 -4.415400 -9.667300
N -13.714900 -5.509000 -11.649900
C -13.621900 -2.300800 -6.668100
C -13.447900 -7.475600 -14.729600
C -13.255700 -3.097800 -7.753800
C -13.124200 -6.803900 -13.551300
H -12.989100 -4.772000 -9.577500
H -12.885500 -5.660500 -11.395900
C -12.593400 -1.792800 -5.797700
C -12.410000 -8.202700 -15.417800
H -12.340200 -3.298500 -7.908000
H -12.232800 -6.820600 -13.223100
N -11.757600 -1.403200 -5.110200
N -11.577000 -8.780200 -15.950200
60
Fragment
H -20.385900 -10.477100 -19.957800
H -20.155000 -14.925600 -27.705500
H -19.809600 -11.833300 -21.758200
H -19.649500 -13.786900 -25.734600
C -19.471500 -10.685900 -20.108500
C -19.267000 -14.949300 -27.368600
O -19.150500 -12.502900 -23.906900
C -19.131700 -11.489300 -21.188600
C -18.969700 -14.269800 -26.190300
H -18.766900 -9.640800 -18.511400
H -18.522600 -16.122500 -28.858300
C -18.518600 -10.183900 -19.250000
C -18.305800 -15.655900 -28.059600
C -18.022500 -12.906700 -23.642100
C -17.792300 -11.790400 -21.435800
C -17.669800 -14.299500 -25.680000
N -17.348600 -12.605900 -22.490400
N -17.274700 -13.699400 -24.472900
C -17.181700 -10.491200 -19.491200
C -17.007700 -15.666100 -27.552700
C -16.815500 -11.288200 -20.576900
C -16.684000 -14.994300 -26.374300
H -16.548900 -12.962500 -22.400600
H -16.445400 -13.850900 -24.218900
C -16.153200 -9.983300 -18.620800
C -15.969800 -16.393200 -28.240900
H -15.900000 -11.489000 -20.731000
H -15.792600 -15.011100 -26.046200
N -15.317400 -9.593600 -17.933300
N -15.136900 -16.970600 -28.773300
H -16.826100 -2.286600 -7.134800
H -16.595200 -6.735100 -14.882400
H -16.249800 -3.642800 -8.935100
H -16.089700 -5.596500 -12.911500
C -15.911700 -2.495500 -7.285400
C -15.707200 -6.758800 -14.545600
O -15.590700 -4.312400 -11.083900
C -15.571900 -3.298900 -8.365500
C -15.409900 -6.079300 -13.367300
H -15.207100 -1.450400 -5.688300
H -14.962800 -7.932100 -16.035200
C -14.958800 -1.993400 -6.426900
C -14.746000 -7.465500 -15.236500
C -14.462700 -4.716300 -10.819100
C -14.232500 -3.599900 -8.612700
C -14.110000 -6.109000 -12.856900
N -13.788700 -4.415400 -9.667300
N -13.714900 -5.509000 -11.649900
C -13.621900 -2.300800 -6.668100
C -13.447900 -7.475600 -14.729600
C -13.255700 -3.097800 -7.753800
C -13.124200 -6.803900 -13.551300
H -12.989100 -4.772000 -9.577500
H -12.885500 -5.660500 -11.395900
C -12.593400 -1.792800 -5.797700
C -12.410000 -8.202700 -15.417800
H -12.340200 -3.298500 -7.908000
H -12.232800 -6.820600 -13.223100
N -11.757600 -1.403200 -5.110200
N -11.577000 -8.780200 -15.950200
