30
Fragment
H -20.385900 -10.477100 -19.957800
H -20.155000 -14.925600 -27.705500
H -19.809600 -11.833300 -21.758200
H -19.649500 -13.786900 -25.734600
C -19.471500 -10.685900 -20.108500
C -19.267000 -14.949300 -27.368600
O -19.150500 -12.502900 -23.906900
C -19.131700 -11.489300 -21.188600
C -18.969700 -14.269800 -26.190300
H -18.766900 -9.640800 -18.511400
H -18.522600 -16.122500 -28.858300
C -18.518600 -10.183900 -19.250000
C -18.305800 -15.655900 -28.059600
C -18.022500 -12.906700 -23.642100
C -17.792300 -11.790400 -21.435800
C -17.669800 -14.299500 -25.680000
N -17.348600 -12.605900 -22.490400
N -17.274700 -13.699400 -24.472900
C -17.181700 -10.491200 -19.491200
C -17.007700 -15.666100 -27.552700
C -16.815500 -11.288200 -20.576900
C -16.684000 -14.994300 -26.374300
H -16.548900 -12.962500 -22.400600
H -16.445400 -13.850900 -24.218900
C -16.153200 -9.983300 -18.620800
C -15.969800 -16.393200 -28.240900
H -15.900000 -11.489000 -20.731000
H -15.792600 -15.011100 -26.046200
N -15.317400 -9.593600 -17.933300
N -15.136900 -16.970600 -28.773300
30
Fragment
N -18.682000 -8.036600 -22.519000
N -18.501500 -15.413600 -33.358900
H -18.026300 -9.996100 -25.246000
H -17.918800 -13.518300 -30.561200
C -17.849000 -8.614000 -23.051400
C -17.665600 -15.024000 -32.671500
H -17.373500 -11.156300 -27.073300
H -17.270000 -12.044800 -28.891600
C -17.134800 -10.012900 -24.917900
C -17.003300 -13.719000 -30.715300
C -16.811200 -9.341200 -23.739600
C -16.637200 -14.516000 -31.801100
N -16.544100 -11.307800 -26.819300
N -16.470300 -12.401400 -28.801900
C -16.149000 -10.707700 -25.612300
C -16.026600 -13.216800 -29.856400
C -15.796400 -12.100500 -27.650100
C -15.513000 -9.351300 -23.232700
C -15.300200 -14.823400 -32.042300
H -15.296200 -8.884700 -22.433900
H -15.051900 -15.366400 -32.780900
C -14.849200 -10.737500 -25.101900
C -14.687200 -13.517900 -30.103700
O -14.668300 -12.504300 -27.385300
C -14.551900 -10.058000 -23.923600
C -14.347300 -14.321300 -31.183800
H -14.169300 -11.220300 -25.557600
H -14.009200 -13.173900 -29.534100
H -13.663800 -10.081700 -23.586700
H -13.432900 -14.530200 -31.334400
60
Fragment
H -20.385900 -10.477100 -19.957800
H -20.155000 -14.925600 -27.705500
H -19.809600 -11.833300 -21.758200
H -19.649500 -13.786900 -25.734600
C -19.471500 -10.685900 -20.108500
C -19.267000 -14.949300 -27.368600
O -19.150500 -12.502900 -23.906900
C -19.131700 -11.489300 -21.188600
C -18.969700 -14.269800 -26.190300
H -18.766900 -9.640800 -18.511400
H -18.522600 -16.122500 -28.858300
C -18.518600 -10.183900 -19.250000
C -18.305800 -15.655900 -28.059600
C -18.022500 -12.906700 -23.642100
C -17.792300 -11.790400 -21.435800
C -17.669800 -14.299500 -25.680000
N -17.348600 -12.605900 -22.490400
N -17.274700 -13.699400 -24.472900
C -17.181700 -10.491200 -19.491200
C -17.007700 -15.666100 -27.552700
C -16.815500 -11.288200 -20.576900
C -16.684000 -14.994300 -26.374300
H -16.548900 -12.962500 -22.400600
H -16.445400 -13.850900 -24.218900
C -16.153200 -9.983300 -18.620800
C -15.969800 -16.393200 -28.240900
H -15.900000 -11.489000 -20.731000
H -15.792600 -15.011100 -26.046200
N -15.317400 -9.593600 -17.933300
N -15.136900 -16.970600 -28.773300
N -18.682000 -8.036600 -22.519000
N -18.501500 -15.413600 -33.358900
H -18.026300 -9.996100 -25.246000
H -17.918800 -13.518300 -30.561200
C -17.849000 -8.614000 -23.051400
C -17.665600 -15.024000 -32.671500
H -17.373500 -11.156300 -27.073300
H -17.270000 -12.044800 -28.891600
C -17.134800 -10.012900 -24.917900
C -17.003300 -13.719000 -30.715300
C -16.811200 -9.341200 -23.739600
C -16.637200 -14.516000 -31.801100
N -16.544100 -11.307800 -26.819300
N -16.470300 -12.401400 -28.801900
C -16.149000 -10.707700 -25.612300
C -16.026600 -13.216800 -29.856400
C -15.796400 -12.100500 -27.650100
C -15.513000 -9.351300 -23.232700
C -15.300200 -14.823400 -32.042300
H -15.296200 -8.884700 -22.433900
H -15.051900 -15.366400 -32.780900
C -14.849200 -10.737500 -25.101900
C -14.687200 -13.517900 -30.103700
O -14.668300 -12.504300 -27.385300
C -14.551900 -10.058000 -23.923600
C -14.347300 -14.321300 -31.183800
H -14.169300 -11.220300 -25.557600
H -14.009200 -13.173900 -29.534100
H -13.663800 -10.081700 -23.586700
H -13.432900 -14.530200 -31.334400
