20
Fragment
H -8.485400 -12.737300 -51.761300
O -8.442800 -12.472400 -54.248300
H -8.324300 -12.174900 -55.003700
C -8.059900 -11.946500 -52.004900
C -7.933100 -11.610100 -53.337000
H -7.642100 -11.352100 -50.146600
C -7.558200 -11.112800 -51.043300
C -7.321200 -10.426500 -53.687900
H -7.243400 -10.192400 -54.584500
C -6.926200 -9.914300 -51.368100
C -6.824800 -9.591100 -52.716400
H -6.642900 -10.006200 -48.733300
H -6.413500 -8.794500 -52.963400
C -6.385500 -9.008700 -50.370700
C -6.318800 -9.200500 -49.064700
H -6.048100 -8.201800 -50.685900
C -5.776700 -8.250400 -48.106300
O -5.601600 -8.534200 -46.929500
O -5.489600 -7.067800 -48.589000
H -5.191900 -6.592800 -47.989300
17
Fragment
H -8.488000 -5.373700 -57.937400
H -8.113000 -6.291800 -59.993900
C -8.019200 -6.175400 -57.989400
C -7.800400 -6.720100 -59.230500
N -7.601500 -6.725200 -56.858800
H -7.538100 -7.228900 -61.793800
H -7.414500 -9.495700 -62.898400
N -7.209800 -8.039100 -61.733700
C -7.113800 -7.906100 -59.331200
N -7.030700 -8.683200 -62.969900
C -6.913200 -7.853000 -56.972500
C -6.856600 -8.651200 -60.601500
C -6.650400 -8.471400 -58.161600
H -6.590400 -8.247500 -56.192700
O -6.361600 -9.761800 -60.595000
H -6.164700 -9.264500 -58.184300
H -6.150900 -8.793400 -63.093400
37
Fragment
H -8.485400 -12.737300 -51.761300
O -8.442800 -12.472400 -54.248300
H -8.324300 -12.174900 -55.003700
C -8.059900 -11.946500 -52.004900
C -7.933100 -11.610100 -53.337000
H -7.642100 -11.352100 -50.146600
C -7.558200 -11.112800 -51.043300
C -7.321200 -10.426500 -53.687900
H -7.243400 -10.192400 -54.584500
C -6.926200 -9.914300 -51.368100
C -6.824800 -9.591100 -52.716400
H -6.642900 -10.006200 -48.733300
H -6.413500 -8.794500 -52.963400
C -6.385500 -9.008700 -50.370700
C -6.318800 -9.200500 -49.064700
H -6.048100 -8.201800 -50.685900
C -5.776700 -8.250400 -48.106300
O -5.601600 -8.534200 -46.929500
O -5.489600 -7.067800 -48.589000
H -5.191900 -6.592800 -47.989300
H -8.488000 -5.373700 -57.937400
H -8.113000 -6.291800 -59.993900
C -8.019200 -6.175400 -57.989400
C -7.800400 -6.720100 -59.230500
N -7.601500 -6.725200 -56.858800
H -7.538100 -7.228900 -61.793800
H -7.414500 -9.495700 -62.898400
N -7.209800 -8.039100 -61.733700
C -7.113800 -7.906100 -59.331200
N -7.030700 -8.683200 -62.969900
C -6.913200 -7.853000 -56.972500
C -6.856600 -8.651200 -60.601500
C -6.650400 -8.471400 -58.161600
H -6.590400 -8.247500 -56.192700
O -6.361600 -9.761800 -60.595000
H -6.164700 -9.264500 -58.184300
H -6.150900 -8.793400 -63.093400
