20
Fragment
H -8.485400 -12.737300 -51.761300
O -8.442800 -12.472400 -54.248300
H -8.324300 -12.174900 -55.003700
C -8.059900 -11.946500 -52.004900
C -7.933100 -11.610100 -53.337000
H -7.642100 -11.352100 -50.146600
C -7.558200 -11.112800 -51.043300
C -7.321200 -10.426500 -53.687900
H -7.243400 -10.192400 -54.584500
C -6.926200 -9.914300 -51.368100
C -6.824800 -9.591100 -52.716400
H -6.642900 -10.006200 -48.733300
H -6.413500 -8.794500 -52.963400
C -6.385500 -9.008700 -50.370700
C -6.318800 -9.200500 -49.064700
H -6.048100 -8.201800 -50.685900
C -5.776700 -8.250400 -48.106300
O -5.601600 -8.534200 -46.929500
O -5.489600 -7.067800 -48.589000
H -5.191900 -6.592800 -47.989300
17
Fragment
H -12.320400 -11.648400 -50.617700
H -12.306600 -12.119500 -55.526700
O -12.109700 -12.616800 -53.116000
H -11.880900 -11.102500 -57.518300
C -11.820900 -11.326400 -55.549500
C -11.614700 -11.506200 -53.109600
C -11.558100 -10.708000 -56.738600
N -11.440600 -11.538200 -50.741100
C -11.357500 -10.761100 -54.379900
N -11.261500 -10.894100 -51.977300
H -11.056800 -12.350700 -50.812600
H -10.933200 -10.083900 -51.917200
N -10.869800 -9.580200 -56.852300
C -10.670900 -9.575100 -54.480600
C -10.452100 -9.030400 -55.721700
H -10.358300 -9.146800 -53.717100
H -9.983300 -8.228700 -55.773600
37
Fragment
H -8.485400 -12.737300 -51.761300
O -8.442800 -12.472400 -54.248300
H -8.324300 -12.174900 -55.003700
C -8.059900 -11.946500 -52.004900
C -7.933100 -11.610100 -53.337000
H -7.642100 -11.352100 -50.146600
C -7.558200 -11.112800 -51.043300
C -7.321200 -10.426500 -53.687900
H -7.243400 -10.192400 -54.584500
C -6.926200 -9.914300 -51.368100
C -6.824800 -9.591100 -52.716400
H -6.642900 -10.006200 -48.733300
H -6.413500 -8.794500 -52.963400
C -6.385500 -9.008700 -50.370700
C -6.318800 -9.200500 -49.064700
H -6.048100 -8.201800 -50.685900
C -5.776700 -8.250400 -48.106300
O -5.601600 -8.534200 -46.929500
O -5.489600 -7.067800 -48.589000
H -5.191900 -6.592800 -47.989300
H -12.320400 -11.648400 -50.617700
H -12.306600 -12.119500 -55.526700
O -12.109700 -12.616800 -53.116000
H -11.880900 -11.102500 -57.518300
C -11.820900 -11.326400 -55.549500
C -11.614700 -11.506200 -53.109600
C -11.558100 -10.708000 -56.738600
N -11.440600 -11.538200 -50.741100
C -11.357500 -10.761100 -54.379900
N -11.261500 -10.894100 -51.977300
H -11.056800 -12.350700 -50.812600
H -10.933200 -10.083900 -51.917200
N -10.869800 -9.580200 -56.852300
C -10.670900 -9.575100 -54.480600
C -10.452100 -9.030400 -55.721700
H -10.358300 -9.146800 -53.717100
H -9.983300 -8.228700 -55.773600
