15
Fragment
Cl -10.281300 -10.513300 -44.578600
H -9.807100 -11.049100 -47.852000
H -9.096200 -9.642200 -47.577500
C -8.949800 -10.605100 -47.683700
C -8.814000 -11.200200 -45.149100
H -8.711200 -12.812700 -42.754800
H -8.346700 -10.762500 -48.440100
C -8.342900 -11.153000 -46.443200
H -7.947300 -11.453000 -42.396300
C -7.914800 -12.270700 -42.934600
C -7.875700 -11.909800 -44.383100
N -7.160000 -11.809800 -46.409400
H -7.111400 -12.782800 -42.704400
N -6.864500 -12.273000 -45.170900
H -6.671200 -11.951400 -46.972600
19
Fragment
O -13.548600 -12.384200 -50.195000
H -12.856000 -12.612700 -52.503900
O -12.665700 -13.071100 -54.885300
N -12.519100 -11.733500 -50.061400
O -12.163100 -11.225100 -49.007800
C -12.040200 -12.132500 -52.425700
C -11.652300 -11.547900 -51.236300
N -11.536900 -12.606100 -54.779700
C -11.173600 -11.980700 -53.498600
O -10.686800 -12.635900 -55.660500
C -10.477300 -10.819500 -51.092300
H -10.252200 -10.416900 -50.260500
C -9.977800 -11.285700 -53.416300
C -9.636400 -10.694400 -52.199100
H -9.404100 -11.213700 -54.170200
C -8.361500 -9.911300 -52.065000
O -7.978400 -9.460200 -50.997100
O -7.728400 -9.786700 -53.204000
H -7.086300 -9.369000 -52.918400
34
Fragment
Cl -10.281300 -10.513300 -44.578600
H -9.807100 -11.049100 -47.852000
H -9.096200 -9.642200 -47.577500
C -8.949800 -10.605100 -47.683700
C -8.814000 -11.200200 -45.149100
H -8.711200 -12.812700 -42.754800
H -8.346700 -10.762500 -48.440100
C -8.342900 -11.153000 -46.443200
H -7.947300 -11.453000 -42.396300
C -7.914800 -12.270700 -42.934600
C -7.875700 -11.909800 -44.383100
N -7.160000 -11.809800 -46.409400
H -7.111400 -12.782800 -42.704400
N -6.864500 -12.273000 -45.170900
H -6.671200 -11.951400 -46.972600
O -13.548600 -12.384200 -50.195000
H -12.856000 -12.612700 -52.503900
O -12.665700 -13.071100 -54.885300
N -12.519100 -11.733500 -50.061400
O -12.163100 -11.225100 -49.007800
C -12.040200 -12.132500 -52.425700
C -11.652300 -11.547900 -51.236300
N -11.536900 -12.606100 -54.779700
C -11.173600 -11.980700 -53.498600
O -10.686800 -12.635900 -55.660500
C -10.477300 -10.819500 -51.092300
H -10.252200 -10.416900 -50.260500
C -9.977800 -11.285700 -53.416300
C -9.636400 -10.694400 -52.199100
H -9.404100 -11.213700 -54.170200
C -8.361500 -9.911300 -52.065000
O -7.978400 -9.460200 -50.997100
O -7.728400 -9.786700 -53.204000
H -7.086300 -9.369000 -52.918400
