15
Fragment
Cl -10.281300 -10.513300 -44.578600
H -9.807100 -11.049100 -47.852000
H -9.096200 -9.642200 -47.577500
C -8.949800 -10.605100 -47.683700
C -8.814000 -11.200200 -45.149100
H -8.711200 -12.812700 -42.754800
H -8.346700 -10.762500 -48.440100
C -8.342900 -11.153000 -46.443200
H -7.947300 -11.453000 -42.396300
C -7.914800 -12.270700 -42.934600
C -7.875700 -11.909800 -44.383100
N -7.160000 -11.809800 -46.409400
H -7.111400 -12.782800 -42.704400
N -6.864500 -12.273000 -45.170900
H -6.671200 -11.951400 -46.972600
15
Fragment
Cl -16.683400 -10.513300 -44.578600
H -16.209200 -11.049100 -47.852000
H -15.498300 -9.642200 -47.577500
C -15.351900 -10.605100 -47.683700
C -15.216100 -11.200200 -45.149100
H -15.113300 -12.812700 -42.754800
H -14.748800 -10.762500 -48.440100
C -14.745000 -11.153000 -46.443200
H -14.349400 -11.453000 -42.396300
C -14.316900 -12.270700 -42.934600
C -14.277800 -11.909800 -44.383100
N -13.562100 -11.809800 -46.409400
H -13.513500 -12.782800 -42.704400
N -13.266600 -12.273000 -45.170900
H -13.073300 -11.951400 -46.972600
30
Fragment
Cl -10.281300 -10.513300 -44.578600
H -9.807100 -11.049100 -47.852000
H -9.096200 -9.642200 -47.577500
C -8.949800 -10.605100 -47.683700
C -8.814000 -11.200200 -45.149100
H -8.711200 -12.812700 -42.754800
H -8.346700 -10.762500 -48.440100
C -8.342900 -11.153000 -46.443200
H -7.947300 -11.453000 -42.396300
C -7.914800 -12.270700 -42.934600
C -7.875700 -11.909800 -44.383100
N -7.160000 -11.809800 -46.409400
H -7.111400 -12.782800 -42.704400
N -6.864500 -12.273000 -45.170900
H -6.671200 -11.951400 -46.972600
Cl -16.683400 -10.513300 -44.578600
H -16.209200 -11.049100 -47.852000
H -15.498300 -9.642200 -47.577500
C -15.351900 -10.605100 -47.683700
C -15.216100 -11.200200 -45.149100
H -15.113300 -12.812700 -42.754800
H -14.748800 -10.762500 -48.440100
C -14.745000 -11.153000 -46.443200
H -14.349400 -11.453000 -42.396300
C -14.316900 -12.270700 -42.934600
C -14.277800 -11.909800 -44.383100
N -13.562100 -11.809800 -46.409400
H -13.513500 -12.782800 -42.704400
N -13.266600 -12.273000 -45.170900
H -13.073300 -11.951400 -46.972600
