15
Fragment
Cl -10.281300 -10.513300 -44.578600
H -9.807100 -11.049100 -47.852000
H -9.096200 -9.642200 -47.577500
C -8.949800 -10.605100 -47.683700
C -8.814000 -11.200200 -45.149100
H -8.711200 -12.812700 -42.754800
H -8.346700 -10.762500 -48.440100
C -8.342900 -11.153000 -46.443200
H -7.947300 -11.453000 -42.396300
C -7.914800 -12.270700 -42.934600
C -7.875700 -11.909800 -44.383100
N -7.160000 -11.809800 -46.409400
H -7.111400 -12.782800 -42.704400
N -6.864500 -12.273000 -45.170900
H -6.671200 -11.951400 -46.972600
19
Fragment
H -11.786400 -13.305500 -45.104500
O -11.144300 -13.723200 -44.818900
O -10.894300 -13.396800 -47.025800
C -10.511100 -13.847800 -45.957900
H -9.468600 -15.150200 -43.852600
C -9.236300 -14.631000 -45.823700
C -8.894900 -15.222200 -44.606600
H -8.620500 -14.353400 -47.762300
C -8.395300 -14.756100 -46.930600
O -8.185900 -16.572500 -42.362400
C -7.699100 -15.917300 -44.524200
N -7.335800 -16.542600 -43.243200
C -7.220300 -15.484400 -46.786600
C -6.832500 -16.069100 -45.597200
O -6.709500 -15.161600 -49.015100
N -6.353600 -15.670100 -47.961500
O -6.207000 -17.007600 -43.137600
H -6.016700 -16.549300 -45.519000
O -5.324100 -16.320800 -47.827900
34
Fragment
Cl -10.281300 -10.513300 -44.578600
H -9.807100 -11.049100 -47.852000
H -9.096200 -9.642200 -47.577500
C -8.949800 -10.605100 -47.683700
C -8.814000 -11.200200 -45.149100
H -8.711200 -12.812700 -42.754800
H -8.346700 -10.762500 -48.440100
C -8.342900 -11.153000 -46.443200
H -7.947300 -11.453000 -42.396300
C -7.914800 -12.270700 -42.934600
C -7.875700 -11.909800 -44.383100
N -7.160000 -11.809800 -46.409400
H -7.111400 -12.782800 -42.704400
N -6.864500 -12.273000 -45.170900
H -6.671200 -11.951400 -46.972600
H -11.786400 -13.305500 -45.104500
O -11.144300 -13.723200 -44.818900
O -10.894300 -13.396800 -47.025800
C -10.511100 -13.847800 -45.957900
H -9.468600 -15.150200 -43.852600
C -9.236300 -14.631000 -45.823700
C -8.894900 -15.222200 -44.606600
H -8.620500 -14.353400 -47.762300
C -8.395300 -14.756100 -46.930600
O -8.185900 -16.572500 -42.362400
C -7.699100 -15.917300 -44.524200
N -7.335800 -16.542600 -43.243200
C -7.220300 -15.484400 -46.786600
C -6.832500 -16.069100 -45.597200
O -6.709500 -15.161600 -49.015100
N -6.353600 -15.670100 -47.961500
O -6.207000 -17.007600 -43.137600
H -6.016700 -16.549300 -45.519000
O -5.324100 -16.320800 -47.827900
