14
Fragment
N -22.937900 -16.965900 -10.633900
C -21.903300 -17.161400 -10.197700
C -20.600300 -17.302700 -9.643600
H -20.413900 -19.364400 -9.313000
N -20.177200 -13.818700 -9.949400
N -20.060300 -18.481800 -9.277400
C -19.945900 -14.906200 -9.677900
C -19.710100 -16.282400 -9.380200
C -18.821800 -18.241900 -8.766500
C -18.567800 -16.876700 -8.806200
C -17.967100 -19.291300 -8.328900
C -17.374700 -16.260300 -8.337100
N -17.257200 -20.115200 -8.002500
N -16.404400 -15.798300 -7.942100
14
Fragment
N -16.010900 -18.114600 -10.633900
C -14.976300 -17.919100 -10.197700
C -13.673300 -17.777800 -9.643600
H -13.486900 -15.716100 -9.313000
N -13.250200 -21.261800 -9.949400
N -13.133300 -16.598700 -9.277400
C -13.018900 -20.174300 -9.677900
C -12.783100 -18.798100 -9.380200
C -11.894800 -16.838600 -8.766500
C -11.640800 -18.203800 -8.806200
C -11.040100 -15.789200 -8.328900
C -10.447700 -18.820200 -8.337100
N -10.330200 -14.965300 -8.002500
N -9.477400 -19.282200 -7.942100
28
Fragment
N -22.937900 -16.965900 -10.633900
C -21.903300 -17.161400 -10.197700
C -20.600300 -17.302700 -9.643600
H -20.413900 -19.364400 -9.313000
N -20.177200 -13.818700 -9.949400
N -20.060300 -18.481800 -9.277400
C -19.945900 -14.906200 -9.677900
C -19.710100 -16.282400 -9.380200
C -18.821800 -18.241900 -8.766500
C -18.567800 -16.876700 -8.806200
C -17.967100 -19.291300 -8.328900
C -17.374700 -16.260300 -8.337100
N -17.257200 -20.115200 -8.002500
N -16.404400 -15.798300 -7.942100
N -16.010900 -18.114600 -10.633900
C -14.976300 -17.919100 -10.197700
C -13.673300 -17.777800 -9.643600
H -13.486900 -15.716100 -9.313000
N -13.250200 -21.261800 -9.949400
N -13.133300 -16.598700 -9.277400
C -13.018900 -20.174300 -9.677900
C -12.783100 -18.798100 -9.380200
C -11.894800 -16.838600 -8.766500
C -11.640800 -18.203800 -8.806200
C -11.040100 -15.789200 -8.328900
C -10.447700 -18.820200 -8.337100
N -10.330200 -14.965300 -8.002500
N -9.477400 -19.282200 -7.942100
