14
Fragment
N -22.937900 -16.965900 -10.633900
C -21.903300 -17.161400 -10.197700
C -20.600300 -17.302700 -9.643600
H -20.413900 -19.364400 -9.313000
N -20.177200 -13.818700 -9.949400
N -20.060300 -18.481800 -9.277400
C -19.945900 -14.906200 -9.677900
C -19.710100 -16.282400 -9.380200
C -18.821800 -18.241900 -8.766500
C -18.567800 -16.876700 -8.806200
C -17.967100 -19.291300 -8.328900
C -17.374700 -16.260300 -8.337100
N -17.257200 -20.115200 -8.002500
N -16.404400 -15.798300 -7.942100
14
Fragment
N -18.230600 -10.786800 -11.371100
N -17.377800 -15.103700 -11.431400
C -17.260300 -11.248800 -11.766100
C -16.667900 -14.279800 -11.757900
C -16.067200 -11.865200 -12.235200
C -15.813200 -13.230400 -12.195400
C -14.924900 -11.270900 -12.809200
C -14.689100 -9.894700 -13.106800
N -14.574700 -13.470300 -12.706300
N -14.457800 -8.807200 -13.378400
H -14.221100 -14.352900 -12.742000
C -14.034700 -12.291200 -13.072500
C -12.731700 -12.149900 -13.626600
N -11.697100 -11.954400 -14.062800
28
Fragment
N -22.937900 -16.965900 -10.633900
C -21.903300 -17.161400 -10.197700
C -20.600300 -17.302700 -9.643600
H -20.413900 -19.364400 -9.313000
N -20.177200 -13.818700 -9.949400
N -20.060300 -18.481800 -9.277400
C -19.945900 -14.906200 -9.677900
C -19.710100 -16.282400 -9.380200
C -18.821800 -18.241900 -8.766500
C -18.567800 -16.876700 -8.806200
C -17.967100 -19.291300 -8.328900
C -17.374700 -16.260300 -8.337100
N -17.257200 -20.115200 -8.002500
N -16.404400 -15.798300 -7.942100
N -18.230600 -10.786800 -11.371100
N -17.377800 -15.103700 -11.431400
C -17.260300 -11.248800 -11.766100
C -16.667900 -14.279800 -11.757900
C -16.067200 -11.865200 -12.235200
C -15.813200 -13.230400 -12.195400
C -14.924900 -11.270900 -12.809200
C -14.689100 -9.894700 -13.106800
N -14.574700 -13.470300 -12.706300
N -14.457800 -8.807200 -13.378400
H -14.221100 -14.352900 -12.742000
C -14.034700 -12.291200 -13.072500
C -12.731700 -12.149900 -13.626600
N -11.697100 -11.954400 -14.062800
