14
Fragment
N -22.937900 -16.965900 -10.633900
C -21.903300 -17.161400 -10.197700
C -20.600300 -17.302700 -9.643600
H -20.413900 -19.364400 -9.313000
N -20.177200 -13.818700 -9.949400
N -20.060300 -18.481800 -9.277400
C -19.945900 -14.906200 -9.677900
C -19.710100 -16.282400 -9.380200
C -18.821800 -18.241900 -8.766500
C -18.567800 -16.876700 -8.806200
C -17.967100 -19.291300 -8.328900
C -17.374700 -16.260300 -8.337100
N -17.257200 -20.115200 -8.002500
N -16.404400 -15.798300 -7.942100
14
Fragment
N -25.157600 -24.293700 -4.513200
N -24.304800 -19.976800 -4.573500
C -24.187300 -23.831700 -4.908200
C -23.594900 -20.800700 -4.900000
C -22.994200 -23.215300 -5.377300
C -22.740200 -21.850100 -5.337500
C -21.851900 -23.809600 -5.951300
C -21.616100 -25.185800 -6.248900
N -21.501700 -21.610200 -5.848400
N -21.384800 -26.273300 -6.520500
H -21.148100 -20.727600 -5.884100
C -20.961700 -22.789300 -6.214600
C -19.658700 -22.930600 -6.768700
N -18.624100 -23.126100 -7.204900
28
Fragment
N -22.937900 -16.965900 -10.633900
C -21.903300 -17.161400 -10.197700
C -20.600300 -17.302700 -9.643600
H -20.413900 -19.364400 -9.313000
N -20.177200 -13.818700 -9.949400
N -20.060300 -18.481800 -9.277400
C -19.945900 -14.906200 -9.677900
C -19.710100 -16.282400 -9.380200
C -18.821800 -18.241900 -8.766500
C -18.567800 -16.876700 -8.806200
C -17.967100 -19.291300 -8.328900
C -17.374700 -16.260300 -8.337100
N -17.257200 -20.115200 -8.002500
N -16.404400 -15.798300 -7.942100
N -25.157600 -24.293700 -4.513200
N -24.304800 -19.976800 -4.573500
C -24.187300 -23.831700 -4.908200
C -23.594900 -20.800700 -4.900000
C -22.994200 -23.215300 -5.377300
C -22.740200 -21.850100 -5.337500
C -21.851900 -23.809600 -5.951300
C -21.616100 -25.185800 -6.248900
N -21.501700 -21.610200 -5.848400
N -21.384800 -26.273300 -6.520500
H -21.148100 -20.727600 -5.884100
C -20.961700 -22.789300 -6.214600
C -19.658700 -22.930600 -6.768700
N -18.624100 -23.126100 -7.204900
