22
Fragment
H -22.883500 -12.844300 -23.542600
H -22.516700 -11.985200 -21.444700
C -22.067600 -12.447200 -23.338700
C -21.832600 -11.927900 -22.072200
H -21.234900 -12.692800 -25.129200
C -21.090500 -12.365400 -24.270900
N -20.695800 -11.355700 -21.699700
C -19.860100 -11.785600 -23.936400
C -19.703000 -11.299100 -22.623400
H -18.888000 -12.000400 -25.729500
C -18.780200 -11.680000 -24.863000
C -18.444700 -10.701700 -22.243500
N -18.290300 -10.260400 -20.965700
C -17.614600 -11.127800 -24.505100
C -17.416900 -10.609900 -23.199300
C -17.127000 -9.710400 -20.658800
H -17.007700 -9.414200 -19.785400
H -16.921900 -11.082600 -25.123800
C -16.212500 -9.996500 -22.809300
C -16.074500 -9.544400 -21.541300
H -15.516000 -9.902900 -23.418500
H -15.287900 -9.130000 -21.268500
16
Fragment
N -24.699800 -9.997200 -24.305300
C -23.653900 -9.548200 -24.347300
N -22.829700 -10.271800 -27.596000
C -22.317600 -9.017400 -24.431100
C -22.269100 -9.751700 -26.754600
H -22.180200 -8.367100 -22.536100
C -21.713600 -8.443700 -23.336800
C -21.616600 -9.118400 -25.645300
C -20.409400 -7.978700 -23.425700
C -20.320600 -8.638000 -25.748300
H -19.861300 -8.693100 -26.555100
C -19.773400 -7.398900 -22.270200
C -19.718100 -8.075000 -24.637500
N -19.278900 -6.937600 -21.351300
C -18.362900 -7.597800 -24.724600
N -17.290700 -7.214500 -24.783800
38
Fragment
H -22.883500 -12.844300 -23.542600
H -22.516700 -11.985200 -21.444700
C -22.067600 -12.447200 -23.338700
C -21.832600 -11.927900 -22.072200
H -21.234900 -12.692800 -25.129200
C -21.090500 -12.365400 -24.270900
N -20.695800 -11.355700 -21.699700
C -19.860100 -11.785600 -23.936400
C -19.703000 -11.299100 -22.623400
H -18.888000 -12.000400 -25.729500
C -18.780200 -11.680000 -24.863000
C -18.444700 -10.701700 -22.243500
N -18.290300 -10.260400 -20.965700
C -17.614600 -11.127800 -24.505100
C -17.416900 -10.609900 -23.199300
C -17.127000 -9.710400 -20.658800
H -17.007700 -9.414200 -19.785400
H -16.921900 -11.082600 -25.123800
C -16.212500 -9.996500 -22.809300
C -16.074500 -9.544400 -21.541300
H -15.516000 -9.902900 -23.418500
H -15.287900 -9.130000 -21.268500
N -24.699800 -9.997200 -24.305300
C -23.653900 -9.548200 -24.347300
N -22.829700 -10.271800 -27.596000
C -22.317600 -9.017400 -24.431100
C -22.269100 -9.751700 -26.754600
H -22.180200 -8.367100 -22.536100
C -21.713600 -8.443700 -23.336800
C -21.616600 -9.118400 -25.645300
C -20.409400 -7.978700 -23.425700
C -20.320600 -8.638000 -25.748300
H -19.861300 -8.693100 -26.555100
C -19.773400 -7.398900 -22.270200
C -19.718100 -8.075000 -24.637500
N -19.278900 -6.937600 -21.351300
C -18.362900 -7.597800 -24.724600
N -17.290700 -7.214500 -24.783800
