22
Fragment
H -22.883500 -12.844300 -23.542600
H -22.516700 -11.985200 -21.444700
C -22.067600 -12.447200 -23.338700
C -21.832600 -11.927900 -22.072200
H -21.234900 -12.692800 -25.129200
C -21.090500 -12.365400 -24.270900
N -20.695800 -11.355700 -21.699700
C -19.860100 -11.785600 -23.936400
C -19.703000 -11.299100 -22.623400
H -18.888000 -12.000400 -25.729500
C -18.780200 -11.680000 -24.863000
C -18.444700 -10.701700 -22.243500
N -18.290300 -10.260400 -20.965700
C -17.614600 -11.127800 -24.505100
C -17.416900 -10.609900 -23.199300
C -17.127000 -9.710400 -20.658800
H -17.007700 -9.414200 -19.785400
H -16.921900 -11.082600 -25.123800
C -16.212500 -9.996500 -22.809300
C -16.074500 -9.544400 -21.541300
H -15.516000 -9.902900 -23.418500
H -15.287900 -9.130000 -21.268500
16
Fragment
N -24.503900 -9.125300 -31.544800
C -23.458000 -9.574300 -31.586800
N -22.633800 -8.850700 -34.835500
C -22.121700 -10.105100 -31.670600
C -22.073200 -9.370800 -33.994100
H -21.984300 -10.755400 -29.775600
C -21.517700 -10.678800 -30.576300
C -21.420700 -10.004100 -32.884900
C -20.213500 -11.143800 -30.665200
C -20.124700 -10.484500 -32.987800
H -19.665400 -10.429400 -33.794600
C -19.577500 -11.723600 -29.509700
C -19.522200 -11.047500 -31.877000
N -19.083000 -12.184900 -28.590800
C -18.167000 -11.524700 -31.964100
N -17.094800 -11.908000 -32.023300
38
Fragment
H -22.883500 -12.844300 -23.542600
H -22.516700 -11.985200 -21.444700
C -22.067600 -12.447200 -23.338700
C -21.832600 -11.927900 -22.072200
H -21.234900 -12.692800 -25.129200
C -21.090500 -12.365400 -24.270900
N -20.695800 -11.355700 -21.699700
C -19.860100 -11.785600 -23.936400
C -19.703000 -11.299100 -22.623400
H -18.888000 -12.000400 -25.729500
C -18.780200 -11.680000 -24.863000
C -18.444700 -10.701700 -22.243500
N -18.290300 -10.260400 -20.965700
C -17.614600 -11.127800 -24.505100
C -17.416900 -10.609900 -23.199300
C -17.127000 -9.710400 -20.658800
H -17.007700 -9.414200 -19.785400
H -16.921900 -11.082600 -25.123800
C -16.212500 -9.996500 -22.809300
C -16.074500 -9.544400 -21.541300
H -15.516000 -9.902900 -23.418500
H -15.287900 -9.130000 -21.268500
N -24.503900 -9.125300 -31.544800
C -23.458000 -9.574300 -31.586800
N -22.633800 -8.850700 -34.835500
C -22.121700 -10.105100 -31.670600
C -22.073200 -9.370800 -33.994100
H -21.984300 -10.755400 -29.775600
C -21.517700 -10.678800 -30.576300
C -21.420700 -10.004100 -32.884900
C -20.213500 -11.143800 -30.665200
C -20.124700 -10.484500 -32.987800
H -19.665400 -10.429400 -33.794600
C -19.577500 -11.723600 -29.509700
C -19.522200 -11.047500 -31.877000
N -19.083000 -12.184900 -28.590800
C -18.167000 -11.524700 -31.964100
N -17.094800 -11.908000 -32.023300
