22
Fragment
H -22.883500 -12.844300 -23.542600
H -22.516700 -11.985200 -21.444700
C -22.067600 -12.447200 -23.338700
C -21.832600 -11.927900 -22.072200
H -21.234900 -12.692800 -25.129200
C -21.090500 -12.365400 -24.270900
N -20.695800 -11.355700 -21.699700
C -19.860100 -11.785600 -23.936400
C -19.703000 -11.299100 -22.623400
H -18.888000 -12.000400 -25.729500
C -18.780200 -11.680000 -24.863000
C -18.444700 -10.701700 -22.243500
N -18.290300 -10.260400 -20.965700
C -17.614600 -11.127800 -24.505100
C -17.416900 -10.609900 -23.199300
C -17.127000 -9.710400 -20.658800
H -17.007700 -9.414200 -19.785400
H -16.921900 -11.082600 -25.123800
C -16.212500 -9.996500 -22.809300
C -16.074500 -9.544400 -21.541300
H -15.516000 -9.902900 -23.418500
H -15.287900 -9.130000 -21.268500
22
Fragment
H -23.079400 -6.278200 -16.303100
H -22.712600 -7.137300 -14.205200
C -22.263500 -6.675300 -16.099200
C -22.028500 -7.194600 -14.832700
H -21.430800 -6.429700 -17.889700
C -21.286400 -6.757100 -17.031400
N -20.891700 -7.766800 -14.460200
C -20.056000 -7.336900 -16.696900
C -19.898900 -7.823400 -15.383900
H -19.083900 -7.122100 -18.490000
C -18.976100 -7.442500 -17.623500
C -18.640600 -8.420800 -15.004000
N -18.486200 -8.862100 -13.726200
C -17.810500 -7.994700 -17.265600
C -17.612800 -8.512600 -15.959800
C -17.322800 -9.412100 -13.419300
H -17.203600 -9.708300 -12.545900
H -17.117800 -8.039900 -17.884300
C -16.408400 -9.126000 -15.569800
C -16.270400 -9.578100 -14.301800
H -15.711900 -9.219600 -16.179000
H -15.483800 -9.992500 -14.029000
44
Fragment
H -22.883500 -12.844300 -23.542600
H -22.516700 -11.985200 -21.444700
C -22.067600 -12.447200 -23.338700
C -21.832600 -11.927900 -22.072200
H -21.234900 -12.692800 -25.129200
C -21.090500 -12.365400 -24.270900
N -20.695800 -11.355700 -21.699700
C -19.860100 -11.785600 -23.936400
C -19.703000 -11.299100 -22.623400
H -18.888000 -12.000400 -25.729500
C -18.780200 -11.680000 -24.863000
C -18.444700 -10.701700 -22.243500
N -18.290300 -10.260400 -20.965700
C -17.614600 -11.127800 -24.505100
C -17.416900 -10.609900 -23.199300
C -17.127000 -9.710400 -20.658800
H -17.007700 -9.414200 -19.785400
H -16.921900 -11.082600 -25.123800
C -16.212500 -9.996500 -22.809300
C -16.074500 -9.544400 -21.541300
H -15.516000 -9.902900 -23.418500
H -15.287900 -9.130000 -21.268500
H -23.079400 -6.278200 -16.303100
H -22.712600 -7.137300 -14.205200
C -22.263500 -6.675300 -16.099200
C -22.028500 -7.194600 -14.832700
H -21.430800 -6.429700 -17.889700
C -21.286400 -6.757100 -17.031400
N -20.891700 -7.766800 -14.460200
C -20.056000 -7.336900 -16.696900
C -19.898900 -7.823400 -15.383900
H -19.083900 -7.122100 -18.490000
C -18.976100 -7.442500 -17.623500
C -18.640600 -8.420800 -15.004000
N -18.486200 -8.862100 -13.726200
C -17.810500 -7.994700 -17.265600
C -17.612800 -8.512600 -15.959800
C -17.322800 -9.412100 -13.419300
H -17.203600 -9.708300 -12.545900
H -17.117800 -8.039900 -17.884300
C -16.408400 -9.126000 -15.569800
C -16.270400 -9.578100 -14.301800
H -15.711900 -9.219600 -16.179000
H -15.483800 -9.992500 -14.029000
