22
Fragment
H -22.883500 -12.844300 -23.542600
H -22.516700 -11.985200 -21.444700
C -22.067600 -12.447200 -23.338700
C -21.832600 -11.927900 -22.072200
H -21.234900 -12.692800 -25.129200
C -21.090500 -12.365400 -24.270900
N -20.695800 -11.355700 -21.699700
C -19.860100 -11.785600 -23.936400
C -19.703000 -11.299100 -22.623400
H -18.888000 -12.000400 -25.729500
C -18.780200 -11.680000 -24.863000
C -18.444700 -10.701700 -22.243500
N -18.290300 -10.260400 -20.965700
C -17.614600 -11.127800 -24.505100
C -17.416900 -10.609900 -23.199300
C -17.127000 -9.710400 -20.658800
H -17.007700 -9.414200 -19.785400
H -16.921900 -11.082600 -25.123800
C -16.212500 -9.996500 -22.809300
C -16.074500 -9.544400 -21.541300
H -15.516000 -9.902900 -23.418500
H -15.287900 -9.130000 -21.268500
22
Fragment
H -16.577900 -13.817000 -22.168500
H -16.349800 -13.044100 -20.018500
C -15.791300 -13.402600 -21.895700
C -15.653300 -12.950500 -20.627700
H -14.944000 -11.864400 -18.313200
H -14.858100 -13.532800 -23.651600
C -14.738900 -13.236600 -22.778200
C -14.449000 -12.337100 -20.237700
C -14.251200 -11.819200 -18.931900
N -13.575500 -12.686600 -22.471300
C -13.421100 -12.245300 -21.193500
C -13.085600 -11.267000 -18.574000
H -12.977900 -10.946600 -17.707500
C -12.162800 -11.647900 -20.813600
C -12.005700 -11.161400 -19.500600
N -11.170000 -11.591300 -21.737300
C -10.775400 -10.581600 -19.166100
H -10.630900 -10.254200 -18.307800
C -10.033200 -11.019100 -21.364800
C -9.798200 -10.499800 -20.098300
H -9.349200 -10.961800 -21.992300
H -8.982300 -10.102700 -19.894400
44
Fragment
H -22.883500 -12.844300 -23.542600
H -22.516700 -11.985200 -21.444700
C -22.067600 -12.447200 -23.338700
C -21.832600 -11.927900 -22.072200
H -21.234900 -12.692800 -25.129200
C -21.090500 -12.365400 -24.270900
N -20.695800 -11.355700 -21.699700
C -19.860100 -11.785600 -23.936400
C -19.703000 -11.299100 -22.623400
H -18.888000 -12.000400 -25.729500
C -18.780200 -11.680000 -24.863000
C -18.444700 -10.701700 -22.243500
N -18.290300 -10.260400 -20.965700
C -17.614600 -11.127800 -24.505100
C -17.416900 -10.609900 -23.199300
C -17.127000 -9.710400 -20.658800
H -17.007700 -9.414200 -19.785400
H -16.921900 -11.082600 -25.123800
C -16.212500 -9.996500 -22.809300
C -16.074500 -9.544400 -21.541300
H -15.516000 -9.902900 -23.418500
H -15.287900 -9.130000 -21.268500
H -16.577900 -13.817000 -22.168500
H -16.349800 -13.044100 -20.018500
C -15.791300 -13.402600 -21.895700
C -15.653300 -12.950500 -20.627700
H -14.944000 -11.864400 -18.313200
H -14.858100 -13.532800 -23.651600
C -14.738900 -13.236600 -22.778200
C -14.449000 -12.337100 -20.237700
C -14.251200 -11.819200 -18.931900
N -13.575500 -12.686600 -22.471300
C -13.421100 -12.245300 -21.193500
C -13.085600 -11.267000 -18.574000
H -12.977900 -10.946600 -17.707500
C -12.162800 -11.647900 -20.813600
C -12.005700 -11.161400 -19.500600
N -11.170000 -11.591300 -21.737300
C -10.775400 -10.581600 -19.166100
H -10.630900 -10.254200 -18.307800
C -10.033200 -11.019100 -21.364800
C -9.798200 -10.499800 -20.098300
H -9.349200 -10.961800 -21.992300
H -8.982300 -10.102700 -19.894400
