24
Fragment
O -30.757500 -7.752500 -40.925400
O -30.107200 -6.864300 -42.803500
N -29.913700 -7.393700 -41.730300
O -29.331700 -9.700200 -42.976400
Cl -28.997800 -5.700200 -39.487100
C -28.495300 -7.571000 -41.364500
N -28.264500 -9.153800 -43.231400
C -28.007600 -6.815900 -40.323500
C -27.669000 -8.384200 -42.136000
O -27.655300 -9.176200 -44.293700
O -26.677500 -11.063900 -42.168300
C -26.658700 -6.927800 -40.049900
O -26.463800 -6.294300 -37.858900
C -26.303100 -8.485800 -41.879200
N -26.100200 -6.073500 -39.002300
C -25.829500 -7.735600 -40.814100
N -25.690800 -10.622300 -42.757800
N -25.414800 -9.297800 -42.615400
O -25.350900 -5.190100 -39.367100
O -24.921100 -11.256400 -43.465200
H -24.691400 -8.951800 -42.978200
N -24.409900 -7.808200 -40.462500
O -24.168000 -7.987300 -39.290900
O -23.596900 -7.682900 -41.370600
24
Fragment
O -30.757500 -1.702000 -40.925400
O -30.107200 -0.813800 -42.803500
N -29.913700 -1.343200 -41.730300
O -29.331700 -3.649700 -42.976400
Cl -28.997800 0.350300 -39.487100
C -28.495300 -1.520500 -41.364500
N -28.264500 -3.103300 -43.231400
C -28.007600 -0.765400 -40.323500
C -27.669000 -2.333700 -42.136000
O -27.655300 -3.125700 -44.293700
O -26.677500 -5.013400 -42.168300
C -26.658700 -0.877300 -40.049900
O -26.463800 -0.243800 -37.858900
C -26.303100 -2.435300 -41.879200
N -26.100200 -0.023000 -39.002300
C -25.829500 -1.685100 -40.814100
N -25.690800 -4.571800 -42.757800
N -25.414800 -3.247300 -42.615400
O -25.350900 0.860400 -39.367100
O -24.921100 -5.205900 -43.465200
H -24.691400 -2.901300 -42.978200
N -24.409900 -1.757700 -40.462500
O -24.168000 -1.936800 -39.290900
O -23.596900 -1.632400 -41.370600
48
Fragment
O -30.757500 -7.752500 -40.925400
O -30.107200 -6.864300 -42.803500
N -29.913700 -7.393700 -41.730300
O -29.331700 -9.700200 -42.976400
Cl -28.997800 -5.700200 -39.487100
C -28.495300 -7.571000 -41.364500
N -28.264500 -9.153800 -43.231400
C -28.007600 -6.815900 -40.323500
C -27.669000 -8.384200 -42.136000
O -27.655300 -9.176200 -44.293700
O -26.677500 -11.063900 -42.168300
C -26.658700 -6.927800 -40.049900
O -26.463800 -6.294300 -37.858900
C -26.303100 -8.485800 -41.879200
N -26.100200 -6.073500 -39.002300
C -25.829500 -7.735600 -40.814100
N -25.690800 -10.622300 -42.757800
N -25.414800 -9.297800 -42.615400
O -25.350900 -5.190100 -39.367100
O -24.921100 -11.256400 -43.465200
H -24.691400 -8.951800 -42.978200
N -24.409900 -7.808200 -40.462500
O -24.168000 -7.987300 -39.290900
O -23.596900 -7.682900 -41.370600
O -30.757500 -1.702000 -40.925400
O -30.107200 -0.813800 -42.803500
N -29.913700 -1.343200 -41.730300
O -29.331700 -3.649700 -42.976400
Cl -28.997800 0.350300 -39.487100
C -28.495300 -1.520500 -41.364500
N -28.264500 -3.103300 -43.231400
C -28.007600 -0.765400 -40.323500
C -27.669000 -2.333700 -42.136000
O -27.655300 -3.125700 -44.293700
O -26.677500 -5.013400 -42.168300
C -26.658700 -0.877300 -40.049900
O -26.463800 -0.243800 -37.858900
C -26.303100 -2.435300 -41.879200
N -26.100200 -0.023000 -39.002300
C -25.829500 -1.685100 -40.814100
N -25.690800 -4.571800 -42.757800
N -25.414800 -3.247300 -42.615400
O -25.350900 0.860400 -39.367100
O -24.921100 -5.205900 -43.465200
H -24.691400 -2.901300 -42.978200
N -24.409900 -1.757700 -40.462500
O -24.168000 -1.936800 -39.290900
O -23.596900 -1.632400 -41.370600
