24
Fragment
O -30.757500 -7.752500 -40.925400
O -30.107200 -6.864300 -42.803500
N -29.913700 -7.393700 -41.730300
O -29.331700 -9.700200 -42.976400
Cl -28.997800 -5.700200 -39.487100
C -28.495300 -7.571000 -41.364500
N -28.264500 -9.153800 -43.231400
C -28.007600 -6.815900 -40.323500
C -27.669000 -8.384200 -42.136000
O -27.655300 -9.176200 -44.293700
O -26.677500 -11.063900 -42.168300
C -26.658700 -6.927800 -40.049900
O -26.463800 -6.294300 -37.858900
C -26.303100 -8.485800 -41.879200
N -26.100200 -6.073500 -39.002300
C -25.829500 -7.735600 -40.814100
N -25.690800 -10.622300 -42.757800
N -25.414800 -9.297800 -42.615400
O -25.350900 -5.190100 -39.367100
O -24.921100 -11.256400 -43.465200
H -24.691400 -8.951800 -42.978200
N -24.409900 -7.808200 -40.462500
O -24.168000 -7.987300 -39.290900
O -23.596900 -7.682900 -41.370600
24
Fragment
O -38.702000 -10.777800 -40.925400
O -38.051700 -9.889500 -42.803500
N -37.858200 -10.419000 -41.730300
O -37.276200 -12.725400 -42.976400
Cl -36.942300 -8.725500 -39.487100
C -36.439800 -10.596200 -41.364500
N -36.209000 -12.179100 -43.231400
C -35.952100 -9.841100 -40.323500
C -35.613500 -11.409400 -42.136000
O -35.599800 -12.201400 -44.293700
O -34.622000 -14.089200 -42.168300
C -34.603200 -9.953100 -40.049900
O -34.408300 -9.319600 -37.858900
C -34.247600 -11.511100 -41.879200
N -34.044700 -9.098700 -39.002300
C -33.774000 -10.760800 -40.814100
N -33.635300 -13.647500 -42.757800
N -33.359300 -12.323100 -42.615400
O -33.295400 -8.215400 -39.367100
O -32.865600 -14.281600 -43.465200
H -32.635900 -11.977000 -42.978200
N -32.354400 -10.833400 -40.462500
O -32.112500 -11.012500 -39.290900
O -31.541400 -10.708200 -41.370600
48
Fragment
O -30.757500 -7.752500 -40.925400
O -30.107200 -6.864300 -42.803500
N -29.913700 -7.393700 -41.730300
O -29.331700 -9.700200 -42.976400
Cl -28.997800 -5.700200 -39.487100
C -28.495300 -7.571000 -41.364500
N -28.264500 -9.153800 -43.231400
C -28.007600 -6.815900 -40.323500
C -27.669000 -8.384200 -42.136000
O -27.655300 -9.176200 -44.293700
O -26.677500 -11.063900 -42.168300
C -26.658700 -6.927800 -40.049900
O -26.463800 -6.294300 -37.858900
C -26.303100 -8.485800 -41.879200
N -26.100200 -6.073500 -39.002300
C -25.829500 -7.735600 -40.814100
N -25.690800 -10.622300 -42.757800
N -25.414800 -9.297800 -42.615400
O -25.350900 -5.190100 -39.367100
O -24.921100 -11.256400 -43.465200
H -24.691400 -8.951800 -42.978200
N -24.409900 -7.808200 -40.462500
O -24.168000 -7.987300 -39.290900
O -23.596900 -7.682900 -41.370600
O -38.702000 -10.777800 -40.925400
O -38.051700 -9.889500 -42.803500
N -37.858200 -10.419000 -41.730300
O -37.276200 -12.725400 -42.976400
Cl -36.942300 -8.725500 -39.487100
C -36.439800 -10.596200 -41.364500
N -36.209000 -12.179100 -43.231400
C -35.952100 -9.841100 -40.323500
C -35.613500 -11.409400 -42.136000
O -35.599800 -12.201400 -44.293700
O -34.622000 -14.089200 -42.168300
C -34.603200 -9.953100 -40.049900
O -34.408300 -9.319600 -37.858900
C -34.247600 -11.511100 -41.879200
N -34.044700 -9.098700 -39.002300
C -33.774000 -10.760800 -40.814100
N -33.635300 -13.647500 -42.757800
N -33.359300 -12.323100 -42.615400
O -33.295400 -8.215400 -39.367100
O -32.865600 -14.281600 -43.465200
H -32.635900 -11.977000 -42.978200
N -32.354400 -10.833400 -40.462500
O -32.112500 -11.012500 -39.290900
O -31.541400 -10.708200 -41.370600
