26
Fragment
H -21.714200 -53.085800 -4.426800
H -21.020700 -55.007500 -3.416100
C -20.803300 -53.222100 -4.295300
C -20.385400 -54.383900 -3.690200
N -19.945900 -52.285900 -4.699400
N -19.095100 -54.641000 -3.486500
H -19.052400 -50.184800 -5.209300
C -18.647400 -52.549700 -4.507500
C -18.231000 -53.727900 -3.910900
N -18.173700 -50.299900 -5.390400
C -17.694200 -51.527600 -4.952300
N -17.423900 -49.194100 -4.922700
H -17.319900 -53.883400 -3.805000
H -16.545100 -47.078600 -3.805000
N -16.441100 -51.767900 -4.922700
C -16.170800 -49.434400 -4.952300
N -15.691300 -50.662100 -5.390400
C -15.634000 -47.234100 -3.910900
C -15.217600 -48.412300 -4.507500
H -14.812600 -50.777200 -5.209300
N -14.769900 -46.321000 -3.486500
N -13.919100 -48.676100 -4.699400
C -13.479600 -46.578100 -3.690200
C -13.061700 -47.739900 -4.295300
H -12.844300 -45.954500 -3.416100
H -12.150800 -47.876200 -4.426800
18
Fragment
H -25.117000 -61.650800 -4.367200
H -25.117000 -56.138200 -1.188100
O -24.785000 -60.968300 -4.054600
O -24.785000 -56.820700 -1.500700
H -24.416700 -58.894500 -2.777600
C -23.490100 -61.154400 -3.869800
C -23.490100 -56.634600 -1.685500
C -23.486100 -58.894500 -2.777600
O -22.926700 -62.179100 -4.171300
O -22.926700 -55.609900 -1.384000
C -22.794300 -59.982900 -3.289400
C -22.794300 -57.806100 -2.265800
C -21.405900 -59.977500 -3.283500
C -21.405900 -57.811500 -2.271700
H -20.939400 -60.708500 -3.621700
H -20.939400 -57.080500 -1.933600
C -20.715900 -58.894500 -2.777600
H -19.785300 -58.894500 -2.777600
44
Fragment
H -21.714200 -53.085800 -4.426800
H -21.020700 -55.007500 -3.416100
C -20.803300 -53.222100 -4.295300
C -20.385400 -54.383900 -3.690200
N -19.945900 -52.285900 -4.699400
N -19.095100 -54.641000 -3.486500
H -19.052400 -50.184800 -5.209300
C -18.647400 -52.549700 -4.507500
C -18.231000 -53.727900 -3.910900
N -18.173700 -50.299900 -5.390400
C -17.694200 -51.527600 -4.952300
N -17.423900 -49.194100 -4.922700
H -17.319900 -53.883400 -3.805000
H -16.545100 -47.078600 -3.805000
N -16.441100 -51.767900 -4.922700
C -16.170800 -49.434400 -4.952300
N -15.691300 -50.662100 -5.390400
C -15.634000 -47.234100 -3.910900
C -15.217600 -48.412300 -4.507500
H -14.812600 -50.777200 -5.209300
N -14.769900 -46.321000 -3.486500
N -13.919100 -48.676100 -4.699400
C -13.479600 -46.578100 -3.690200
C -13.061700 -47.739900 -4.295300
H -12.844300 -45.954500 -3.416100
H -12.150800 -47.876200 -4.426800
H -25.117000 -61.650800 -4.367200
H -25.117000 -56.138200 -1.188100
O -24.785000 -60.968300 -4.054600
O -24.785000 -56.820700 -1.500700
H -24.416700 -58.894500 -2.777600
C -23.490100 -61.154400 -3.869800
C -23.490100 -56.634600 -1.685500
C -23.486100 -58.894500 -2.777600
O -22.926700 -62.179100 -4.171300
O -22.926700 -55.609900 -1.384000
C -22.794300 -59.982900 -3.289400
C -22.794300 -57.806100 -2.265800
C -21.405900 -59.977500 -3.283500
C -21.405900 -57.811500 -2.271700
H -20.939400 -60.708500 -3.621700
H -20.939400 -57.080500 -1.933600
C -20.715900 -58.894500 -2.777600
H -19.785300 -58.894500 -2.777600
