26
Fragment
H -21.714200 -53.085800 -4.426800
H -21.020700 -55.007500 -3.416100
C -20.803300 -53.222100 -4.295300
C -20.385400 -54.383900 -3.690200
N -19.945900 -52.285900 -4.699400
N -19.095100 -54.641000 -3.486500
H -19.052400 -50.184800 -5.209300
C -18.647400 -52.549700 -4.507500
C -18.231000 -53.727900 -3.910900
N -18.173700 -50.299900 -5.390400
C -17.694200 -51.527600 -4.952300
N -17.423900 -49.194100 -4.922700
H -17.319900 -53.883400 -3.805000
H -16.545100 -47.078600 -3.805000
N -16.441100 -51.767900 -4.922700
C -16.170800 -49.434400 -4.952300
N -15.691300 -50.662100 -5.390400
C -15.634000 -47.234100 -3.910900
C -15.217600 -48.412300 -4.507500
H -14.812600 -50.777200 -5.209300
N -14.769900 -46.321000 -3.486500
N -13.919100 -48.676100 -4.699400
C -13.479600 -46.578100 -3.690200
C -13.061700 -47.739900 -4.295300
H -12.844300 -45.954500 -3.416100
H -12.150800 -47.876200 -4.426800
18
Fragment
H -14.079700 -42.067500 -6.481100
C -13.149100 -42.067500 -6.481100
H -12.925600 -43.881500 -5.637100
H -12.925600 -40.253500 -7.325200
C -12.459100 -43.150500 -5.975200
C -12.459100 -40.984500 -6.987000
C -11.070700 -43.155900 -5.969300
C -11.070700 -40.979100 -6.992900
O -10.938300 -45.352100 -5.087500
O -10.938300 -38.782900 -7.874800
C -10.378900 -42.067500 -6.481100
C -10.374900 -44.327400 -5.389000
C -10.374900 -39.807600 -7.573300
H -9.448300 -42.067500 -6.481100
O -9.080000 -44.141300 -5.204200
O -9.080000 -39.993700 -7.758100
H -8.748000 -44.823800 -4.891600
H -8.748000 -39.311200 -8.070700
44
Fragment
H -21.714200 -53.085800 -4.426800
H -21.020700 -55.007500 -3.416100
C -20.803300 -53.222100 -4.295300
C -20.385400 -54.383900 -3.690200
N -19.945900 -52.285900 -4.699400
N -19.095100 -54.641000 -3.486500
H -19.052400 -50.184800 -5.209300
C -18.647400 -52.549700 -4.507500
C -18.231000 -53.727900 -3.910900
N -18.173700 -50.299900 -5.390400
C -17.694200 -51.527600 -4.952300
N -17.423900 -49.194100 -4.922700
H -17.319900 -53.883400 -3.805000
H -16.545100 -47.078600 -3.805000
N -16.441100 -51.767900 -4.922700
C -16.170800 -49.434400 -4.952300
N -15.691300 -50.662100 -5.390400
C -15.634000 -47.234100 -3.910900
C -15.217600 -48.412300 -4.507500
H -14.812600 -50.777200 -5.209300
N -14.769900 -46.321000 -3.486500
N -13.919100 -48.676100 -4.699400
C -13.479600 -46.578100 -3.690200
C -13.061700 -47.739900 -4.295300
H -12.844300 -45.954500 -3.416100
H -12.150800 -47.876200 -4.426800
H -14.079700 -42.067500 -6.481100
C -13.149100 -42.067500 -6.481100
H -12.925600 -43.881500 -5.637100
H -12.925600 -40.253500 -7.325200
C -12.459100 -43.150500 -5.975200
C -12.459100 -40.984500 -6.987000
C -11.070700 -43.155900 -5.969300
C -11.070700 -40.979100 -6.992900
O -10.938300 -45.352100 -5.087500
O -10.938300 -38.782900 -7.874800
C -10.378900 -42.067500 -6.481100
C -10.374900 -44.327400 -5.389000
C -10.374900 -39.807600 -7.573300
H -9.448300 -42.067500 -6.481100
O -9.080000 -44.141300 -5.204200
O -9.080000 -39.993700 -7.758100
H -8.748000 -44.823800 -4.891600
H -8.748000 -39.311200 -8.070700
