26
Fragment
H -21.714200 -53.085800 -4.426800
H -21.020700 -55.007500 -3.416100
C -20.803300 -53.222100 -4.295300
C -20.385400 -54.383900 -3.690200
N -19.945900 -52.285900 -4.699400
N -19.095100 -54.641000 -3.486500
H -19.052400 -50.184800 -5.209300
C -18.647400 -52.549700 -4.507500
C -18.231000 -53.727900 -3.910900
N -18.173700 -50.299900 -5.390400
C -17.694200 -51.527600 -4.952300
N -17.423900 -49.194100 -4.922700
H -17.319900 -53.883400 -3.805000
H -16.545100 -47.078600 -3.805000
N -16.441100 -51.767900 -4.922700
C -16.170800 -49.434400 -4.952300
N -15.691300 -50.662100 -5.390400
C -15.634000 -47.234100 -3.910900
C -15.217600 -48.412300 -4.507500
H -14.812600 -50.777200 -5.209300
N -14.769900 -46.321000 -3.486500
N -13.919100 -48.676100 -4.699400
C -13.479600 -46.578100 -3.690200
C -13.061700 -47.739900 -4.295300
H -12.844300 -45.954500 -3.416100
H -12.150800 -47.876200 -4.426800
18
Fragment
H -20.852700 -42.067500 -0.925900
C -19.922100 -42.067500 -0.925900
H -19.698600 -43.881500 -1.769900
H -19.698600 -40.253500 -0.081800
C -19.232100 -43.150500 -1.431800
C -19.232100 -40.984500 -0.420000
C -17.843700 -43.155900 -1.437700
C -17.843700 -40.979100 -0.414100
O -17.711300 -45.352100 -2.319500
O -17.711300 -38.782900 0.467800
C -17.151900 -42.067500 -0.925900
C -17.147900 -44.327400 -2.018000
C -17.147900 -39.807600 0.166300
H -16.221300 -42.067500 -0.925900
O -15.853000 -44.141300 -2.202800
O -15.853000 -39.993700 0.351100
H -15.521000 -44.823800 -2.515400
H -15.521000 -39.311200 0.663700
44
Fragment
H -21.714200 -53.085800 -4.426800
H -21.020700 -55.007500 -3.416100
C -20.803300 -53.222100 -4.295300
C -20.385400 -54.383900 -3.690200
N -19.945900 -52.285900 -4.699400
N -19.095100 -54.641000 -3.486500
H -19.052400 -50.184800 -5.209300
C -18.647400 -52.549700 -4.507500
C -18.231000 -53.727900 -3.910900
N -18.173700 -50.299900 -5.390400
C -17.694200 -51.527600 -4.952300
N -17.423900 -49.194100 -4.922700
H -17.319900 -53.883400 -3.805000
H -16.545100 -47.078600 -3.805000
N -16.441100 -51.767900 -4.922700
C -16.170800 -49.434400 -4.952300
N -15.691300 -50.662100 -5.390400
C -15.634000 -47.234100 -3.910900
C -15.217600 -48.412300 -4.507500
H -14.812600 -50.777200 -5.209300
N -14.769900 -46.321000 -3.486500
N -13.919100 -48.676100 -4.699400
C -13.479600 -46.578100 -3.690200
C -13.061700 -47.739900 -4.295300
H -12.844300 -45.954500 -3.416100
H -12.150800 -47.876200 -4.426800
H -20.852700 -42.067500 -0.925900
C -19.922100 -42.067500 -0.925900
H -19.698600 -43.881500 -1.769900
H -19.698600 -40.253500 -0.081800
C -19.232100 -43.150500 -1.431800
C -19.232100 -40.984500 -0.420000
C -17.843700 -43.155900 -1.437700
C -17.843700 -40.979100 -0.414100
O -17.711300 -45.352100 -2.319500
O -17.711300 -38.782900 0.467800
C -17.151900 -42.067500 -0.925900
C -17.147900 -44.327400 -2.018000
C -17.147900 -39.807600 0.166300
H -16.221300 -42.067500 -0.925900
O -15.853000 -44.141300 -2.202800
O -15.853000 -39.993700 0.351100
H -15.521000 -44.823800 -2.515400
H -15.521000 -39.311200 0.663700
