3
Fragment
H -8.850900 -7.871500 -45.597800
O -8.072000 -7.575700 -45.668900
H -7.712800 -7.789500 -46.418000
17
Fragment
O -18.936500 -11.224700 -42.159700
N -17.871200 -10.527400 -42.076400
O -17.753700 -9.638600 -41.223000
N -16.948800 -10.827300 -42.979000
C -15.820900 -10.068400 -42.940200
H -15.779300 -8.682800 -41.437200
N -15.374700 -9.070700 -42.165400
H -14.933300 -10.907100 -44.552200
N -14.861900 -10.286700 -43.855900
N -14.131000 -8.636800 -42.568600
C -13.868300 -9.402500 -43.599800
C -12.665500 -9.321400 -44.412800
N -12.412600 -10.105300 -45.450700
N -11.657000 -8.465400 -44.241900
H -11.524400 -7.816800 -43.594200
N -11.202000 -9.690600 -45.911800
N -10.739100 -8.703300 -45.195500
20
Fragment
H -8.850900 -7.871500 -45.597800
O -8.072000 -7.575700 -45.668900
H -7.712800 -7.789500 -46.418000
O -18.936500 -11.224700 -42.159700
N -17.871200 -10.527400 -42.076400
O -17.753700 -9.638600 -41.223000
N -16.948800 -10.827300 -42.979000
C -15.820900 -10.068400 -42.940200
H -15.779300 -8.682800 -41.437200
N -15.374700 -9.070700 -42.165400
H -14.933300 -10.907100 -44.552200
N -14.861900 -10.286700 -43.855900
N -14.131000 -8.636800 -42.568600
C -13.868300 -9.402500 -43.599800
C -12.665500 -9.321400 -44.412800
N -12.412600 -10.105300 -45.450700
N -11.657000 -8.465400 -44.241900
H -11.524400 -7.816800 -43.594200
N -11.202000 -9.690600 -45.911800
N -10.739100 -8.703300 -45.195500
