3
Fragment
H -3.836200 -14.520700 -14.575900
O -3.046900 -14.280800 -15.066600
H -2.996300 -13.500400 -15.370100
15
Fragment
H -3.761700 -6.672200 -15.864000
N -3.685700 -8.658200 -15.703500
O -3.621100 -11.322600 -15.357000
N -3.322200 -7.433200 -16.137800
N -2.831200 -10.855900 -16.163400
C -2.812300 -9.416500 -16.326400
C -2.274500 -7.532400 -16.971300
N -2.131000 -5.134900 -17.418000
O -2.067500 -11.514800 -16.838000
N -1.915600 -8.812000 -17.124300
C -1.640000 -6.373700 -17.579200
N -1.298100 -4.350700 -18.074500
N -0.532100 -6.413100 -18.310200
N -0.367200 -5.128200 -18.582900
H 0.348400 -4.801700 -19.147300
18
Fragment
H -3.836200 -14.520700 -14.575900
O -3.046900 -14.280800 -15.066600
H -2.996300 -13.500400 -15.370100
H -3.761700 -6.672200 -15.864000
N -3.685700 -8.658200 -15.703500
O -3.621100 -11.322600 -15.357000
N -3.322200 -7.433200 -16.137800
N -2.831200 -10.855900 -16.163400
C -2.812300 -9.416500 -16.326400
C -2.274500 -7.532400 -16.971300
N -2.131000 -5.134900 -17.418000
O -2.067500 -11.514800 -16.838000
N -1.915600 -8.812000 -17.124300
C -1.640000 -6.373700 -17.579200
N -1.298100 -4.350700 -18.074500
N -0.532100 -6.413100 -18.310200
N -0.367200 -5.128200 -18.582900
H 0.348400 -4.801700 -19.147300
