30
Fragment
O -7.814700 -47.681700 -10.788700
O -7.788300 -49.790600 -11.199900
N -7.500000 -48.823800 -10.510500
C -6.778600 -49.057600 -9.246700
H -6.766600 -47.105200 -8.705800
H -6.597300 -51.082700 -9.479300
C -6.491100 -47.980300 -8.451300
C -6.382800 -50.346600 -8.913100
O -5.851900 -45.867000 -6.803300
C -5.782500 -48.179300 -7.263400
C -5.681500 -50.545600 -7.766000
C -5.451200 -47.038800 -6.390500
H -5.438100 -45.045300 -6.227300
H -5.402500 -51.423900 -7.524500
C -5.367000 -49.477800 -6.932200
O -5.007100 -43.836600 -5.436800
O -4.811500 -47.205300 -5.342900
H -4.723000 -48.760600 -5.477600
O -4.666000 -49.737800 -5.806300
H -4.501400 -45.781400 -3.772500
C -4.365500 -43.854200 -4.344400
N -4.135200 -44.920200 -3.597900
N -3.817000 -42.772500 -3.761800
H -3.799500 -42.739000 -1.761400
H -3.797900 -41.908100 -4.157500
H -3.598000 -44.969500 -1.665100
C -3.256800 -44.615600 -2.477700
C -3.255100 -43.080200 -2.462200
H -2.379900 -44.960000 -2.625400
H -2.374600 -42.732700 -2.373300
18
Fragment
O -9.314400 -41.080700 -7.154100
O -9.249200 -38.965500 -6.797600
N -8.998800 -40.113600 -6.485900
H -8.322000 -42.369400 -5.359300
C -8.286200 -40.347400 -5.216500
H -8.039400 -38.385500 -4.798800
C -8.028500 -41.636400 -4.824100
C -7.859800 -39.266900 -4.492000
C -7.339800 -41.851200 -3.645200
H -7.166200 -42.742200 -3.362100
C -7.165000 -39.469100 -3.299300
O -7.025400 -37.148300 -2.935400
C -6.901300 -40.786600 -2.872600
H -6.865600 -36.297200 -2.435300
C -6.711700 -38.347600 -2.470400
O -6.265400 -41.073100 -1.732800
O -6.100300 -38.502100 -1.425300
H -5.847700 -40.186300 -1.151200
48
Fragment
O -7.814700 -47.681700 -10.788700
O -7.788300 -49.790600 -11.199900
N -7.500000 -48.823800 -10.510500
C -6.778600 -49.057600 -9.246700
H -6.766600 -47.105200 -8.705800
H -6.597300 -51.082700 -9.479300
C -6.491100 -47.980300 -8.451300
C -6.382800 -50.346600 -8.913100
O -5.851900 -45.867000 -6.803300
C -5.782500 -48.179300 -7.263400
C -5.681500 -50.545600 -7.766000
C -5.451200 -47.038800 -6.390500
H -5.438100 -45.045300 -6.227300
H -5.402500 -51.423900 -7.524500
C -5.367000 -49.477800 -6.932200
O -5.007100 -43.836600 -5.436800
O -4.811500 -47.205300 -5.342900
H -4.723000 -48.760600 -5.477600
O -4.666000 -49.737800 -5.806300
H -4.501400 -45.781400 -3.772500
C -4.365500 -43.854200 -4.344400
N -4.135200 -44.920200 -3.597900
N -3.817000 -42.772500 -3.761800
H -3.799500 -42.739000 -1.761400
H -3.797900 -41.908100 -4.157500
H -3.598000 -44.969500 -1.665100
C -3.256800 -44.615600 -2.477700
C -3.255100 -43.080200 -2.462200
H -2.379900 -44.960000 -2.625400
H -2.374600 -42.732700 -2.373300
O -9.314400 -41.080700 -7.154100
O -9.249200 -38.965500 -6.797600
N -8.998800 -40.113600 -6.485900
H -8.322000 -42.369400 -5.359300
C -8.286200 -40.347400 -5.216500
H -8.039400 -38.385500 -4.798800
C -8.028500 -41.636400 -4.824100
C -7.859800 -39.266900 -4.492000
C -7.339800 -41.851200 -3.645200
H -7.166200 -42.742200 -3.362100
C -7.165000 -39.469100 -3.299300
O -7.025400 -37.148300 -2.935400
C -6.901300 -40.786600 -2.872600
H -6.865600 -36.297200 -2.435300
C -6.711700 -38.347600 -2.470400
O -6.265400 -41.073100 -1.732800
O -6.100300 -38.502100 -1.425300
H -5.847700 -40.186300 -1.151200
