42
Fragment
O -12.987400 -14.408800 -9.099200
H -12.939800 -13.667400 -11.794700
H -12.638200 -12.520400 -10.769500
H -12.331400 -19.341200 -5.394200
C -12.323300 -13.352200 -11.129900
C -12.216100 -14.358700 -10.036200
H -12.132000 -20.804600 -4.868000
C -11.686700 -19.982500 -5.087400
H -11.460900 -13.221500 -11.529900
N -11.392100 -16.431600 -8.063300
H -11.242100 -19.641700 -4.307100
N -11.152500 -15.210100 -10.148400
O -10.891900 -20.912100 -7.137000
C -10.842400 -16.182400 -9.235300
C -10.688500 -20.230500 -6.155500
N -10.667900 -17.488200 -7.496600
H -10.593900 -15.122200 -10.813200
N -9.811400 -17.033800 -9.457200
C -9.719500 -17.809500 -8.341200
N -9.476300 -19.639300 -5.955100
H -9.346900 -18.969900 -5.501400
H -9.088900 -17.675100 -10.994600
N -8.959500 -17.005700 -10.541000
C -8.716400 -18.835500 -8.154800
N -8.624400 -19.611200 -7.038900
H -7.842000 -21.522800 -5.682900
N -7.767900 -19.156800 -8.999400
C -7.747300 -16.414500 -10.340600
C -7.593400 -20.462600 -7.260700
O -7.544000 -15.732900 -9.359000
N -7.283300 -21.434900 -6.347700
H -7.193800 -17.003300 -12.188900
N -7.043700 -20.213400 -8.432800
H -6.974900 -23.423500 -4.966100
C -6.749200 -16.662500 -11.408700
H -6.303900 -15.840400 -11.628100
C -6.219800 -22.286300 -6.459900
C -6.112600 -23.292800 -5.366200
H -6.104400 -17.303800 -11.101800
H -5.797700 -24.124600 -5.726600
H -5.496100 -22.977600 -4.701400
O -5.448400 -22.236200 -7.396800
42
Fragment
O -15.301700 -28.343700 -4.975200
H -15.254100 -29.085100 -7.670700
H -14.952500 -30.232100 -6.645400
H -14.645700 -23.411300 -1.270200
C -14.637600 -29.400300 -7.005900
C -14.530400 -28.393800 -5.912200
H -14.446300 -21.947900 -0.744000
C -14.001000 -22.770000 -0.963400
H -13.775200 -29.531000 -7.405900
N -13.706400 -26.320900 -3.939300
H -13.556400 -23.110800 -0.183100
N -13.466800 -27.542400 -6.024400
O -13.206200 -21.840400 -3.013000
C -13.156700 -26.570100 -5.111300
C -13.002800 -22.522000 -2.031500
N -12.982200 -25.264300 -3.372600
H -12.908200 -27.630300 -6.689200
N -12.125700 -25.718700 -5.333200
C -12.033800 -24.943000 -4.217200
N -11.790600 -23.113200 -1.831100
H -11.661200 -23.782600 -1.377400
H -11.403200 -25.077400 -6.870600
N -11.273800 -25.746800 -6.417000
C -11.030700 -23.917000 -4.030800
N -10.938700 -23.141300 -2.914900
H -10.156200 -21.229700 -1.558900
N -10.082200 -23.595700 -4.875400
C -10.061600 -26.338000 -6.216500
C -9.907700 -22.289900 -3.136700
O -9.858300 -27.019600 -5.235000
N -9.597600 -21.317600 -2.223700
H -9.508100 -25.749200 -8.064900
N -9.358000 -22.539100 -4.308800
H -9.289200 -19.329000 -0.842100
C -9.063400 -26.090000 -7.284700
H -8.618200 -26.912100 -7.504100
C -8.534000 -20.466200 -2.335800
C -8.426900 -19.459700 -1.242200
H -8.418700 -25.448700 -6.977800
H -8.112000 -18.627900 -1.602600
H -7.810400 -19.774900 -0.577400
O -7.762700 -20.516300 -3.272800
84
Fragment
O -12.987400 -14.408800 -9.099200
H -12.939800 -13.667400 -11.794700
H -12.638200 -12.520400 -10.769500
H -12.331400 -19.341200 -5.394200
C -12.323300 -13.352200 -11.129900
C -12.216100 -14.358700 -10.036200
H -12.132000 -20.804600 -4.868000
C -11.686700 -19.982500 -5.087400
H -11.460900 -13.221500 -11.529900
N -11.392100 -16.431600 -8.063300
H -11.242100 -19.641700 -4.307100
N -11.152500 -15.210100 -10.148400
O -10.891900 -20.912100 -7.137000
C -10.842400 -16.182400 -9.235300
C -10.688500 -20.230500 -6.155500
N -10.667900 -17.488200 -7.496600
H -10.593900 -15.122200 -10.813200
N -9.811400 -17.033800 -9.457200
C -9.719500 -17.809500 -8.341200
N -9.476300 -19.639300 -5.955100
H -9.346900 -18.969900 -5.501400
H -9.088900 -17.675100 -10.994600
N -8.959500 -17.005700 -10.541000
C -8.716400 -18.835500 -8.154800
N -8.624400 -19.611200 -7.038900
H -7.842000 -21.522800 -5.682900
N -7.767900 -19.156800 -8.999400
C -7.747300 -16.414500 -10.340600
C -7.593400 -20.462600 -7.260700
O -7.544000 -15.732900 -9.359000
N -7.283300 -21.434900 -6.347700
H -7.193800 -17.003300 -12.188900
N -7.043700 -20.213400 -8.432800
H -6.974900 -23.423500 -4.966100
C -6.749200 -16.662500 -11.408700
H -6.303900 -15.840400 -11.628100
C -6.219800 -22.286300 -6.459900
C -6.112600 -23.292800 -5.366200
H -6.104400 -17.303800 -11.101800
H -5.797700 -24.124600 -5.726600
H -5.496100 -22.977600 -4.701400
O -5.448400 -22.236200 -7.396800
O -15.301700 -28.343700 -4.975200
H -15.254100 -29.085100 -7.670700
H -14.952500 -30.232100 -6.645400
H -14.645700 -23.411300 -1.270200
C -14.637600 -29.400300 -7.005900
C -14.530400 -28.393800 -5.912200
H -14.446300 -21.947900 -0.744000
C -14.001000 -22.770000 -0.963400
H -13.775200 -29.531000 -7.405900
N -13.706400 -26.320900 -3.939300
H -13.556400 -23.110800 -0.183100
N -13.466800 -27.542400 -6.024400
O -13.206200 -21.840400 -3.013000
C -13.156700 -26.570100 -5.111300
C -13.002800 -22.522000 -2.031500
N -12.982200 -25.264300 -3.372600
H -12.908200 -27.630300 -6.689200
N -12.125700 -25.718700 -5.333200
C -12.033800 -24.943000 -4.217200
N -11.790600 -23.113200 -1.831100
H -11.661200 -23.782600 -1.377400
H -11.403200 -25.077400 -6.870600
N -11.273800 -25.746800 -6.417000
C -11.030700 -23.917000 -4.030800
N -10.938700 -23.141300 -2.914900
H -10.156200 -21.229700 -1.558900
N -10.082200 -23.595700 -4.875400
C -10.061600 -26.338000 -6.216500
C -9.907700 -22.289900 -3.136700
O -9.858300 -27.019600 -5.235000
N -9.597600 -21.317600 -2.223700
H -9.508100 -25.749200 -8.064900
N -9.358000 -22.539100 -4.308800
H -9.289200 -19.329000 -0.842100
C -9.063400 -26.090000 -7.284700
H -8.618200 -26.912100 -7.504100
C -8.534000 -20.466200 -2.335800
C -8.426900 -19.459700 -1.242200
H -8.418700 -25.448700 -6.977800
H -8.112000 -18.627900 -1.602600
H -7.810400 -19.774900 -0.577400
O -7.762700 -20.516300 -3.272800
