42
Fragment
O -12.987400 -14.408800 -9.099200
H -12.939800 -13.667400 -11.794700
H -12.638200 -12.520400 -10.769500
H -12.331400 -19.341200 -5.394200
C -12.323300 -13.352200 -11.129900
C -12.216100 -14.358700 -10.036200
H -12.132000 -20.804600 -4.868000
C -11.686700 -19.982500 -5.087400
H -11.460900 -13.221500 -11.529900
N -11.392100 -16.431600 -8.063300
H -11.242100 -19.641700 -4.307100
N -11.152500 -15.210100 -10.148400
O -10.891900 -20.912100 -7.137000
C -10.842400 -16.182400 -9.235300
C -10.688500 -20.230500 -6.155500
N -10.667900 -17.488200 -7.496600
H -10.593900 -15.122200 -10.813200
N -9.811400 -17.033800 -9.457200
C -9.719500 -17.809500 -8.341200
N -9.476300 -19.639300 -5.955100
H -9.346900 -18.969900 -5.501400
H -9.088900 -17.675100 -10.994600
N -8.959500 -17.005700 -10.541000
C -8.716400 -18.835500 -8.154800
N -8.624400 -19.611200 -7.038900
H -7.842000 -21.522800 -5.682900
N -7.767900 -19.156800 -8.999400
C -7.747300 -16.414500 -10.340600
C -7.593400 -20.462600 -7.260700
O -7.544000 -15.732900 -9.359000
N -7.283300 -21.434900 -6.347700
H -7.193800 -17.003300 -12.188900
N -7.043700 -20.213400 -8.432800
H -6.974900 -23.423500 -4.966100
C -6.749200 -16.662500 -11.408700
H -6.303900 -15.840400 -11.628100
C -6.219800 -22.286300 -6.459900
C -6.112600 -23.292800 -5.366200
H -6.104400 -17.303800 -11.101800
H -5.797700 -24.124600 -5.726600
H -5.496100 -22.977600 -4.701400
O -5.448400 -22.236200 -7.396800
42
Fragment
O -19.904100 -16.128700 -13.223200
H -19.856500 -16.870100 -15.918700
H -19.554900 -18.017100 -14.893500
H -19.248200 -11.196300 -9.518200
C -19.240000 -17.185300 -15.253900
C -19.132800 -16.178800 -14.160200
H -19.048700 -9.732900 -8.992000
C -18.603400 -10.555000 -9.211400
H -18.377600 -17.316000 -15.653900
N -18.308800 -14.105900 -12.187300
H -18.158800 -10.895800 -8.431100
N -18.069200 -15.327400 -14.272400
O -17.808600 -9.625400 -11.261000
C -17.759100 -14.355100 -13.359300
C -17.605200 -10.307000 -10.279500
N -17.584600 -13.049300 -11.620700
H -17.510600 -15.415300 -14.937200
N -16.728100 -13.503700 -13.581200
C -16.636200 -12.728000 -12.465200
N -16.393000 -10.898200 -10.079100
H -16.263600 -11.567600 -9.625500
H -16.005700 -12.862400 -15.118600
N -15.876200 -13.531800 -14.665000
C -15.633100 -11.702000 -12.278800
N -15.541100 -10.926300 -11.162900
H -14.758700 -9.014700 -9.806900
N -14.684600 -11.380700 -13.123400
C -14.664000 -14.123000 -14.464600
C -14.510200 -10.074900 -11.384800
O -14.460700 -14.804600 -13.483100
N -14.200100 -9.102600 -10.471700
H -14.110500 -13.534200 -16.313000
N -13.960400 -10.324100 -12.556800
H -13.891600 -7.114000 -9.090200
C -13.665900 -13.875000 -15.532700
H -13.220600 -14.697100 -15.752100
C -13.136500 -8.251200 -10.583900
C -13.029300 -7.244700 -9.490200
H -13.021100 -13.233700 -15.225900
H -12.714400 -6.412900 -9.850600
H -12.412800 -7.559900 -8.825400
O -12.365100 -8.301300 -11.520800
84
Fragment
O -12.987400 -14.408800 -9.099200
H -12.939800 -13.667400 -11.794700
H -12.638200 -12.520400 -10.769500
H -12.331400 -19.341200 -5.394200
C -12.323300 -13.352200 -11.129900
C -12.216100 -14.358700 -10.036200
H -12.132000 -20.804600 -4.868000
C -11.686700 -19.982500 -5.087400
H -11.460900 -13.221500 -11.529900
N -11.392100 -16.431600 -8.063300
H -11.242100 -19.641700 -4.307100
N -11.152500 -15.210100 -10.148400
O -10.891900 -20.912100 -7.137000
C -10.842400 -16.182400 -9.235300
C -10.688500 -20.230500 -6.155500
N -10.667900 -17.488200 -7.496600
H -10.593900 -15.122200 -10.813200
N -9.811400 -17.033800 -9.457200
C -9.719500 -17.809500 -8.341200
N -9.476300 -19.639300 -5.955100
H -9.346900 -18.969900 -5.501400
H -9.088900 -17.675100 -10.994600
N -8.959500 -17.005700 -10.541000
C -8.716400 -18.835500 -8.154800
N -8.624400 -19.611200 -7.038900
H -7.842000 -21.522800 -5.682900
N -7.767900 -19.156800 -8.999400
C -7.747300 -16.414500 -10.340600
C -7.593400 -20.462600 -7.260700
O -7.544000 -15.732900 -9.359000
N -7.283300 -21.434900 -6.347700
H -7.193800 -17.003300 -12.188900
N -7.043700 -20.213400 -8.432800
H -6.974900 -23.423500 -4.966100
C -6.749200 -16.662500 -11.408700
H -6.303900 -15.840400 -11.628100
C -6.219800 -22.286300 -6.459900
C -6.112600 -23.292800 -5.366200
H -6.104400 -17.303800 -11.101800
H -5.797700 -24.124600 -5.726600
H -5.496100 -22.977600 -4.701400
O -5.448400 -22.236200 -7.396800
O -19.904100 -16.128700 -13.223200
H -19.856500 -16.870100 -15.918700
H -19.554900 -18.017100 -14.893500
H -19.248200 -11.196300 -9.518200
C -19.240000 -17.185300 -15.253900
C -19.132800 -16.178800 -14.160200
H -19.048700 -9.732900 -8.992000
C -18.603400 -10.555000 -9.211400
H -18.377600 -17.316000 -15.653900
N -18.308800 -14.105900 -12.187300
H -18.158800 -10.895800 -8.431100
N -18.069200 -15.327400 -14.272400
O -17.808600 -9.625400 -11.261000
C -17.759100 -14.355100 -13.359300
C -17.605200 -10.307000 -10.279500
N -17.584600 -13.049300 -11.620700
H -17.510600 -15.415300 -14.937200
N -16.728100 -13.503700 -13.581200
C -16.636200 -12.728000 -12.465200
N -16.393000 -10.898200 -10.079100
H -16.263600 -11.567600 -9.625500
H -16.005700 -12.862400 -15.118600
N -15.876200 -13.531800 -14.665000
C -15.633100 -11.702000 -12.278800
N -15.541100 -10.926300 -11.162900
H -14.758700 -9.014700 -9.806900
N -14.684600 -11.380700 -13.123400
C -14.664000 -14.123000 -14.464600
C -14.510200 -10.074900 -11.384800
O -14.460700 -14.804600 -13.483100
N -14.200100 -9.102600 -10.471700
H -14.110500 -13.534200 -16.313000
N -13.960400 -10.324100 -12.556800
H -13.891600 -7.114000 -9.090200
C -13.665900 -13.875000 -15.532700
H -13.220600 -14.697100 -15.752100
C -13.136500 -8.251200 -10.583900
C -13.029300 -7.244700 -9.490200
H -13.021100 -13.233700 -15.225900
H -12.714400 -6.412900 -9.850600
H -12.412800 -7.559900 -8.825400
O -12.365100 -8.301300 -11.520800
