30
Fragment
O -7.814700 -47.681700 -10.788700
O -7.788300 -49.790600 -11.199900
N -7.500000 -48.823800 -10.510500
C -6.778600 -49.057600 -9.246700
H -6.766600 -47.105200 -8.705800
H -6.597300 -51.082700 -9.479300
C -6.491100 -47.980300 -8.451300
C -6.382800 -50.346600 -8.913100
O -5.851900 -45.867000 -6.803300
C -5.782500 -48.179300 -7.263400
C -5.681500 -50.545600 -7.766000
C -5.451200 -47.038800 -6.390500
H -5.438100 -45.045300 -6.227300
H -5.402500 -51.423900 -7.524500
C -5.367000 -49.477800 -6.932200
O -5.007100 -43.836600 -5.436800
O -4.811500 -47.205300 -5.342900
H -4.723000 -48.760600 -5.477600
O -4.666000 -49.737800 -5.806300
H -4.501400 -45.781400 -3.772500
C -4.365500 -43.854200 -4.344400
N -4.135200 -44.920200 -3.597900
N -3.817000 -42.772500 -3.761800
H -3.799500 -42.739000 -1.761400
H -3.797900 -41.908100 -4.157500
H -3.598000 -44.969500 -1.665100
C -3.256800 -44.615600 -2.477700
C -3.255100 -43.080200 -2.462200
H -2.379900 -44.960000 -2.625400
H -2.374600 -42.732700 -2.373300
18
Fragment
H -4.556800 -55.982800 -11.086500
O -4.304300 -54.298600 -10.812300
O -4.139200 -56.869600 -10.504800
C -3.692900 -54.144100 -9.767300
H -3.538900 -52.093700 -9.802300
C -3.503200 -56.583100 -9.365000
O -3.379100 -52.944800 -9.302200
C -3.239500 -55.265600 -8.938400
H -3.238300 -58.538700 -8.875500
C -3.064800 -57.647700 -8.592400
C -2.544800 -55.063400 -7.745600
C -2.376100 -57.432900 -7.413600
H -2.365100 -54.182000 -7.438800
C -2.118300 -56.143900 -7.021100
H -2.082600 -58.165900 -6.878400
N -1.405800 -55.910100 -5.751700
O -1.155300 -54.762000 -5.440000
O -1.090100 -56.877200 -5.083500
48
Fragment
O -7.814700 -47.681700 -10.788700
O -7.788300 -49.790600 -11.199900
N -7.500000 -48.823800 -10.510500
C -6.778600 -49.057600 -9.246700
H -6.766600 -47.105200 -8.705800
H -6.597300 -51.082700 -9.479300
C -6.491100 -47.980300 -8.451300
C -6.382800 -50.346600 -8.913100
O -5.851900 -45.867000 -6.803300
C -5.782500 -48.179300 -7.263400
C -5.681500 -50.545600 -7.766000
C -5.451200 -47.038800 -6.390500
H -5.438100 -45.045300 -6.227300
H -5.402500 -51.423900 -7.524500
C -5.367000 -49.477800 -6.932200
O -5.007100 -43.836600 -5.436800
O -4.811500 -47.205300 -5.342900
H -4.723000 -48.760600 -5.477600
O -4.666000 -49.737800 -5.806300
H -4.501400 -45.781400 -3.772500
C -4.365500 -43.854200 -4.344400
N -4.135200 -44.920200 -3.597900
N -3.817000 -42.772500 -3.761800
H -3.799500 -42.739000 -1.761400
H -3.797900 -41.908100 -4.157500
H -3.598000 -44.969500 -1.665100
C -3.256800 -44.615600 -2.477700
C -3.255100 -43.080200 -2.462200
H -2.379900 -44.960000 -2.625400
H -2.374600 -42.732700 -2.373300
H -4.556800 -55.982800 -11.086500
O -4.304300 -54.298600 -10.812300
O -4.139200 -56.869600 -10.504800
C -3.692900 -54.144100 -9.767300
H -3.538900 -52.093700 -9.802300
C -3.503200 -56.583100 -9.365000
O -3.379100 -52.944800 -9.302200
C -3.239500 -55.265600 -8.938400
H -3.238300 -58.538700 -8.875500
C -3.064800 -57.647700 -8.592400
C -2.544800 -55.063400 -7.745600
C -2.376100 -57.432900 -7.413600
H -2.365100 -54.182000 -7.438800
C -2.118300 -56.143900 -7.021100
H -2.082600 -58.165900 -6.878400
N -1.405800 -55.910100 -5.751700
O -1.155300 -54.762000 -5.440000
O -1.090100 -56.877200 -5.083500
