30
Fragment
O -7.814700 -47.681700 -10.788700
O -7.788300 -49.790600 -11.199900
N -7.500000 -48.823800 -10.510500
C -6.778600 -49.057600 -9.246700
H -6.766600 -47.105200 -8.705800
H -6.597300 -51.082700 -9.479300
C -6.491100 -47.980300 -8.451300
C -6.382800 -50.346600 -8.913100
O -5.851900 -45.867000 -6.803300
C -5.782500 -48.179300 -7.263400
C -5.681500 -50.545600 -7.766000
C -5.451200 -47.038800 -6.390500
H -5.438100 -45.045300 -6.227300
H -5.402500 -51.423900 -7.524500
C -5.367000 -49.477800 -6.932200
O -5.007100 -43.836600 -5.436800
O -4.811500 -47.205300 -5.342900
H -4.723000 -48.760600 -5.477600
O -4.666000 -49.737800 -5.806300
H -4.501400 -45.781400 -3.772500
C -4.365500 -43.854200 -4.344400
N -4.135200 -44.920200 -3.597900
N -3.817000 -42.772500 -3.761800
H -3.799500 -42.739000 -1.761400
H -3.797900 -41.908100 -4.157500
H -3.598000 -44.969500 -1.665100
C -3.256800 -44.615600 -2.477700
C -3.255100 -43.080200 -2.462200
H -2.379900 -44.960000 -2.625400
H -2.374600 -42.732700 -2.373300
30
Fragment
H -13.994800 -52.046300 -13.943500
H -13.989500 -49.819000 -13.691500
C -13.114300 -51.698800 -13.854600
C -13.112600 -50.163400 -13.839100
H -12.771300 -49.809500 -14.651700
H -12.571500 -52.870900 -12.159300
H -12.569900 -52.040000 -14.555400
N -12.552400 -52.006500 -12.555000
N -12.234100 -49.858800 -12.719000
C -12.003900 -50.924800 -11.972500
H -11.868000 -48.997600 -12.544400
O -11.703400 -45.041200 -10.510500
H -11.646400 -46.018400 -10.839300
O -11.557900 -47.573700 -10.973900
O -11.362300 -50.942400 -10.880100
C -11.002400 -45.301200 -9.384600
H -10.966900 -43.355100 -8.792300
H -10.931300 -49.733700 -10.089500
C -10.918200 -47.740200 -9.926300
C -10.687900 -44.233400 -8.550800
C -10.586900 -46.599700 -9.053400
O -10.517500 -48.912000 -9.513500
C -9.986600 -44.432400 -7.403800
C -9.878300 -46.798700 -7.865500
H -9.772100 -43.696300 -6.837600
H -9.602700 -47.673800 -7.611000
C -9.590800 -45.721400 -7.070100
N -8.869400 -45.955200 -5.806300
O -8.581100 -44.988400 -5.117000
O -8.554700 -47.097300 -5.528100
60
Fragment
O -7.814700 -47.681700 -10.788700
O -7.788300 -49.790600 -11.199900
N -7.500000 -48.823800 -10.510500
C -6.778600 -49.057600 -9.246700
H -6.766600 -47.105200 -8.705800
H -6.597300 -51.082700 -9.479300
C -6.491100 -47.980300 -8.451300
C -6.382800 -50.346600 -8.913100
O -5.851900 -45.867000 -6.803300
C -5.782500 -48.179300 -7.263400
C -5.681500 -50.545600 -7.766000
C -5.451200 -47.038800 -6.390500
H -5.438100 -45.045300 -6.227300
H -5.402500 -51.423900 -7.524500
C -5.367000 -49.477800 -6.932200
O -5.007100 -43.836600 -5.436800
O -4.811500 -47.205300 -5.342900
H -4.723000 -48.760600 -5.477600
O -4.666000 -49.737800 -5.806300
H -4.501400 -45.781400 -3.772500
C -4.365500 -43.854200 -4.344400
N -4.135200 -44.920200 -3.597900
N -3.817000 -42.772500 -3.761800
H -3.799500 -42.739000 -1.761400
H -3.797900 -41.908100 -4.157500
H -3.598000 -44.969500 -1.665100
C -3.256800 -44.615600 -2.477700
C -3.255100 -43.080200 -2.462200
H -2.379900 -44.960000 -2.625400
H -2.374600 -42.732700 -2.373300
H -13.994800 -52.046300 -13.943500
H -13.989500 -49.819000 -13.691500
C -13.114300 -51.698800 -13.854600
C -13.112600 -50.163400 -13.839100
H -12.771300 -49.809500 -14.651700
H -12.571500 -52.870900 -12.159300
H -12.569900 -52.040000 -14.555400
N -12.552400 -52.006500 -12.555000
N -12.234100 -49.858800 -12.719000
C -12.003900 -50.924800 -11.972500
H -11.868000 -48.997600 -12.544400
O -11.703400 -45.041200 -10.510500
H -11.646400 -46.018400 -10.839300
O -11.557900 -47.573700 -10.973900
O -11.362300 -50.942400 -10.880100
C -11.002400 -45.301200 -9.384600
H -10.966900 -43.355100 -8.792300
H -10.931300 -49.733700 -10.089500
C -10.918200 -47.740200 -9.926300
C -10.687900 -44.233400 -8.550800
C -10.586900 -46.599700 -9.053400
O -10.517500 -48.912000 -9.513500
C -9.986600 -44.432400 -7.403800
C -9.878300 -46.798700 -7.865500
H -9.772100 -43.696300 -6.837600
H -9.602700 -47.673800 -7.611000
C -9.590800 -45.721400 -7.070100
N -8.869400 -45.955200 -5.806300
O -8.581100 -44.988400 -5.117000
O -8.554700 -47.097300 -5.528100
