30
Fragment
O -7.814700 -47.681700 -10.788700
O -7.788300 -49.790600 -11.199900
N -7.500000 -48.823800 -10.510500
C -6.778600 -49.057600 -9.246700
H -6.766600 -47.105200 -8.705800
H -6.597300 -51.082700 -9.479300
C -6.491100 -47.980300 -8.451300
C -6.382800 -50.346600 -8.913100
O -5.851900 -45.867000 -6.803300
C -5.782500 -48.179300 -7.263400
C -5.681500 -50.545600 -7.766000
C -5.451200 -47.038800 -6.390500
H -5.438100 -45.045300 -6.227300
H -5.402500 -51.423900 -7.524500
C -5.367000 -49.477800 -6.932200
O -5.007100 -43.836600 -5.436800
O -4.811500 -47.205300 -5.342900
H -4.723000 -48.760600 -5.477600
O -4.666000 -49.737800 -5.806300
H -4.501400 -45.781400 -3.772500
C -4.365500 -43.854200 -4.344400
N -4.135200 -44.920200 -3.597900
N -3.817000 -42.772500 -3.761800
H -3.799500 -42.739000 -1.761400
H -3.797900 -41.908100 -4.157500
H -3.598000 -44.969500 -1.665100
C -3.256800 -44.615600 -2.477700
C -3.255100 -43.080200 -2.462200
H -2.379900 -44.960000 -2.625400
H -2.374600 -42.732700 -2.373300
18
Fragment
H -6.082000 -54.592700 -7.007300
O -5.829400 -56.276900 -6.733100
O -5.664300 -53.705900 -6.425600
C -5.218000 -56.431400 -5.688000
H -5.064100 -58.481800 -5.723100
C -5.028400 -53.992400 -5.285800
O -4.904300 -57.630700 -5.223000
C -4.764700 -55.309900 -4.859200
H -4.763500 -52.036800 -4.796300
C -4.589900 -52.927800 -4.513200
C -4.069900 -55.512100 -3.666400
C -3.901200 -53.142600 -3.334300
H -3.890300 -56.393500 -3.359600
C -3.643500 -54.431600 -2.941900
H -3.607700 -52.409600 -2.799200
N -2.930900 -54.665400 -1.672500
O -2.680500 -55.813500 -1.360800
O -2.615300 -53.698300 -1.004300
48
Fragment
O -7.814700 -47.681700 -10.788700
O -7.788300 -49.790600 -11.199900
N -7.500000 -48.823800 -10.510500
C -6.778600 -49.057600 -9.246700
H -6.766600 -47.105200 -8.705800
H -6.597300 -51.082700 -9.479300
C -6.491100 -47.980300 -8.451300
C -6.382800 -50.346600 -8.913100
O -5.851900 -45.867000 -6.803300
C -5.782500 -48.179300 -7.263400
C -5.681500 -50.545600 -7.766000
C -5.451200 -47.038800 -6.390500
H -5.438100 -45.045300 -6.227300
H -5.402500 -51.423900 -7.524500
C -5.367000 -49.477800 -6.932200
O -5.007100 -43.836600 -5.436800
O -4.811500 -47.205300 -5.342900
H -4.723000 -48.760600 -5.477600
O -4.666000 -49.737800 -5.806300
H -4.501400 -45.781400 -3.772500
C -4.365500 -43.854200 -4.344400
N -4.135200 -44.920200 -3.597900
N -3.817000 -42.772500 -3.761800
H -3.799500 -42.739000 -1.761400
H -3.797900 -41.908100 -4.157500
H -3.598000 -44.969500 -1.665100
C -3.256800 -44.615600 -2.477700
C -3.255100 -43.080200 -2.462200
H -2.379900 -44.960000 -2.625400
H -2.374600 -42.732700 -2.373300
H -6.082000 -54.592700 -7.007300
O -5.829400 -56.276900 -6.733100
O -5.664300 -53.705900 -6.425600
C -5.218000 -56.431400 -5.688000
H -5.064100 -58.481800 -5.723100
C -5.028400 -53.992400 -5.285800
O -4.904300 -57.630700 -5.223000
C -4.764700 -55.309900 -4.859200
H -4.763500 -52.036800 -4.796300
C -4.589900 -52.927800 -4.513200
C -4.069900 -55.512100 -3.666400
C -3.901200 -53.142600 -3.334300
H -3.890300 -56.393500 -3.359600
C -3.643500 -54.431600 -2.941900
H -3.607700 -52.409600 -2.799200
N -2.930900 -54.665400 -1.672500
O -2.680500 -55.813500 -1.360800
O -2.615300 -53.698300 -1.004300
