30
Fragment
O -7.814700 -47.681700 -10.788700
O -7.788300 -49.790600 -11.199900
N -7.500000 -48.823800 -10.510500
C -6.778600 -49.057600 -9.246700
H -6.766600 -47.105200 -8.705800
H -6.597300 -51.082700 -9.479300
C -6.491100 -47.980300 -8.451300
C -6.382800 -50.346600 -8.913100
O -5.851900 -45.867000 -6.803300
C -5.782500 -48.179300 -7.263400
C -5.681500 -50.545600 -7.766000
C -5.451200 -47.038800 -6.390500
H -5.438100 -45.045300 -6.227300
H -5.402500 -51.423900 -7.524500
C -5.367000 -49.477800 -6.932200
O -5.007100 -43.836600 -5.436800
O -4.811500 -47.205300 -5.342900
H -4.723000 -48.760600 -5.477600
O -4.666000 -49.737800 -5.806300
H -4.501400 -45.781400 -3.772500
C -4.365500 -43.854200 -4.344400
N -4.135200 -44.920200 -3.597900
N -3.817000 -42.772500 -3.761800
H -3.799500 -42.739000 -1.761400
H -3.797900 -41.908100 -4.157500
H -3.598000 -44.969500 -1.665100
C -3.256800 -44.615600 -2.477700
C -3.255100 -43.080200 -2.462200
H -2.379900 -44.960000 -2.625400
H -2.374600 -42.732700 -2.373300
30
Fragment
O -3.375000 -47.681700 -2.630300
O -3.348600 -49.790600 -3.041500
N -3.060300 -48.823800 -2.352100
C -2.338900 -49.057600 -1.088300
H -2.326900 -47.105200 -0.547400
H -2.157600 -51.082700 -1.320800
C -2.051400 -47.980300 -0.292900
C -1.943100 -50.346600 -0.754700
O -1.412200 -45.867000 1.355100
C -1.342800 -48.179300 0.895000
C -1.241800 -50.545600 0.392400
C -1.011500 -47.038800 1.767900
H -0.998400 -45.045300 1.931100
H -0.962800 -51.423900 0.633900
C -0.927300 -49.477800 1.226200
O -0.567400 -43.836600 2.721600
O -0.371800 -47.205300 2.815500
H -0.283300 -48.760600 2.680900
O -0.226300 -49.737800 2.352100
H -0.061700 -45.781400 4.386000
C 0.074200 -43.854200 3.814100
N 0.304400 -44.920200 4.560600
N 0.622700 -42.772500 4.396600
H 0.640200 -42.739000 6.397000
H 0.641800 -41.908100 4.000900
H 0.841600 -44.969500 6.493300
C 1.182900 -44.615600 5.680700
C 1.184600 -43.080200 5.696200
H 2.059800 -44.960000 5.533000
H 2.065100 -42.732700 5.785100
60
Fragment
O -7.814700 -47.681700 -10.788700
O -7.788300 -49.790600 -11.199900
N -7.500000 -48.823800 -10.510500
C -6.778600 -49.057600 -9.246700
H -6.766600 -47.105200 -8.705800
H -6.597300 -51.082700 -9.479300
C -6.491100 -47.980300 -8.451300
C -6.382800 -50.346600 -8.913100
O -5.851900 -45.867000 -6.803300
C -5.782500 -48.179300 -7.263400
C -5.681500 -50.545600 -7.766000
C -5.451200 -47.038800 -6.390500
H -5.438100 -45.045300 -6.227300
H -5.402500 -51.423900 -7.524500
C -5.367000 -49.477800 -6.932200
O -5.007100 -43.836600 -5.436800
O -4.811500 -47.205300 -5.342900
H -4.723000 -48.760600 -5.477600
O -4.666000 -49.737800 -5.806300
H -4.501400 -45.781400 -3.772500
C -4.365500 -43.854200 -4.344400
N -4.135200 -44.920200 -3.597900
N -3.817000 -42.772500 -3.761800
H -3.799500 -42.739000 -1.761400
H -3.797900 -41.908100 -4.157500
H -3.598000 -44.969500 -1.665100
C -3.256800 -44.615600 -2.477700
C -3.255100 -43.080200 -2.462200
H -2.379900 -44.960000 -2.625400
H -2.374600 -42.732700 -2.373300
O -3.375000 -47.681700 -2.630300
O -3.348600 -49.790600 -3.041500
N -3.060300 -48.823800 -2.352100
C -2.338900 -49.057600 -1.088300
H -2.326900 -47.105200 -0.547400
H -2.157600 -51.082700 -1.320800
C -2.051400 -47.980300 -0.292900
C -1.943100 -50.346600 -0.754700
O -1.412200 -45.867000 1.355100
C -1.342800 -48.179300 0.895000
C -1.241800 -50.545600 0.392400
C -1.011500 -47.038800 1.767900
H -0.998400 -45.045300 1.931100
H -0.962800 -51.423900 0.633900
C -0.927300 -49.477800 1.226200
O -0.567400 -43.836600 2.721600
O -0.371800 -47.205300 2.815500
H -0.283300 -48.760600 2.680900
O -0.226300 -49.737800 2.352100
H -0.061700 -45.781400 4.386000
C 0.074200 -43.854200 3.814100
N 0.304400 -44.920200 4.560600
N 0.622700 -42.772500 4.396600
H 0.640200 -42.739000 6.397000
H 0.641800 -41.908100 4.000900
H 0.841600 -44.969500 6.493300
C 1.182900 -44.615600 5.680700
C 1.184600 -43.080200 5.696200
H 2.059800 -44.960000 5.533000
H 2.065100 -42.732700 5.785100
