30
Fragment
O -7.814700 -47.681700 -10.788700
O -7.788300 -49.790600 -11.199900
N -7.500000 -48.823800 -10.510500
C -6.778600 -49.057600 -9.246700
H -6.766600 -47.105200 -8.705800
H -6.597300 -51.082700 -9.479300
C -6.491100 -47.980300 -8.451300
C -6.382800 -50.346600 -8.913100
O -5.851900 -45.867000 -6.803300
C -5.782500 -48.179300 -7.263400
C -5.681500 -50.545600 -7.766000
C -5.451200 -47.038800 -6.390500
H -5.438100 -45.045300 -6.227300
H -5.402500 -51.423900 -7.524500
C -5.367000 -49.477800 -6.932200
O -5.007100 -43.836600 -5.436800
O -4.811500 -47.205300 -5.342900
H -4.723000 -48.760600 -5.477600
O -4.666000 -49.737800 -5.806300
H -4.501400 -45.781400 -3.772500
C -4.365500 -43.854200 -4.344400
N -4.135200 -44.920200 -3.597900
N -3.817000 -42.772500 -3.761800
H -3.799500 -42.739000 -1.761400
H -3.797900 -41.908100 -4.157500
H -3.598000 -44.969500 -1.665100
C -3.256800 -44.615600 -2.477700
C -3.255100 -43.080200 -2.462200
H -2.379900 -44.960000 -2.625400
H -2.374600 -42.732700 -2.373300
30
Fragment
O -12.254400 -47.681700 -18.947100
O -12.228000 -49.790600 -19.358300
N -11.939700 -48.823800 -18.668900
C -11.218300 -49.057600 -17.405200
H -11.206300 -47.105200 -16.864300
H -11.037000 -51.082700 -17.637700
C -10.930700 -47.980300 -16.609700
C -10.822500 -50.346600 -17.071500
O -10.291600 -45.867000 -14.961700
C -10.222200 -48.179300 -15.421900
C -10.121100 -50.545600 -15.924400
C -9.890900 -47.038800 -14.548900
H -9.877800 -45.045300 -14.385700
H -9.842200 -51.423900 -15.682900
C -9.806700 -49.477800 -15.090600
O -9.446800 -43.836600 -13.595200
O -9.251200 -47.205300 -13.501400
H -9.162700 -48.760600 -13.636000
O -9.105700 -49.737800 -13.964800
H -8.941100 -45.781400 -11.930900
C -8.805200 -43.854200 -12.502800
N -8.574900 -44.920200 -11.756300
N -8.256700 -42.772500 -11.920300
H -8.239200 -42.739000 -9.919800
H -8.237600 -41.908100 -12.315900
H -8.037700 -44.969500 -9.823500
C -7.696500 -44.615600 -10.636100
C -7.694800 -43.080200 -10.620600
H -6.819600 -44.960000 -10.783800
H -6.814300 -42.732700 -10.531700
60
Fragment
O -7.814700 -47.681700 -10.788700
O -7.788300 -49.790600 -11.199900
N -7.500000 -48.823800 -10.510500
C -6.778600 -49.057600 -9.246700
H -6.766600 -47.105200 -8.705800
H -6.597300 -51.082700 -9.479300
C -6.491100 -47.980300 -8.451300
C -6.382800 -50.346600 -8.913100
O -5.851900 -45.867000 -6.803300
C -5.782500 -48.179300 -7.263400
C -5.681500 -50.545600 -7.766000
C -5.451200 -47.038800 -6.390500
H -5.438100 -45.045300 -6.227300
H -5.402500 -51.423900 -7.524500
C -5.367000 -49.477800 -6.932200
O -5.007100 -43.836600 -5.436800
O -4.811500 -47.205300 -5.342900
H -4.723000 -48.760600 -5.477600
O -4.666000 -49.737800 -5.806300
H -4.501400 -45.781400 -3.772500
C -4.365500 -43.854200 -4.344400
N -4.135200 -44.920200 -3.597900
N -3.817000 -42.772500 -3.761800
H -3.799500 -42.739000 -1.761400
H -3.797900 -41.908100 -4.157500
H -3.598000 -44.969500 -1.665100
C -3.256800 -44.615600 -2.477700
C -3.255100 -43.080200 -2.462200
H -2.379900 -44.960000 -2.625400
H -2.374600 -42.732700 -2.373300
O -12.254400 -47.681700 -18.947100
O -12.228000 -49.790600 -19.358300
N -11.939700 -48.823800 -18.668900
C -11.218300 -49.057600 -17.405200
H -11.206300 -47.105200 -16.864300
H -11.037000 -51.082700 -17.637700
C -10.930700 -47.980300 -16.609700
C -10.822500 -50.346600 -17.071500
O -10.291600 -45.867000 -14.961700
C -10.222200 -48.179300 -15.421900
C -10.121100 -50.545600 -15.924400
C -9.890900 -47.038800 -14.548900
H -9.877800 -45.045300 -14.385700
H -9.842200 -51.423900 -15.682900
C -9.806700 -49.477800 -15.090600
O -9.446800 -43.836600 -13.595200
O -9.251200 -47.205300 -13.501400
H -9.162700 -48.760600 -13.636000
O -9.105700 -49.737800 -13.964800
H -8.941100 -45.781400 -11.930900
C -8.805200 -43.854200 -12.502800
N -8.574900 -44.920200 -11.756300
N -8.256700 -42.772500 -11.920300
H -8.239200 -42.739000 -9.919800
H -8.237600 -41.908100 -12.315900
H -8.037700 -44.969500 -9.823500
C -7.696500 -44.615600 -10.636100
C -7.694800 -43.080200 -10.620600
H -6.819600 -44.960000 -10.783800
H -6.814300 -42.732700 -10.531700
