16
Fragment
N -10.618100 -9.457300 -51.211000
N -10.605500 -12.612100 -53.642300
C -10.325300 -10.485800 -50.797700
C -10.311600 -12.747900 -52.539100
C -9.954100 -11.789200 -50.294700
C -9.945200 -12.904300 -51.148500
H -9.600000 -11.165500 -48.377800
C -9.597200 -11.921000 -48.954000
C -9.581300 -14.156900 -50.668700
H -9.575200 -14.910400 -51.247800
C -9.237000 -13.178400 -48.471200
C -9.224500 -14.295900 -49.321700
C -8.866300 -13.318900 -47.077900
C -8.842600 -15.596900 -48.815900
N -8.574800 -13.405500 -45.967700
N -8.540600 -16.635000 -48.421900
24
Fragment
H -7.363800 -11.696900 -53.693700
C -7.065200 -12.113300 -52.893800
H -7.059200 -10.425000 -51.782000
H -6.975700 -13.990700 -53.668300
C -6.879400 -11.357900 -51.767000
C -6.823400 -13.480200 -52.881600
H -6.434700 -10.276000 -49.407500
C -6.412900 -11.979800 -50.567900
C -6.361400 -14.110800 -51.732100
C -6.236200 -11.204600 -49.391800
H -6.189800 -15.045200 -51.740400
C -6.148000 -13.366600 -50.553900
C -5.784500 -11.781300 -48.235000
H -5.665500 -11.242200 -47.461500
C -5.659300 -13.988500 -49.321100
C -5.487800 -13.176800 -48.168800
H -5.453600 -15.900800 -49.996900
C -5.341600 -15.345900 -49.233800
C -4.991700 -13.766900 -46.973700
C -4.870100 -15.896300 -48.061300
H -4.861500 -13.228300 -46.202300
C -4.701800 -15.098900 -46.923800
H -4.657800 -16.822000 -48.025500
H -4.385500 -15.485000 -46.115600
40
Fragment
N -10.618100 -9.457300 -51.211000
N -10.605500 -12.612100 -53.642300
C -10.325300 -10.485800 -50.797700
C -10.311600 -12.747900 -52.539100
C -9.954100 -11.789200 -50.294700
C -9.945200 -12.904300 -51.148500
H -9.600000 -11.165500 -48.377800
C -9.597200 -11.921000 -48.954000
C -9.581300 -14.156900 -50.668700
H -9.575200 -14.910400 -51.247800
C -9.237000 -13.178400 -48.471200
C -9.224500 -14.295900 -49.321700
C -8.866300 -13.318900 -47.077900
C -8.842600 -15.596900 -48.815900
N -8.574800 -13.405500 -45.967700
N -8.540600 -16.635000 -48.421900
H -7.363800 -11.696900 -53.693700
C -7.065200 -12.113300 -52.893800
H -7.059200 -10.425000 -51.782000
H -6.975700 -13.990700 -53.668300
C -6.879400 -11.357900 -51.767000
C -6.823400 -13.480200 -52.881600
H -6.434700 -10.276000 -49.407500
C -6.412900 -11.979800 -50.567900
C -6.361400 -14.110800 -51.732100
C -6.236200 -11.204600 -49.391800
H -6.189800 -15.045200 -51.740400
C -6.148000 -13.366600 -50.553900
C -5.784500 -11.781300 -48.235000
H -5.665500 -11.242200 -47.461500
C -5.659300 -13.988500 -49.321100
C -5.487800 -13.176800 -48.168800
H -5.453600 -15.900800 -49.996900
C -5.341600 -15.345900 -49.233800
C -4.991700 -13.766900 -46.973700
C -4.870100 -15.896300 -48.061300
H -4.861500 -13.228300 -46.202300
C -4.701800 -15.098900 -46.923800
H -4.657800 -16.822000 -48.025500
H -4.385500 -15.485000 -46.115600
