16
Fragment
N -10.618100 -9.457300 -51.211000
N -10.605500 -12.612100 -53.642300
C -10.325300 -10.485800 -50.797700
C -10.311600 -12.747900 -52.539100
C -9.954100 -11.789200 -50.294700
C -9.945200 -12.904300 -51.148500
H -9.600000 -11.165500 -48.377800
C -9.597200 -11.921000 -48.954000
C -9.581300 -14.156900 -50.668700
H -9.575200 -14.910400 -51.247800
C -9.237000 -13.178400 -48.471200
C -9.224500 -14.295900 -49.321700
C -8.866300 -13.318900 -47.077900
C -8.842600 -15.596900 -48.815900
N -8.574800 -13.405500 -45.967700
N -8.540600 -16.635000 -48.421900
24
Fragment
H -7.669600 -8.342800 -45.792100
H -7.397300 -7.005800 -43.882300
C -7.353300 -8.728900 -44.983900
H -7.193600 -10.599500 -45.705400
C -7.185000 -7.931500 -43.846400
C -7.063400 -10.060900 -44.934000
C -6.713500 -8.481900 -42.674000
H -6.601500 -7.927000 -41.910800
C -6.567200 -10.651000 -43.738900
C -6.395700 -9.839300 -42.586700
H -6.389500 -12.585600 -44.446300
C -6.270600 -12.046500 -43.672700
C -5.907000 -10.461200 -41.353900
H -5.865300 -8.782600 -40.167400
C -5.818800 -12.623200 -42.515900
C -5.693700 -9.717000 -40.175600
C -5.642200 -11.848000 -41.339800
H -5.620300 -13.551800 -42.500300
C -5.231700 -10.347600 -39.026200
C -5.175700 -12.469900 -40.140700
H -5.079300 -9.837100 -38.239400
H -4.995800 -13.402800 -40.125700
C -4.989800 -11.714500 -39.013900
H -4.691200 -12.130900 -38.214000
40
Fragment
N -10.618100 -9.457300 -51.211000
N -10.605500 -12.612100 -53.642300
C -10.325300 -10.485800 -50.797700
C -10.311600 -12.747900 -52.539100
C -9.954100 -11.789200 -50.294700
C -9.945200 -12.904300 -51.148500
H -9.600000 -11.165500 -48.377800
C -9.597200 -11.921000 -48.954000
C -9.581300 -14.156900 -50.668700
H -9.575200 -14.910400 -51.247800
C -9.237000 -13.178400 -48.471200
C -9.224500 -14.295900 -49.321700
C -8.866300 -13.318900 -47.077900
C -8.842600 -15.596900 -48.815900
N -8.574800 -13.405500 -45.967700
N -8.540600 -16.635000 -48.421900
H -7.669600 -8.342800 -45.792100
H -7.397300 -7.005800 -43.882300
C -7.353300 -8.728900 -44.983900
H -7.193600 -10.599500 -45.705400
C -7.185000 -7.931500 -43.846400
C -7.063400 -10.060900 -44.934000
C -6.713500 -8.481900 -42.674000
H -6.601500 -7.927000 -41.910800
C -6.567200 -10.651000 -43.738900
C -6.395700 -9.839300 -42.586700
H -6.389500 -12.585600 -44.446300
C -6.270600 -12.046500 -43.672700
C -5.907000 -10.461200 -41.353900
H -5.865300 -8.782600 -40.167400
C -5.818800 -12.623200 -42.515900
C -5.693700 -9.717000 -40.175600
C -5.642200 -11.848000 -41.339800
H -5.620300 -13.551800 -42.500300
C -5.231700 -10.347600 -39.026200
C -5.175700 -12.469900 -40.140700
H -5.079300 -9.837100 -38.239400
H -4.995800 -13.402800 -40.125700
C -4.989800 -11.714500 -39.013900
H -4.691200 -12.130900 -38.214000
