16
Fragment
N -10.618100 -9.457300 -51.211000
N -10.605500 -12.612100 -53.642300
C -10.325300 -10.485800 -50.797700
C -10.311600 -12.747900 -52.539100
C -9.954100 -11.789200 -50.294700
C -9.945200 -12.904300 -51.148500
H -9.600000 -11.165500 -48.377800
C -9.597200 -11.921000 -48.954000
C -9.581300 -14.156900 -50.668700
H -9.575200 -14.910400 -51.247800
C -9.237000 -13.178400 -48.471200
C -9.224500 -14.295900 -49.321700
C -8.866300 -13.318900 -47.077900
C -8.842600 -15.596900 -48.815900
N -8.574800 -13.405500 -45.967700
N -8.540600 -16.635000 -48.421900
16
Fragment
N -10.328100 -12.663700 -58.803800
N -10.294000 -9.434200 -61.258000
C -10.026200 -11.625600 -58.409800
C -10.002500 -9.347600 -60.147800
C -9.644300 -10.324600 -57.904000
C -9.631800 -9.207100 -58.754500
H -9.293600 -10.939100 -55.977900
C -9.287500 -10.185600 -56.557000
C -9.271600 -7.949700 -58.271700
H -9.268800 -7.194200 -58.847900
C -8.923600 -8.933000 -56.077200
C -8.914700 -7.817900 -56.931000
C -8.557200 -8.776600 -54.686600
C -8.543500 -6.514500 -56.428000
N -8.263300 -8.640800 -53.583400
N -8.250700 -5.486000 -56.014700
32
Fragment
N -10.618100 -9.457300 -51.211000
N -10.605500 -12.612100 -53.642300
C -10.325300 -10.485800 -50.797700
C -10.311600 -12.747900 -52.539100
C -9.954100 -11.789200 -50.294700
C -9.945200 -12.904300 -51.148500
H -9.600000 -11.165500 -48.377800
C -9.597200 -11.921000 -48.954000
C -9.581300 -14.156900 -50.668700
H -9.575200 -14.910400 -51.247800
C -9.237000 -13.178400 -48.471200
C -9.224500 -14.295900 -49.321700
C -8.866300 -13.318900 -47.077900
C -8.842600 -15.596900 -48.815900
N -8.574800 -13.405500 -45.967700
N -8.540600 -16.635000 -48.421900
N -10.328100 -12.663700 -58.803800
N -10.294000 -9.434200 -61.258000
C -10.026200 -11.625600 -58.409800
C -10.002500 -9.347600 -60.147800
C -9.644300 -10.324600 -57.904000
C -9.631800 -9.207100 -58.754500
H -9.293600 -10.939100 -55.977900
C -9.287500 -10.185600 -56.557000
C -9.271600 -7.949700 -58.271700
H -9.268800 -7.194200 -58.847900
C -8.923600 -8.933000 -56.077200
C -8.914700 -7.817900 -56.931000
C -8.557200 -8.776600 -54.686600
C -8.543500 -6.514500 -56.428000
N -8.263300 -8.640800 -53.583400
N -8.250700 -5.486000 -56.014700
