16
Fragment
N -10.618100 -9.457300 -51.211000
N -10.605500 -12.612100 -53.642300
C -10.325300 -10.485800 -50.797700
C -10.311600 -12.747900 -52.539100
C -9.954100 -11.789200 -50.294700
C -9.945200 -12.904300 -51.148500
H -9.600000 -11.165500 -48.377800
C -9.597200 -11.921000 -48.954000
C -9.581300 -14.156900 -50.668700
H -9.575200 -14.910400 -51.247800
C -9.237000 -13.178400 -48.471200
C -9.224500 -14.295900 -49.321700
C -8.866300 -13.318900 -47.077900
C -8.842600 -15.596900 -48.815900
N -8.574800 -13.405500 -45.967700
N -8.540600 -16.635000 -48.421900
24
Fragment
H -14.570600 -11.696900 -53.693700
C -14.272000 -12.113300 -52.893800
H -14.266000 -10.425000 -51.782000
H -14.182500 -13.990700 -53.668300
C -14.086200 -11.357900 -51.767000
C -14.030200 -13.480200 -52.881600
H -13.641500 -10.276000 -49.407500
C -13.619700 -11.979800 -50.567900
C -13.568200 -14.110800 -51.732100
C -13.443000 -11.204600 -49.391800
H -13.396600 -15.045200 -51.740400
C -13.354800 -13.366600 -50.553900
C -12.991300 -11.781300 -48.235000
H -12.872300 -11.242200 -47.461500
C -12.866100 -13.988500 -49.321100
C -12.694600 -13.176800 -48.168800
H -12.660400 -15.900800 -49.996900
C -12.548400 -15.345900 -49.233800
C -12.198500 -13.766900 -46.973700
C -12.076900 -15.896300 -48.061300
H -12.068300 -13.228300 -46.202300
C -11.908600 -15.098900 -46.923800
H -11.864600 -16.822000 -48.025500
H -11.592300 -15.485000 -46.115600
40
Fragment
N -10.618100 -9.457300 -51.211000
N -10.605500 -12.612100 -53.642300
C -10.325300 -10.485800 -50.797700
C -10.311600 -12.747900 -52.539100
C -9.954100 -11.789200 -50.294700
C -9.945200 -12.904300 -51.148500
H -9.600000 -11.165500 -48.377800
C -9.597200 -11.921000 -48.954000
C -9.581300 -14.156900 -50.668700
H -9.575200 -14.910400 -51.247800
C -9.237000 -13.178400 -48.471200
C -9.224500 -14.295900 -49.321700
C -8.866300 -13.318900 -47.077900
C -8.842600 -15.596900 -48.815900
N -8.574800 -13.405500 -45.967700
N -8.540600 -16.635000 -48.421900
H -14.570600 -11.696900 -53.693700
C -14.272000 -12.113300 -52.893800
H -14.266000 -10.425000 -51.782000
H -14.182500 -13.990700 -53.668300
C -14.086200 -11.357900 -51.767000
C -14.030200 -13.480200 -52.881600
H -13.641500 -10.276000 -49.407500
C -13.619700 -11.979800 -50.567900
C -13.568200 -14.110800 -51.732100
C -13.443000 -11.204600 -49.391800
H -13.396600 -15.045200 -51.740400
C -13.354800 -13.366600 -50.553900
C -12.991300 -11.781300 -48.235000
H -12.872300 -11.242200 -47.461500
C -12.866100 -13.988500 -49.321100
C -12.694600 -13.176800 -48.168800
H -12.660400 -15.900800 -49.996900
C -12.548400 -15.345900 -49.233800
C -12.198500 -13.766900 -46.973700
C -12.076900 -15.896300 -48.061300
H -12.068300 -13.228300 -46.202300
C -11.908600 -15.098900 -46.923800
H -11.864600 -16.822000 -48.025500
H -11.592300 -15.485000 -46.115600
