16
Fragment
N -10.618100 -9.457300 -51.211000
N -10.605500 -12.612100 -53.642300
C -10.325300 -10.485800 -50.797700
C -10.311600 -12.747900 -52.539100
C -9.954100 -11.789200 -50.294700
C -9.945200 -12.904300 -51.148500
H -9.600000 -11.165500 -48.377800
C -9.597200 -11.921000 -48.954000
C -9.581300 -14.156900 -50.668700
H -9.575200 -14.910400 -51.247800
C -9.237000 -13.178400 -48.471200
C -9.224500 -14.295900 -49.321700
C -8.866300 -13.318900 -47.077900
C -8.842600 -15.596900 -48.815900
N -8.574800 -13.405500 -45.967700
N -8.540600 -16.635000 -48.421900
24
Fragment
H -14.483300 -19.456300 -61.110100
H -14.211000 -20.793300 -59.200200
C -14.167000 -19.070200 -60.301900
H -14.007300 -17.199600 -61.023400
C -13.998700 -19.867600 -59.164400
C -13.877100 -17.738200 -60.252000
C -13.527200 -19.317200 -57.991900
H -13.415200 -19.872100 -57.228800
C -13.380900 -17.148100 -59.056900
C -13.209400 -17.959800 -57.904600
H -13.203200 -15.213500 -59.764200
C -13.084300 -15.752600 -58.990700
C -12.720700 -17.337900 -56.671800
H -12.679000 -19.016500 -55.485300
C -12.632500 -15.175900 -57.833900
C -12.507400 -18.082100 -55.493600
C -12.455900 -15.951100 -56.657800
H -12.434000 -14.247300 -57.818200
C -12.045400 -17.451500 -54.344100
C -11.989400 -15.329200 -55.458700
H -11.893000 -17.962000 -53.557400
H -11.809500 -14.396300 -55.443700
C -11.803500 -16.084600 -54.331900
H -11.505000 -15.668200 -53.532000
40
Fragment
N -10.618100 -9.457300 -51.211000
N -10.605500 -12.612100 -53.642300
C -10.325300 -10.485800 -50.797700
C -10.311600 -12.747900 -52.539100
C -9.954100 -11.789200 -50.294700
C -9.945200 -12.904300 -51.148500
H -9.600000 -11.165500 -48.377800
C -9.597200 -11.921000 -48.954000
C -9.581300 -14.156900 -50.668700
H -9.575200 -14.910400 -51.247800
C -9.237000 -13.178400 -48.471200
C -9.224500 -14.295900 -49.321700
C -8.866300 -13.318900 -47.077900
C -8.842600 -15.596900 -48.815900
N -8.574800 -13.405500 -45.967700
N -8.540600 -16.635000 -48.421900
H -14.483300 -19.456300 -61.110100
H -14.211000 -20.793300 -59.200200
C -14.167000 -19.070200 -60.301900
H -14.007300 -17.199600 -61.023400
C -13.998700 -19.867600 -59.164400
C -13.877100 -17.738200 -60.252000
C -13.527200 -19.317200 -57.991900
H -13.415200 -19.872100 -57.228800
C -13.380900 -17.148100 -59.056900
C -13.209400 -17.959800 -57.904600
H -13.203200 -15.213500 -59.764200
C -13.084300 -15.752600 -58.990700
C -12.720700 -17.337900 -56.671800
H -12.679000 -19.016500 -55.485300
C -12.632500 -15.175900 -57.833900
C -12.507400 -18.082100 -55.493600
C -12.455900 -15.951100 -56.657800
H -12.434000 -14.247300 -57.818200
C -12.045400 -17.451500 -54.344100
C -11.989400 -15.329200 -55.458700
H -11.893000 -17.962000 -53.557400
H -11.809500 -14.396300 -55.443700
C -11.803500 -16.084600 -54.331900
H -11.505000 -15.668200 -53.532000
