16
Fragment
N -10.618100 -9.457300 -51.211000
N -10.605500 -12.612100 -53.642300
C -10.325300 -10.485800 -50.797700
C -10.311600 -12.747900 -52.539100
C -9.954100 -11.789200 -50.294700
C -9.945200 -12.904300 -51.148500
H -9.600000 -11.165500 -48.377800
C -9.597200 -11.921000 -48.954000
C -9.581300 -14.156900 -50.668700
H -9.575200 -14.910400 -51.247800
C -9.237000 -13.178400 -48.471200
C -9.224500 -14.295900 -49.321700
C -8.866300 -13.318900 -47.077900
C -8.842600 -15.596900 -48.815900
N -8.574800 -13.405500 -45.967700
N -8.540600 -16.635000 -48.421900
16
Fragment
N -10.721200 -15.135400 -43.485800
N -10.687100 -18.364900 -45.940100
C -10.419300 -16.173500 -43.091900
C -10.395600 -18.451500 -44.829800
C -10.037300 -17.474500 -42.586100
C -10.024900 -18.592000 -43.436500
H -9.686600 -16.860000 -40.660000
C -9.680600 -17.613500 -41.239000
C -9.664700 -19.849400 -42.953700
H -9.661900 -20.604900 -43.530000
C -9.316700 -18.866100 -40.759200
C -9.307800 -19.981200 -41.613100
C -8.950200 -19.022500 -39.368700
C -8.936500 -21.284600 -41.110000
N -8.656400 -19.158300 -38.265500
N -8.643700 -22.313100 -40.696700
32
Fragment
N -10.618100 -9.457300 -51.211000
N -10.605500 -12.612100 -53.642300
C -10.325300 -10.485800 -50.797700
C -10.311600 -12.747900 -52.539100
C -9.954100 -11.789200 -50.294700
C -9.945200 -12.904300 -51.148500
H -9.600000 -11.165500 -48.377800
C -9.597200 -11.921000 -48.954000
C -9.581300 -14.156900 -50.668700
H -9.575200 -14.910400 -51.247800
C -9.237000 -13.178400 -48.471200
C -9.224500 -14.295900 -49.321700
C -8.866300 -13.318900 -47.077900
C -8.842600 -15.596900 -48.815900
N -8.574800 -13.405500 -45.967700
N -8.540600 -16.635000 -48.421900
N -10.721200 -15.135400 -43.485800
N -10.687100 -18.364900 -45.940100
C -10.419300 -16.173500 -43.091900
C -10.395600 -18.451500 -44.829800
C -10.037300 -17.474500 -42.586100
C -10.024900 -18.592000 -43.436500
H -9.686600 -16.860000 -40.660000
C -9.680600 -17.613500 -41.239000
C -9.664700 -19.849400 -42.953700
H -9.661900 -20.604900 -43.530000
C -9.316700 -18.866100 -40.759200
C -9.307800 -19.981200 -41.613100
C -8.950200 -19.022500 -39.368700
C -8.936500 -21.284600 -41.110000
N -8.656400 -19.158300 -38.265500
N -8.643700 -22.313100 -40.696700
