16
Fragment
N -10.618100 -9.457300 -51.211000
N -10.605500 -12.612100 -53.642300
C -10.325300 -10.485800 -50.797700
C -10.311600 -12.747900 -52.539100
C -9.954100 -11.789200 -50.294700
C -9.945200 -12.904300 -51.148500
H -9.600000 -11.165500 -48.377800
C -9.597200 -11.921000 -48.954000
C -9.581300 -14.156900 -50.668700
H -9.575200 -14.910400 -51.247800
C -9.237000 -13.178400 -48.471200
C -9.224500 -14.295900 -49.321700
C -8.866300 -13.318900 -47.077900
C -8.842600 -15.596900 -48.815900
N -8.574800 -13.405500 -45.967700
N -8.540600 -16.635000 -48.421900
16
Fragment
N -10.618100 -17.399900 -51.211000
N -10.605500 -20.554700 -53.642300
C -10.325300 -18.428400 -50.797700
C -10.311600 -20.690500 -52.539100
C -9.954100 -19.731800 -50.294700
C -9.945200 -20.846900 -51.148500
H -9.600000 -19.108100 -48.377800
C -9.597200 -19.863600 -48.954000
C -9.581300 -22.099500 -50.668700
H -9.575200 -22.853000 -51.247800
C -9.237000 -21.121000 -48.471200
C -9.224500 -22.238500 -49.321700
C -8.866300 -21.261500 -47.077900
C -8.842600 -23.539500 -48.815900
N -8.574800 -21.348100 -45.967700
N -8.540600 -24.577600 -48.421900
32
Fragment
N -10.618100 -9.457300 -51.211000
N -10.605500 -12.612100 -53.642300
C -10.325300 -10.485800 -50.797700
C -10.311600 -12.747900 -52.539100
C -9.954100 -11.789200 -50.294700
C -9.945200 -12.904300 -51.148500
H -9.600000 -11.165500 -48.377800
C -9.597200 -11.921000 -48.954000
C -9.581300 -14.156900 -50.668700
H -9.575200 -14.910400 -51.247800
C -9.237000 -13.178400 -48.471200
C -9.224500 -14.295900 -49.321700
C -8.866300 -13.318900 -47.077900
C -8.842600 -15.596900 -48.815900
N -8.574800 -13.405500 -45.967700
N -8.540600 -16.635000 -48.421900
N -10.618100 -17.399900 -51.211000
N -10.605500 -20.554700 -53.642300
C -10.325300 -18.428400 -50.797700
C -10.311600 -20.690500 -52.539100
C -9.954100 -19.731800 -50.294700
C -9.945200 -20.846900 -51.148500
H -9.600000 -19.108100 -48.377800
C -9.597200 -19.863600 -48.954000
C -9.581300 -22.099500 -50.668700
H -9.575200 -22.853000 -51.247800
C -9.237000 -21.121000 -48.471200
C -9.224500 -22.238500 -49.321700
C -8.866300 -21.261500 -47.077900
C -8.842600 -23.539500 -48.815900
N -8.574800 -21.348100 -45.967700
N -8.540600 -24.577600 -48.421900
