16
Fragment
N -10.618100 -9.457300 -51.211000
N -10.605500 -12.612100 -53.642300
C -10.325300 -10.485800 -50.797700
C -10.311600 -12.747900 -52.539100
C -9.954100 -11.789200 -50.294700
C -9.945200 -12.904300 -51.148500
H -9.600000 -11.165500 -48.377800
C -9.597200 -11.921000 -48.954000
C -9.581300 -14.156900 -50.668700
H -9.575200 -14.910400 -51.247800
C -9.237000 -13.178400 -48.471200
C -9.224500 -14.295900 -49.321700
C -8.866300 -13.318900 -47.077900
C -8.842600 -15.596900 -48.815900
N -8.574800 -13.405500 -45.967700
N -8.540600 -16.635000 -48.421900
24
Fragment
H -14.483300 -11.513700 -61.110100
H -14.211000 -12.850700 -59.200200
C -14.167000 -11.127600 -60.301900
H -14.007300 -9.257000 -61.023400
C -13.998700 -11.925000 -59.164400
C -13.877100 -9.795600 -60.252000
C -13.527200 -11.374600 -57.991900
H -13.415200 -11.929500 -57.228800
C -13.380900 -9.205500 -59.056900
C -13.209400 -10.017200 -57.904600
H -13.203200 -7.270900 -59.764200
C -13.084300 -7.810000 -58.990700
C -12.720700 -9.395300 -56.671800
H -12.679000 -11.073900 -55.485300
C -12.632500 -7.233300 -57.833900
C -12.507400 -10.139500 -55.493600
C -12.455900 -8.008500 -56.657800
H -12.434000 -6.304700 -57.818200
C -12.045400 -9.508900 -54.344100
C -11.989400 -7.386600 -55.458700
H -11.893000 -10.019400 -53.557400
H -11.809500 -6.453700 -55.443700
C -11.803500 -8.142000 -54.331900
H -11.505000 -7.725600 -53.532000
40
Fragment
N -10.618100 -9.457300 -51.211000
N -10.605500 -12.612100 -53.642300
C -10.325300 -10.485800 -50.797700
C -10.311600 -12.747900 -52.539100
C -9.954100 -11.789200 -50.294700
C -9.945200 -12.904300 -51.148500
H -9.600000 -11.165500 -48.377800
C -9.597200 -11.921000 -48.954000
C -9.581300 -14.156900 -50.668700
H -9.575200 -14.910400 -51.247800
C -9.237000 -13.178400 -48.471200
C -9.224500 -14.295900 -49.321700
C -8.866300 -13.318900 -47.077900
C -8.842600 -15.596900 -48.815900
N -8.574800 -13.405500 -45.967700
N -8.540600 -16.635000 -48.421900
H -14.483300 -11.513700 -61.110100
H -14.211000 -12.850700 -59.200200
C -14.167000 -11.127600 -60.301900
H -14.007300 -9.257000 -61.023400
C -13.998700 -11.925000 -59.164400
C -13.877100 -9.795600 -60.252000
C -13.527200 -11.374600 -57.991900
H -13.415200 -11.929500 -57.228800
C -13.380900 -9.205500 -59.056900
C -13.209400 -10.017200 -57.904600
H -13.203200 -7.270900 -59.764200
C -13.084300 -7.810000 -58.990700
C -12.720700 -9.395300 -56.671800
H -12.679000 -11.073900 -55.485300
C -12.632500 -7.233300 -57.833900
C -12.507400 -10.139500 -55.493600
C -12.455900 -8.008500 -56.657800
H -12.434000 -6.304700 -57.818200
C -12.045400 -9.508900 -54.344100
C -11.989400 -7.386600 -55.458700
H -11.893000 -10.019400 -53.557400
H -11.809500 -6.453700 -55.443700
C -11.803500 -8.142000 -54.331900
H -11.505000 -7.725600 -53.532000
