20
Fragment
H -14.214100 -11.434000 -18.642000
H -13.813400 -12.015500 -16.419900
O -13.554800 -11.896800 -18.999600
C -12.954100 -12.339900 -16.717500
C -12.659400 -12.336100 -18.069700
H -12.289200 -12.800400 -14.883900
C -12.023600 -12.813500 -15.816000
C -11.430300 -12.799900 -18.517300
H -11.249000 -12.785800 -19.478400
C -10.778700 -13.277500 -16.230100
H -10.721600 -13.703700 -13.554900
C -10.498600 -13.257500 -17.598900
C -9.910900 -13.926800 -13.985500
C -9.779200 -13.781600 -15.291300
H -9.639600 -13.548800 -17.941000
O -9.139000 -14.483000 -11.867800
H -8.981000 -14.043600 -15.659300
C -8.819600 -14.435900 -13.142700
H -8.367500 -14.766700 -11.358500
O -7.736000 -14.781200 -13.571100
13
Fragment
O -8.699300 -14.774600 -8.395100
C -7.612300 -15.227500 -8.800700
N -7.282800 -15.270300 -10.116500
H -6.981300 -15.715900 -7.007500
N -6.715200 -15.712500 -7.878900
H -6.413600 -15.458400 -12.377500
C -6.095100 -15.752400 -10.501100
N -5.784800 -15.791400 -11.780400
C -5.504100 -16.215600 -8.237400
C -5.173700 -16.229300 -9.524600
H -5.030200 -16.120800 -12.028300
H -4.951900 -16.579100 -7.570500
F -3.997500 -16.721400 -9.949500
33
Fragment
H -14.214100 -11.434000 -18.642000
H -13.813400 -12.015500 -16.419900
O -13.554800 -11.896800 -18.999600
C -12.954100 -12.339900 -16.717500
C -12.659400 -12.336100 -18.069700
H -12.289200 -12.800400 -14.883900
C -12.023600 -12.813500 -15.816000
C -11.430300 -12.799900 -18.517300
H -11.249000 -12.785800 -19.478400
C -10.778700 -13.277500 -16.230100
H -10.721600 -13.703700 -13.554900
C -10.498600 -13.257500 -17.598900
C -9.910900 -13.926800 -13.985500
C -9.779200 -13.781600 -15.291300
H -9.639600 -13.548800 -17.941000
O -9.139000 -14.483000 -11.867800
H -8.981000 -14.043600 -15.659300
C -8.819600 -14.435900 -13.142700
H -8.367500 -14.766700 -11.358500
O -7.736000 -14.781200 -13.571100
O -8.699300 -14.774600 -8.395100
C -7.612300 -15.227500 -8.800700
N -7.282800 -15.270300 -10.116500
H -6.981300 -15.715900 -7.007500
N -6.715200 -15.712500 -7.878900
H -6.413600 -15.458400 -12.377500
C -6.095100 -15.752400 -10.501100
N -5.784800 -15.791400 -11.780400
C -5.504100 -16.215600 -8.237400
C -5.173700 -16.229300 -9.524600
H -5.030200 -16.120800 -12.028300
H -4.951900 -16.579100 -7.570500
F -3.997500 -16.721400 -9.949500
