20
Fragment
H -14.214100 -11.434000 -18.642000
H -13.813400 -12.015500 -16.419900
O -13.554800 -11.896800 -18.999600
C -12.954100 -12.339900 -16.717500
C -12.659400 -12.336100 -18.069700
H -12.289200 -12.800400 -14.883900
C -12.023600 -12.813500 -15.816000
C -11.430300 -12.799900 -18.517300
H -11.249000 -12.785800 -19.478400
C -10.778700 -13.277500 -16.230100
H -10.721600 -13.703700 -13.554900
C -10.498600 -13.257500 -17.598900
C -9.910900 -13.926800 -13.985500
C -9.779200 -13.781600 -15.291300
H -9.639600 -13.548800 -17.941000
O -9.139000 -14.483000 -11.867800
H -8.981000 -14.043600 -15.659300
C -8.819600 -14.435900 -13.142700
H -8.367500 -14.766700 -11.358500
O -7.736000 -14.781200 -13.571100
20
Fragment
O -16.550800 -10.127300 -13.495300
H -15.919200 -10.141800 -15.708000
C -15.467100 -10.472600 -13.923800
H -15.305700 -10.864900 -11.407200
O -15.147700 -10.425500 -15.198600
H -14.647100 -11.359700 -9.125500
C -14.507500 -11.126900 -11.775100
C -14.375900 -10.981700 -13.081000
C -13.788100 -11.650900 -9.467600
H -13.565200 -11.204800 -13.511600
C -13.508000 -11.631000 -10.836300
H -13.037700 -12.122700 -7.588100
C -12.856400 -12.108600 -8.549200
C -12.263100 -12.094900 -11.250500
H -11.997500 -12.108100 -12.182600
C -11.627400 -12.572300 -8.996800
C -11.332600 -12.568500 -10.349000
O -10.731900 -13.011700 -8.066900
H -10.473300 -12.893000 -10.646600
H -10.072600 -13.474500 -8.424400
40
Fragment
H -14.214100 -11.434000 -18.642000
H -13.813400 -12.015500 -16.419900
O -13.554800 -11.896800 -18.999600
C -12.954100 -12.339900 -16.717500
C -12.659400 -12.336100 -18.069700
H -12.289200 -12.800400 -14.883900
C -12.023600 -12.813500 -15.816000
C -11.430300 -12.799900 -18.517300
H -11.249000 -12.785800 -19.478400
C -10.778700 -13.277500 -16.230100
H -10.721600 -13.703700 -13.554900
C -10.498600 -13.257500 -17.598900
C -9.910900 -13.926800 -13.985500
C -9.779200 -13.781600 -15.291300
H -9.639600 -13.548800 -17.941000
O -9.139000 -14.483000 -11.867800
H -8.981000 -14.043600 -15.659300
C -8.819600 -14.435900 -13.142700
H -8.367500 -14.766700 -11.358500
O -7.736000 -14.781200 -13.571100
O -16.550800 -10.127300 -13.495300
H -15.919200 -10.141800 -15.708000
C -15.467100 -10.472600 -13.923800
H -15.305700 -10.864900 -11.407200
O -15.147700 -10.425500 -15.198600
H -14.647100 -11.359700 -9.125500
C -14.507500 -11.126900 -11.775100
C -14.375900 -10.981700 -13.081000
C -13.788100 -11.650900 -9.467600
H -13.565200 -11.204800 -13.511600
C -13.508000 -11.631000 -10.836300
H -13.037700 -12.122700 -7.588100
C -12.856400 -12.108600 -8.549200
C -12.263100 -12.094900 -11.250500
H -11.997500 -12.108100 -12.182600
C -11.627400 -12.572300 -8.996800
C -11.332600 -12.568500 -10.349000
O -10.731900 -13.011700 -8.066900
H -10.473300 -12.893000 -10.646600
H -10.072600 -13.474500 -8.424400
