20
Fragment
H -14.214100 -11.434000 -18.642000
H -13.813400 -12.015500 -16.419900
O -13.554800 -11.896800 -18.999600
C -12.954100 -12.339900 -16.717500
C -12.659400 -12.336100 -18.069700
H -12.289200 -12.800400 -14.883900
C -12.023600 -12.813500 -15.816000
C -11.430300 -12.799900 -18.517300
H -11.249000 -12.785800 -19.478400
C -10.778700 -13.277500 -16.230100
H -10.721600 -13.703700 -13.554900
C -10.498600 -13.257500 -17.598900
C -9.910900 -13.926800 -13.985500
C -9.779200 -13.781600 -15.291300
H -9.639600 -13.548800 -17.941000
O -9.139000 -14.483000 -11.867800
H -8.981000 -14.043600 -15.659300
C -8.819600 -14.435900 -13.142700
H -8.367500 -14.766700 -11.358500
O -7.736000 -14.781200 -13.571100
13
Fragment
O -16.801200 -9.104900 -21.928300
C -15.714300 -9.557800 -22.333900
N -15.384700 -9.600500 -23.649700
H -15.083200 -10.046200 -20.540800
N -14.817100 -10.042700 -21.412200
H -14.515500 -9.788600 -25.910700
C -14.197100 -10.082700 -24.034400
N -13.886700 -10.121700 -25.313700
C -13.606100 -10.545900 -21.770700
C -13.275600 -10.559600 -23.057800
H -13.132100 -10.451100 -25.561600
H -13.053800 -10.909400 -21.103700
F -12.099500 -11.051700 -23.482700
33
Fragment
H -14.214100 -11.434000 -18.642000
H -13.813400 -12.015500 -16.419900
O -13.554800 -11.896800 -18.999600
C -12.954100 -12.339900 -16.717500
C -12.659400 -12.336100 -18.069700
H -12.289200 -12.800400 -14.883900
C -12.023600 -12.813500 -15.816000
C -11.430300 -12.799900 -18.517300
H -11.249000 -12.785800 -19.478400
C -10.778700 -13.277500 -16.230100
H -10.721600 -13.703700 -13.554900
C -10.498600 -13.257500 -17.598900
C -9.910900 -13.926800 -13.985500
C -9.779200 -13.781600 -15.291300
H -9.639600 -13.548800 -17.941000
O -9.139000 -14.483000 -11.867800
H -8.981000 -14.043600 -15.659300
C -8.819600 -14.435900 -13.142700
H -8.367500 -14.766700 -11.358500
O -7.736000 -14.781200 -13.571100
O -16.801200 -9.104900 -21.928300
C -15.714300 -9.557800 -22.333900
N -15.384700 -9.600500 -23.649700
H -15.083200 -10.046200 -20.540800
N -14.817100 -10.042700 -21.412200
H -14.515500 -9.788600 -25.910700
C -14.197100 -10.082700 -24.034400
N -13.886700 -10.121700 -25.313700
C -13.606100 -10.545900 -21.770700
C -13.275600 -10.559600 -23.057800
H -13.132100 -10.451100 -25.561600
H -13.053800 -10.909400 -21.103700
F -12.099500 -11.051700 -23.482700
