20
Fragment
H -14.214100 -11.434000 -18.642000
H -13.813400 -12.015500 -16.419900
O -13.554800 -11.896800 -18.999600
C -12.954100 -12.339900 -16.717500
C -12.659400 -12.336100 -18.069700
H -12.289200 -12.800400 -14.883900
C -12.023600 -12.813500 -15.816000
C -11.430300 -12.799900 -18.517300
H -11.249000 -12.785800 -19.478400
C -10.778700 -13.277500 -16.230100
H -10.721600 -13.703700 -13.554900
C -10.498600 -13.257500 -17.598900
C -9.910900 -13.926800 -13.985500
C -9.779200 -13.781600 -15.291300
H -9.639600 -13.548800 -17.941000
O -9.139000 -14.483000 -11.867800
H -8.981000 -14.043600 -15.659300
C -8.819600 -14.435900 -13.142700
H -8.367500 -14.766700 -11.358500
O -7.736000 -14.781200 -13.571100
20
Fragment
O -10.408900 -17.376800 -13.495300
H -9.777300 -17.391300 -15.708000
C -9.325200 -17.722100 -13.923800
H -9.163800 -18.114400 -11.407200
O -9.005800 -17.675100 -15.198600
H -8.505200 -18.609300 -9.125500
C -8.365600 -18.376500 -11.775100
C -8.234000 -18.231300 -13.081000
C -7.646200 -18.900500 -9.467600
H -7.423300 -18.454400 -13.511600
C -7.366100 -18.880600 -10.836300
H -6.895800 -19.372300 -7.588100
C -6.714500 -19.358200 -8.549200
C -6.121200 -19.344500 -11.250500
H -5.855600 -19.357700 -12.182600
C -5.485500 -19.821900 -8.996800
C -5.190700 -19.818100 -10.349000
O -4.590000 -20.261300 -8.066900
H -4.331400 -20.142500 -10.646600
H -3.930700 -20.724100 -8.424400
40
Fragment
H -14.214100 -11.434000 -18.642000
H -13.813400 -12.015500 -16.419900
O -13.554800 -11.896800 -18.999600
C -12.954100 -12.339900 -16.717500
C -12.659400 -12.336100 -18.069700
H -12.289200 -12.800400 -14.883900
C -12.023600 -12.813500 -15.816000
C -11.430300 -12.799900 -18.517300
H -11.249000 -12.785800 -19.478400
C -10.778700 -13.277500 -16.230100
H -10.721600 -13.703700 -13.554900
C -10.498600 -13.257500 -17.598900
C -9.910900 -13.926800 -13.985500
C -9.779200 -13.781600 -15.291300
H -9.639600 -13.548800 -17.941000
O -9.139000 -14.483000 -11.867800
H -8.981000 -14.043600 -15.659300
C -8.819600 -14.435900 -13.142700
H -8.367500 -14.766700 -11.358500
O -7.736000 -14.781200 -13.571100
O -10.408900 -17.376800 -13.495300
H -9.777300 -17.391300 -15.708000
C -9.325200 -17.722100 -13.923800
H -9.163800 -18.114400 -11.407200
O -9.005800 -17.675100 -15.198600
H -8.505200 -18.609300 -9.125500
C -8.365600 -18.376500 -11.775100
C -8.234000 -18.231300 -13.081000
C -7.646200 -18.900500 -9.467600
H -7.423300 -18.454400 -13.511600
C -7.366100 -18.880600 -10.836300
H -6.895800 -19.372300 -7.588100
C -6.714500 -19.358200 -8.549200
C -6.121200 -19.344500 -11.250500
H -5.855600 -19.357700 -12.182600
C -5.485500 -19.821900 -8.996800
C -5.190700 -19.818100 -10.349000
O -4.590000 -20.261300 -8.066900
H -4.331400 -20.142500 -10.646600
H -3.930700 -20.724100 -8.424400
