20
Fragment
H -14.214100 -11.434000 -18.642000
H -13.813400 -12.015500 -16.419900
O -13.554800 -11.896800 -18.999600
C -12.954100 -12.339900 -16.717500
C -12.659400 -12.336100 -18.069700
H -12.289200 -12.800400 -14.883900
C -12.023600 -12.813500 -15.816000
C -11.430300 -12.799900 -18.517300
H -11.249000 -12.785800 -19.478400
C -10.778700 -13.277500 -16.230100
H -10.721600 -13.703700 -13.554900
C -10.498600 -13.257500 -17.598900
C -9.910900 -13.926800 -13.985500
C -9.779200 -13.781600 -15.291300
H -9.639600 -13.548800 -17.941000
O -9.139000 -14.483000 -11.867800
H -8.981000 -14.043600 -15.659300
C -8.819600 -14.435900 -13.142700
H -8.367500 -14.766700 -11.358500
O -7.736000 -14.781200 -13.571100
20
Fragment
O -18.510800 -11.707100 -27.028600
H -17.879200 -11.721600 -29.241300
C -17.427200 -12.052400 -27.457100
H -17.265700 -12.444700 -24.940400
O -17.107700 -12.005300 -28.731900
H -16.607200 -12.939600 -22.658700
C -16.467500 -12.706800 -25.308400
C -16.335900 -12.561500 -26.614200
C -15.748200 -13.230800 -23.000800
H -15.525200 -12.784600 -27.044800
C -15.468000 -13.210800 -24.369600
H -14.997700 -13.702500 -21.121300
C -14.816400 -13.688400 -22.082500
C -14.223100 -13.674800 -24.783700
H -13.957500 -13.687900 -25.715900
C -13.587400 -14.152200 -22.530000
C -13.292600 -14.148400 -23.882200
O -12.691900 -14.591600 -21.600100
H -12.433300 -14.472800 -24.179800
H -12.032600 -15.054300 -21.957700
40
Fragment
H -14.214100 -11.434000 -18.642000
H -13.813400 -12.015500 -16.419900
O -13.554800 -11.896800 -18.999600
C -12.954100 -12.339900 -16.717500
C -12.659400 -12.336100 -18.069700
H -12.289200 -12.800400 -14.883900
C -12.023600 -12.813500 -15.816000
C -11.430300 -12.799900 -18.517300
H -11.249000 -12.785800 -19.478400
C -10.778700 -13.277500 -16.230100
H -10.721600 -13.703700 -13.554900
C -10.498600 -13.257500 -17.598900
C -9.910900 -13.926800 -13.985500
C -9.779200 -13.781600 -15.291300
H -9.639600 -13.548800 -17.941000
O -9.139000 -14.483000 -11.867800
H -8.981000 -14.043600 -15.659300
C -8.819600 -14.435900 -13.142700
H -8.367500 -14.766700 -11.358500
O -7.736000 -14.781200 -13.571100
O -18.510800 -11.707100 -27.028600
H -17.879200 -11.721600 -29.241300
C -17.427200 -12.052400 -27.457100
H -17.265700 -12.444700 -24.940400
O -17.107700 -12.005300 -28.731900
H -16.607200 -12.939600 -22.658700
C -16.467500 -12.706800 -25.308400
C -16.335900 -12.561500 -26.614200
C -15.748200 -13.230800 -23.000800
H -15.525200 -12.784600 -27.044800
C -15.468000 -13.210800 -24.369600
H -14.997700 -13.702500 -21.121300
C -14.816400 -13.688400 -22.082500
C -14.223100 -13.674800 -24.783700
H -13.957500 -13.687900 -25.715900
C -13.587400 -14.152200 -22.530000
C -13.292600 -14.148400 -23.882200
O -12.691900 -14.591600 -21.600100
H -12.433300 -14.472800 -24.179800
H -12.032600 -15.054300 -21.957700
