13
Fragment
H -9.405000 -40.165500 -23.144900
O -8.953400 -39.318600 -20.518700
H -8.710500 -37.112500 -23.928400
C -8.609700 -38.965400 -21.660200
C -8.507300 -39.872000 -22.849200
H -8.429800 -37.044800 -21.495700
N -8.309900 -37.726400 -22.029600
H -8.280900 -39.154500 -24.794100
C -7.984200 -37.577600 -23.441300
H -7.962300 -40.669700 -22.636800
C -7.836700 -39.028600 -23.918900
H -7.140600 -37.074900 -23.561800
H -6.881500 -39.272400 -24.007600
13
Fragment
H -5.581900 -35.986200 -21.634200
H -5.322900 -38.183700 -22.080000
C -4.626800 -36.230000 -21.722900
H -4.501200 -34.588900 -23.005000
C -4.479300 -37.681000 -22.200400
H -4.182500 -36.104100 -20.847600
N -4.153500 -37.532200 -23.612100
H -4.033700 -38.213800 -24.146000
C -3.956100 -35.386600 -22.792600
C -3.853700 -36.293200 -23.981500
H -3.752900 -38.146100 -21.713300
O -3.510000 -35.940000 -25.123000
H -3.058400 -35.093100 -22.496800
26
Fragment
H -9.405000 -40.165500 -23.144900
O -8.953400 -39.318600 -20.518700
H -8.710500 -37.112500 -23.928400
C -8.609700 -38.965400 -21.660200
C -8.507300 -39.872000 -22.849200
H -8.429800 -37.044800 -21.495700
N -8.309900 -37.726400 -22.029600
H -8.280900 -39.154500 -24.794100
C -7.984200 -37.577600 -23.441300
H -7.962300 -40.669700 -22.636800
C -7.836700 -39.028600 -23.918900
H -7.140600 -37.074900 -23.561800
H -6.881500 -39.272400 -24.007600
H -5.581900 -35.986200 -21.634200
H -5.322900 -38.183700 -22.080000
C -4.626800 -36.230000 -21.722900
H -4.501200 -34.588900 -23.005000
C -4.479300 -37.681000 -22.200400
H -4.182500 -36.104100 -20.847600
N -4.153500 -37.532200 -23.612100
H -4.033700 -38.213800 -24.146000
C -3.956100 -35.386600 -22.792600
C -3.853700 -36.293200 -23.981500
H -3.752900 -38.146100 -21.713300
O -3.510000 -35.940000 -25.123000
H -3.058400 -35.093100 -22.496800
