13
Fragment
H -9.405000 -40.165500 -23.144900
O -8.953400 -39.318600 -20.518700
H -8.710500 -37.112500 -23.928400
C -8.609700 -38.965400 -21.660200
C -8.507300 -39.872000 -22.849200
H -8.429800 -37.044800 -21.495700
N -8.309900 -37.726400 -22.029600
H -8.280900 -39.154500 -24.794100
C -7.984200 -37.577600 -23.441300
H -7.962300 -40.669700 -22.636800
C -7.836700 -39.028600 -23.918900
H -7.140600 -37.074900 -23.561800
H -6.881500 -39.272400 -24.007600
13
Fragment
H -7.685500 -36.151700 -26.600000
H -7.517100 -38.386900 -26.860200
C -6.742600 -36.450200 -26.644400
C -6.659200 -37.924800 -27.036200
H -6.434900 -34.862300 -27.987500
O -6.391000 -38.878600 -29.257700
C -6.353800 -37.902500 -28.513200
H -6.314200 -36.294700 -25.766300
N -6.048700 -36.653900 -28.869800
C -5.989100 -35.715000 -27.757900
H -5.939600 -38.381900 -26.534600
H -5.736700 -36.470300 -29.671700
H -5.052900 -35.532100 -27.494600
26
Fragment
H -9.405000 -40.165500 -23.144900
O -8.953400 -39.318600 -20.518700
H -8.710500 -37.112500 -23.928400
C -8.609700 -38.965400 -21.660200
C -8.507300 -39.872000 -22.849200
H -8.429800 -37.044800 -21.495700
N -8.309900 -37.726400 -22.029600
H -8.280900 -39.154500 -24.794100
C -7.984200 -37.577600 -23.441300
H -7.962300 -40.669700 -22.636800
C -7.836700 -39.028600 -23.918900
H -7.140600 -37.074900 -23.561800
H -6.881500 -39.272400 -24.007600
H -7.685500 -36.151700 -26.600000
H -7.517100 -38.386900 -26.860200
C -6.742600 -36.450200 -26.644400
C -6.659200 -37.924800 -27.036200
H -6.434900 -34.862300 -27.987500
O -6.391000 -38.878600 -29.257700
C -6.353800 -37.902500 -28.513200
H -6.314200 -36.294700 -25.766300
N -6.048700 -36.653900 -28.869800
C -5.989100 -35.715000 -27.757900
H -5.939600 -38.381900 -26.534600
H -5.736700 -36.470300 -29.671700
H -5.052900 -35.532100 -27.494600
