32
Fragment
H -8.715300 -6.720900 -19.917100
H -8.698000 -7.147600 -23.245900
H -7.983400 -7.806000 -25.362300
H -7.917600 -6.886800 -17.738900
C -7.882200 -7.143800 -19.745300
C -7.869000 -7.598400 -23.354100
C -7.435300 -7.995000 -24.609800
C -7.386500 -7.251400 -18.436800
C -7.119600 -7.672400 -20.788300
C -7.062800 -7.876400 -22.259300
C -6.227500 -8.660200 -24.812300
C -6.169500 -7.854800 -18.072500
H -5.979500 -8.910500 -25.694300
C -5.954500 -8.261900 -20.332800
H -5.891600 -7.882800 -17.164500
C -5.852500 -8.562400 -22.520600
C -5.379800 -8.413800 -19.083300
C -5.373300 -8.967700 -23.751500
N -5.207700 -8.781200 -21.318600
C -4.102800 -9.114000 -19.376800
C -4.081700 -9.657600 -23.897800
C -4.064800 -9.304000 -20.785500
H -3.863700 -9.877800 -24.795900
C -3.147000 -10.037400 -22.999200
C -3.060400 -9.919900 -21.525900
C -3.020100 -9.617300 -18.659000
H -2.986600 -9.539700 -17.712800
H -2.394600 -10.465800 -23.391000
C -1.998800 -10.381800 -20.755100
C -1.985900 -10.238200 -19.360900
H -1.264100 -10.804800 -21.184100
H -1.244000 -10.577600 -18.874200
32
Fragment
H -12.517900 -6.565800 -14.290000
H -12.497800 -6.338600 -11.980100
C -11.776100 -6.905100 -13.803300
C -11.763200 -6.761600 -12.409000
H -11.367300 -6.677500 -9.773200
H -10.775300 -7.603700 -15.451400
C -10.741800 -7.526000 -14.505200
C -10.701600 -7.223400 -11.638300
C -10.615000 -7.105900 -10.165000
H -9.898200 -7.265500 -8.368300
C -9.697100 -7.839400 -12.378700
C -9.680200 -7.485800 -9.266400
C -9.659100 -8.029400 -13.787300
N -8.554200 -8.362200 -11.845600
C -8.388700 -8.175700 -9.412700
C -8.382100 -8.729600 -14.080900
C -7.909500 -8.581000 -10.643600
H -7.870300 -9.260600 -15.999700
C -7.807500 -8.881500 -12.831400
H -7.782500 -8.232900 -7.469900
C -7.592400 -9.288600 -15.091700
C -7.534400 -8.483200 -8.351900
C -6.699100 -9.267000 -10.904900
C -6.642300 -9.470900 -12.375900
C -6.375400 -9.892000 -14.727400
C -6.326700 -9.148300 -8.554400
C -5.893000 -9.545000 -9.810100
C -5.879700 -9.999500 -13.418900
H -5.844300 -10.256600 -15.425300
H -5.778600 -9.337400 -7.801900
H -5.064000 -9.995800 -9.918200
H -5.046600 -10.422500 -13.247100
64
Fragment
H -8.715300 -6.720900 -19.917100
H -8.698000 -7.147600 -23.245900
H -7.983400 -7.806000 -25.362300
H -7.917600 -6.886800 -17.738900
C -7.882200 -7.143800 -19.745300
C -7.869000 -7.598400 -23.354100
C -7.435300 -7.995000 -24.609800
C -7.386500 -7.251400 -18.436800
C -7.119600 -7.672400 -20.788300
C -7.062800 -7.876400 -22.259300
C -6.227500 -8.660200 -24.812300
C -6.169500 -7.854800 -18.072500
H -5.979500 -8.910500 -25.694300
C -5.954500 -8.261900 -20.332800
H -5.891600 -7.882800 -17.164500
C -5.852500 -8.562400 -22.520600
C -5.379800 -8.413800 -19.083300
C -5.373300 -8.967700 -23.751500
N -5.207700 -8.781200 -21.318600
C -4.102800 -9.114000 -19.376800
C -4.081700 -9.657600 -23.897800
C -4.064800 -9.304000 -20.785500
H -3.863700 -9.877800 -24.795900
C -3.147000 -10.037400 -22.999200
C -3.060400 -9.919900 -21.525900
C -3.020100 -9.617300 -18.659000
H -2.986600 -9.539700 -17.712800
H -2.394600 -10.465800 -23.391000
C -1.998800 -10.381800 -20.755100
C -1.985900 -10.238200 -19.360900
H -1.264100 -10.804800 -21.184100
H -1.244000 -10.577600 -18.874200
H -12.517900 -6.565800 -14.290000
H -12.497800 -6.338600 -11.980100
C -11.776100 -6.905100 -13.803300
C -11.763200 -6.761600 -12.409000
H -11.367300 -6.677500 -9.773200
H -10.775300 -7.603700 -15.451400
C -10.741800 -7.526000 -14.505200
C -10.701600 -7.223400 -11.638300
C -10.615000 -7.105900 -10.165000
H -9.898200 -7.265500 -8.368300
C -9.697100 -7.839400 -12.378700
C -9.680200 -7.485800 -9.266400
C -9.659100 -8.029400 -13.787300
N -8.554200 -8.362200 -11.845600
C -8.388700 -8.175700 -9.412700
C -8.382100 -8.729600 -14.080900
C -7.909500 -8.581000 -10.643600
H -7.870300 -9.260600 -15.999700
C -7.807500 -8.881500 -12.831400
H -7.782500 -8.232900 -7.469900
C -7.592400 -9.288600 -15.091700
C -7.534400 -8.483200 -8.351900
C -6.699100 -9.267000 -10.904900
C -6.642300 -9.470900 -12.375900
C -6.375400 -9.892000 -14.727400
C -6.326700 -9.148300 -8.554400
C -5.893000 -9.545000 -9.810100
C -5.879700 -9.999500 -13.418900
H -5.844300 -10.256600 -15.425300
H -5.778600 -9.337400 -7.801900
H -5.064000 -9.995800 -9.918200
H -5.046600 -10.422500 -13.247100
