32
Fragment
H -8.715300 -6.720900 -19.917100
H -8.698000 -7.147600 -23.245900
H -7.983400 -7.806000 -25.362300
H -7.917600 -6.886800 -17.738900
C -7.882200 -7.143800 -19.745300
C -7.869000 -7.598400 -23.354100
C -7.435300 -7.995000 -24.609800
C -7.386500 -7.251400 -18.436800
C -7.119600 -7.672400 -20.788300
C -7.062800 -7.876400 -22.259300
C -6.227500 -8.660200 -24.812300
C -6.169500 -7.854800 -18.072500
H -5.979500 -8.910500 -25.694300
C -5.954500 -8.261900 -20.332800
H -5.891600 -7.882800 -17.164500
C -5.852500 -8.562400 -22.520600
C -5.379800 -8.413800 -19.083300
C -5.373300 -8.967700 -23.751500
N -5.207700 -8.781200 -21.318600
C -4.102800 -9.114000 -19.376800
C -4.081700 -9.657600 -23.897800
C -4.064800 -9.304000 -20.785500
H -3.863700 -9.877800 -24.795900
C -3.147000 -10.037400 -22.999200
C -3.060400 -9.919900 -21.525900
C -3.020100 -9.617300 -18.659000
H -2.986600 -9.539700 -17.712800
H -2.394600 -10.465800 -23.391000
C -1.998800 -10.381800 -20.755100
C -1.985900 -10.238200 -19.360900
H -1.264100 -10.804800 -21.184100
H -1.244000 -10.577600 -18.874200
32
Fragment
H -9.106700 -11.228000 -30.872000
H -9.086600 -11.000800 -28.562200
C -8.364900 -11.567400 -30.385400
C -8.351900 -11.423900 -28.991100
H -7.956100 -11.339800 -26.355300
H -7.364100 -12.265900 -32.033500
C -7.330600 -12.188300 -31.087300
C -7.290400 -11.885700 -28.220400
C -7.203800 -11.768200 -26.747100
H -6.487000 -11.927800 -24.950400
C -6.285900 -12.501600 -28.960800
C -6.269000 -12.148000 -25.848500
C -6.247900 -12.691600 -30.369400
N -5.143000 -13.024400 -28.427700
C -4.977400 -12.837900 -25.994800
C -4.970900 -13.391800 -30.662900
C -4.498200 -13.243200 -27.225600
H -4.459100 -13.922800 -32.581800
C -4.396300 -13.543700 -29.413500
H -4.371200 -12.895200 -24.052000
C -4.181200 -13.950800 -31.673800
C -4.123200 -13.145400 -24.934000
C -3.287900 -13.929200 -27.487000
C -3.231100 -14.133200 -28.958000
C -2.964200 -14.554200 -31.309500
C -2.915400 -13.810600 -25.136500
C -2.481800 -14.207200 -26.392200
C -2.468500 -14.661800 -30.001000
H -2.433100 -14.918800 -32.007400
H -2.367400 -13.999600 -24.384000
H -1.652800 -14.658000 -26.500300
H -1.635400 -15.084700 -29.829200
64
Fragment
H -8.715300 -6.720900 -19.917100
H -8.698000 -7.147600 -23.245900
H -7.983400 -7.806000 -25.362300
H -7.917600 -6.886800 -17.738900
C -7.882200 -7.143800 -19.745300
C -7.869000 -7.598400 -23.354100
C -7.435300 -7.995000 -24.609800
C -7.386500 -7.251400 -18.436800
C -7.119600 -7.672400 -20.788300
C -7.062800 -7.876400 -22.259300
C -6.227500 -8.660200 -24.812300
C -6.169500 -7.854800 -18.072500
H -5.979500 -8.910500 -25.694300
C -5.954500 -8.261900 -20.332800
H -5.891600 -7.882800 -17.164500
C -5.852500 -8.562400 -22.520600
C -5.379800 -8.413800 -19.083300
C -5.373300 -8.967700 -23.751500
N -5.207700 -8.781200 -21.318600
C -4.102800 -9.114000 -19.376800
C -4.081700 -9.657600 -23.897800
C -4.064800 -9.304000 -20.785500
H -3.863700 -9.877800 -24.795900
C -3.147000 -10.037400 -22.999200
C -3.060400 -9.919900 -21.525900
C -3.020100 -9.617300 -18.659000
H -2.986600 -9.539700 -17.712800
H -2.394600 -10.465800 -23.391000
C -1.998800 -10.381800 -20.755100
C -1.985900 -10.238200 -19.360900
H -1.264100 -10.804800 -21.184100
H -1.244000 -10.577600 -18.874200
H -9.106700 -11.228000 -30.872000
H -9.086600 -11.000800 -28.562200
C -8.364900 -11.567400 -30.385400
C -8.351900 -11.423900 -28.991100
H -7.956100 -11.339800 -26.355300
H -7.364100 -12.265900 -32.033500
C -7.330600 -12.188300 -31.087300
C -7.290400 -11.885700 -28.220400
C -7.203800 -11.768200 -26.747100
H -6.487000 -11.927800 -24.950400
C -6.285900 -12.501600 -28.960800
C -6.269000 -12.148000 -25.848500
C -6.247900 -12.691600 -30.369400
N -5.143000 -13.024400 -28.427700
C -4.977400 -12.837900 -25.994800
C -4.970900 -13.391800 -30.662900
C -4.498200 -13.243200 -27.225600
H -4.459100 -13.922800 -32.581800
C -4.396300 -13.543700 -29.413500
H -4.371200 -12.895200 -24.052000
C -4.181200 -13.950800 -31.673800
C -4.123200 -13.145400 -24.934000
C -3.287900 -13.929200 -27.487000
C -3.231100 -14.133200 -28.958000
C -2.964200 -14.554200 -31.309500
C -2.915400 -13.810600 -25.136500
C -2.481800 -14.207200 -26.392200
C -2.468500 -14.661800 -30.001000
H -2.433100 -14.918800 -32.007400
H -2.367400 -13.999600 -24.384000
H -1.652800 -14.658000 -26.500300
H -1.635400 -15.084700 -29.829200
