32
Fragment
H -8.715300 -6.720900 -19.917100
H -8.698000 -7.147600 -23.245900
H -7.983400 -7.806000 -25.362300
H -7.917600 -6.886800 -17.738900
C -7.882200 -7.143800 -19.745300
C -7.869000 -7.598400 -23.354100
C -7.435300 -7.995000 -24.609800
C -7.386500 -7.251400 -18.436800
C -7.119600 -7.672400 -20.788300
C -7.062800 -7.876400 -22.259300
C -6.227500 -8.660200 -24.812300
C -6.169500 -7.854800 -18.072500
H -5.979500 -8.910500 -25.694300
C -5.954500 -8.261900 -20.332800
H -5.891600 -7.882800 -17.164500
C -5.852500 -8.562400 -22.520600
C -5.379800 -8.413800 -19.083300
C -5.373300 -8.967700 -23.751500
N -5.207700 -8.781200 -21.318600
C -4.102800 -9.114000 -19.376800
C -4.081700 -9.657600 -23.897800
C -4.064800 -9.304000 -20.785500
H -3.863700 -9.877800 -24.795900
C -3.147000 -10.037400 -22.999200
C -3.060400 -9.919900 -21.525900
C -3.020100 -9.617300 -18.659000
H -2.986600 -9.539700 -17.712800
H -2.394600 -10.465800 -23.391000
C -1.998800 -10.381800 -20.755100
C -1.985900 -10.238200 -19.360900
H -1.264100 -10.804800 -21.184100
H -1.244000 -10.577600 -18.874200
32
Fragment
H -10.211700 -3.409100 -30.872000
H -10.191600 -3.181900 -28.562200
C -9.469900 -3.748500 -30.385400
C -9.456900 -3.604900 -28.991100
H -9.061100 -3.520900 -26.355300
H -8.469100 -4.447000 -32.033500
C -8.435600 -4.369400 -31.087300
C -8.395400 -4.066800 -28.220400
C -8.308800 -3.949300 -26.747100
H -7.592000 -4.108900 -24.950400
C -7.390900 -4.682700 -28.960800
C -7.374000 -4.329100 -25.848500
C -7.352900 -4.872700 -30.369400
N -6.248000 -5.205500 -28.427700
C -6.082400 -5.019000 -25.994800
C -6.075900 -5.572900 -30.662900
C -5.603200 -5.424300 -27.225600
H -5.564100 -6.103900 -32.581800
C -5.501300 -5.724800 -29.413500
H -5.476200 -5.076300 -24.052000
C -5.286200 -6.131900 -31.673800
C -5.228200 -5.326500 -24.934000
C -4.392900 -6.110300 -27.487000
C -4.336100 -6.314300 -28.958000
C -4.069200 -6.735300 -31.309500
C -4.020400 -5.991700 -25.136500
C -3.586800 -6.388300 -26.392200
C -3.573500 -6.842900 -30.001000
H -3.538100 -7.099900 -32.007400
H -3.472300 -6.180700 -24.384000
H -2.757800 -6.839100 -26.500300
H -2.740400 -7.265800 -29.829200
64
Fragment
H -8.715300 -6.720900 -19.917100
H -8.698000 -7.147600 -23.245900
H -7.983400 -7.806000 -25.362300
H -7.917600 -6.886800 -17.738900
C -7.882200 -7.143800 -19.745300
C -7.869000 -7.598400 -23.354100
C -7.435300 -7.995000 -24.609800
C -7.386500 -7.251400 -18.436800
C -7.119600 -7.672400 -20.788300
C -7.062800 -7.876400 -22.259300
C -6.227500 -8.660200 -24.812300
C -6.169500 -7.854800 -18.072500
H -5.979500 -8.910500 -25.694300
C -5.954500 -8.261900 -20.332800
H -5.891600 -7.882800 -17.164500
C -5.852500 -8.562400 -22.520600
C -5.379800 -8.413800 -19.083300
C -5.373300 -8.967700 -23.751500
N -5.207700 -8.781200 -21.318600
C -4.102800 -9.114000 -19.376800
C -4.081700 -9.657600 -23.897800
C -4.064800 -9.304000 -20.785500
H -3.863700 -9.877800 -24.795900
C -3.147000 -10.037400 -22.999200
C -3.060400 -9.919900 -21.525900
C -3.020100 -9.617300 -18.659000
H -2.986600 -9.539700 -17.712800
H -2.394600 -10.465800 -23.391000
C -1.998800 -10.381800 -20.755100
C -1.985900 -10.238200 -19.360900
H -1.264100 -10.804800 -21.184100
H -1.244000 -10.577600 -18.874200
H -10.211700 -3.409100 -30.872000
H -10.191600 -3.181900 -28.562200
C -9.469900 -3.748500 -30.385400
C -9.456900 -3.604900 -28.991100
H -9.061100 -3.520900 -26.355300
H -8.469100 -4.447000 -32.033500
C -8.435600 -4.369400 -31.087300
C -8.395400 -4.066800 -28.220400
C -8.308800 -3.949300 -26.747100
H -7.592000 -4.108900 -24.950400
C -7.390900 -4.682700 -28.960800
C -7.374000 -4.329100 -25.848500
C -7.352900 -4.872700 -30.369400
N -6.248000 -5.205500 -28.427700
C -6.082400 -5.019000 -25.994800
C -6.075900 -5.572900 -30.662900
C -5.603200 -5.424300 -27.225600
H -5.564100 -6.103900 -32.581800
C -5.501300 -5.724800 -29.413500
H -5.476200 -5.076300 -24.052000
C -5.286200 -6.131900 -31.673800
C -5.228200 -5.326500 -24.934000
C -4.392900 -6.110300 -27.487000
C -4.336100 -6.314300 -28.958000
C -4.069200 -6.735300 -31.309500
C -4.020400 -5.991700 -25.136500
C -3.586800 -6.388300 -26.392200
C -3.573500 -6.842900 -30.001000
H -3.538100 -7.099900 -32.007400
H -3.472300 -6.180700 -24.384000
H -2.757800 -6.839100 -26.500300
H -2.740400 -7.265800 -29.829200
