32
Fragment
H -8.715300 -6.720900 -19.917100
H -8.698000 -7.147600 -23.245900
H -7.983400 -7.806000 -25.362300
H -7.917600 -6.886800 -17.738900
C -7.882200 -7.143800 -19.745300
C -7.869000 -7.598400 -23.354100
C -7.435300 -7.995000 -24.609800
C -7.386500 -7.251400 -18.436800
C -7.119600 -7.672400 -20.788300
C -7.062800 -7.876400 -22.259300
C -6.227500 -8.660200 -24.812300
C -6.169500 -7.854800 -18.072500
H -5.979500 -8.910500 -25.694300
C -5.954500 -8.261900 -20.332800
H -5.891600 -7.882800 -17.164500
C -5.852500 -8.562400 -22.520600
C -5.379800 -8.413800 -19.083300
C -5.373300 -8.967700 -23.751500
N -5.207700 -8.781200 -21.318600
C -4.102800 -9.114000 -19.376800
C -4.081700 -9.657600 -23.897800
C -4.064800 -9.304000 -20.785500
H -3.863700 -9.877800 -24.795900
C -3.147000 -10.037400 -22.999200
C -3.060400 -9.919900 -21.525900
C -3.020100 -9.617300 -18.659000
H -2.986600 -9.539700 -17.712800
H -2.394600 -10.465800 -23.391000
C -1.998800 -10.381800 -20.755100
C -1.985900 -10.238200 -19.360900
H -1.264100 -10.804800 -21.184100
H -1.244000 -10.577600 -18.874200
10
Fragment
N -14.577600 -4.061400 -21.808600
N -14.530200 -3.618200 -17.819600
C -13.725700 -4.447800 -21.158600
C -13.660700 -4.149900 -18.332800
C -12.624100 -4.936200 -20.375600
C -12.582600 -4.806200 -19.033400
C -11.561300 -5.587700 -21.093300
C -11.467300 -5.321100 -18.279600
N -10.733300 -6.107000 -21.679900
N -10.575900 -5.745500 -17.713700
42
Fragment
H -8.715300 -6.720900 -19.917100
H -8.698000 -7.147600 -23.245900
H -7.983400 -7.806000 -25.362300
H -7.917600 -6.886800 -17.738900
C -7.882200 -7.143800 -19.745300
C -7.869000 -7.598400 -23.354100
C -7.435300 -7.995000 -24.609800
C -7.386500 -7.251400 -18.436800
C -7.119600 -7.672400 -20.788300
C -7.062800 -7.876400 -22.259300
C -6.227500 -8.660200 -24.812300
C -6.169500 -7.854800 -18.072500
H -5.979500 -8.910500 -25.694300
C -5.954500 -8.261900 -20.332800
H -5.891600 -7.882800 -17.164500
C -5.852500 -8.562400 -22.520600
C -5.379800 -8.413800 -19.083300
C -5.373300 -8.967700 -23.751500
N -5.207700 -8.781200 -21.318600
C -4.102800 -9.114000 -19.376800
C -4.081700 -9.657600 -23.897800
C -4.064800 -9.304000 -20.785500
H -3.863700 -9.877800 -24.795900
C -3.147000 -10.037400 -22.999200
C -3.060400 -9.919900 -21.525900
C -3.020100 -9.617300 -18.659000
H -2.986600 -9.539700 -17.712800
H -2.394600 -10.465800 -23.391000
C -1.998800 -10.381800 -20.755100
C -1.985900 -10.238200 -19.360900
H -1.264100 -10.804800 -21.184100
H -1.244000 -10.577600 -18.874200
N -14.577600 -4.061400 -21.808600
N -14.530200 -3.618200 -17.819600
C -13.725700 -4.447800 -21.158600
C -13.660700 -4.149900 -18.332800
C -12.624100 -4.936200 -20.375600
C -12.582600 -4.806200 -19.033400
C -11.561300 -5.587700 -21.093300
C -11.467300 -5.321100 -18.279600
N -10.733300 -6.107000 -21.679900
N -10.575900 -5.745500 -17.713700
