20
Fragment
N -16.101100 -14.209500 -24.109900
C -15.013100 -14.510700 -24.287800
F -14.879000 -14.669800 -26.892300
C -13.635200 -14.897900 -24.359300
F -13.585800 -15.088300 -29.140300
C -13.582500 -15.013600 -26.829800
C -13.048100 -15.014600 -23.049600
C -12.967300 -15.129400 -25.540500
C -12.929300 -15.227700 -27.978200
N -12.695900 -15.073000 -21.961200
N -11.812400 -15.656900 -31.625900
C -11.579000 -15.502200 -25.608900
C -11.540900 -15.600500 -28.046600
C -11.460200 -15.715300 -30.537500
C -10.925700 -15.716300 -26.757300
F -10.922500 -15.641600 -24.446800
C -10.873100 -15.832000 -29.227800
F -9.629300 -16.060100 -26.694800
C -9.495200 -16.219200 -29.299300
N -8.407200 -16.520400 -29.477200
32
Fragment
H -16.278700 -10.892900 -27.607700
H -15.810400 -10.891300 -25.330800
C -15.402900 -11.137500 -27.333000
C -15.142300 -11.144700 -25.957600
H -14.717200 -11.404300 -29.263900
C -14.478000 -11.462300 -28.345800
C -13.870500 -11.535000 -25.535000
H -13.850900 -11.044500 -22.598200
C -13.193300 -11.875100 -27.958400
C -13.067700 -11.917100 -26.588800
C -13.041900 -11.353700 -22.987100
C -12.977700 -11.636400 -24.352800
H -11.961800 -11.331300 -21.282300
C -11.913500 -11.528800 -22.210100
C -11.844100 -12.230500 -28.455100
N -11.818900 -12.272500 -26.191900
C -11.716300 -12.077900 -24.827300
H -11.679300 -12.250000 -30.503900
C -11.200600 -12.365700 -29.691400
C -11.026600 -12.436400 -27.303200
C -10.699700 -11.986700 -22.740900
C -10.557900 -12.270400 -24.092000
H -9.955700 -12.105300 -22.161800
C -9.847600 -12.672000 -29.701700
C -9.680000 -12.750900 -27.274400
H -9.409600 -12.754300 -30.540500
C -9.301000 -12.720100 -24.713100
C -9.101000 -12.864600 -28.542100
C -8.947300 -12.915800 -26.013000
H -8.607400 -12.907700 -24.091300
H -8.177800 -13.078300 -28.614100
H -8.053600 -13.216500 -26.124800
52
Fragment
N -16.101100 -14.209500 -24.109900
C -15.013100 -14.510700 -24.287800
F -14.879000 -14.669800 -26.892300
C -13.635200 -14.897900 -24.359300
F -13.585800 -15.088300 -29.140300
C -13.582500 -15.013600 -26.829800
C -13.048100 -15.014600 -23.049600
C -12.967300 -15.129400 -25.540500
C -12.929300 -15.227700 -27.978200
N -12.695900 -15.073000 -21.961200
N -11.812400 -15.656900 -31.625900
C -11.579000 -15.502200 -25.608900
C -11.540900 -15.600500 -28.046600
C -11.460200 -15.715300 -30.537500
C -10.925700 -15.716300 -26.757300
F -10.922500 -15.641600 -24.446800
C -10.873100 -15.832000 -29.227800
F -9.629300 -16.060100 -26.694800
C -9.495200 -16.219200 -29.299300
N -8.407200 -16.520400 -29.477200
H -16.278700 -10.892900 -27.607700
H -15.810400 -10.891300 -25.330800
C -15.402900 -11.137500 -27.333000
C -15.142300 -11.144700 -25.957600
H -14.717200 -11.404300 -29.263900
C -14.478000 -11.462300 -28.345800
C -13.870500 -11.535000 -25.535000
H -13.850900 -11.044500 -22.598200
C -13.193300 -11.875100 -27.958400
C -13.067700 -11.917100 -26.588800
C -13.041900 -11.353700 -22.987100
C -12.977700 -11.636400 -24.352800
H -11.961800 -11.331300 -21.282300
C -11.913500 -11.528800 -22.210100
C -11.844100 -12.230500 -28.455100
N -11.818900 -12.272500 -26.191900
C -11.716300 -12.077900 -24.827300
H -11.679300 -12.250000 -30.503900
C -11.200600 -12.365700 -29.691400
C -11.026600 -12.436400 -27.303200
C -10.699700 -11.986700 -22.740900
C -10.557900 -12.270400 -24.092000
H -9.955700 -12.105300 -22.161800
C -9.847600 -12.672000 -29.701700
C -9.680000 -12.750900 -27.274400
H -9.409600 -12.754300 -30.540500
C -9.301000 -12.720100 -24.713100
C -9.101000 -12.864600 -28.542100
C -8.947300 -12.915800 -26.013000
H -8.607400 -12.907700 -24.091300
H -8.177800 -13.078300 -28.614100
H -8.053600 -13.216500 -26.124800
