20
Fragment
N -16.101100 -14.209500 -24.109900
C -15.013100 -14.510700 -24.287800
F -14.879000 -14.669800 -26.892300
C -13.635200 -14.897900 -24.359300
F -13.585800 -15.088300 -29.140300
C -13.582500 -15.013600 -26.829800
C -13.048100 -15.014600 -23.049600
C -12.967300 -15.129400 -25.540500
C -12.929300 -15.227700 -27.978200
N -12.695900 -15.073000 -21.961200
N -11.812400 -15.656900 -31.625900
C -11.579000 -15.502200 -25.608900
C -11.540900 -15.600500 -28.046600
C -11.460200 -15.715300 -30.537500
C -10.925700 -15.716300 -26.757300
F -10.922500 -15.641600 -24.446800
C -10.873100 -15.832000 -29.227800
F -9.629300 -16.060100 -26.694800
C -9.495200 -16.219200 -29.299300
N -8.407200 -16.520400 -29.477200
32
Fragment
H -22.118200 -18.338200 -18.531100
H -21.994000 -18.200000 -16.041800
H -21.564300 -18.029300 -20.564600
C -21.224400 -18.037400 -18.643000
C -21.070700 -17.986200 -16.113800
C -20.870700 -17.841800 -19.942800
H -20.762200 -17.876000 -14.115400
C -20.491700 -17.872500 -17.381500
C -20.324100 -17.793600 -14.954200
H -20.216100 -17.227000 -22.494100
C -19.613900 -17.392100 -20.563900
C -19.472000 -17.108400 -21.915000
C -19.145100 -17.558000 -17.352800
C -18.971200 -17.487400 -14.964600
H -18.492500 -17.371600 -14.152000
C -18.455400 -17.199500 -19.828700
N -18.352800 -17.394100 -18.464000
C -18.327700 -17.352200 -16.200800
C -18.258200 -16.650500 -22.445800
H -18.210000 -16.453000 -23.373600
C -17.194000 -16.758000 -20.303100
C -17.129800 -16.475300 -21.668800
C -17.104100 -17.038700 -18.067100
C -16.978500 -16.996700 -16.697600
H -16.320900 -16.166200 -22.057700
C -16.301300 -16.656600 -19.120900
C -15.693800 -16.583900 -16.310100
H -15.454500 -16.525900 -15.392000
C -15.029400 -16.266400 -18.698300
C -14.768900 -16.259200 -17.322900
H -14.361400 -16.012900 -19.325100
H -13.893100 -16.014600 -17.048200
52
Fragment
N -16.101100 -14.209500 -24.109900
C -15.013100 -14.510700 -24.287800
F -14.879000 -14.669800 -26.892300
C -13.635200 -14.897900 -24.359300
F -13.585800 -15.088300 -29.140300
C -13.582500 -15.013600 -26.829800
C -13.048100 -15.014600 -23.049600
C -12.967300 -15.129400 -25.540500
C -12.929300 -15.227700 -27.978200
N -12.695900 -15.073000 -21.961200
N -11.812400 -15.656900 -31.625900
C -11.579000 -15.502200 -25.608900
C -11.540900 -15.600500 -28.046600
C -11.460200 -15.715300 -30.537500
C -10.925700 -15.716300 -26.757300
F -10.922500 -15.641600 -24.446800
C -10.873100 -15.832000 -29.227800
F -9.629300 -16.060100 -26.694800
C -9.495200 -16.219200 -29.299300
N -8.407200 -16.520400 -29.477200
H -22.118200 -18.338200 -18.531100
H -21.994000 -18.200000 -16.041800
H -21.564300 -18.029300 -20.564600
C -21.224400 -18.037400 -18.643000
C -21.070700 -17.986200 -16.113800
C -20.870700 -17.841800 -19.942800
H -20.762200 -17.876000 -14.115400
C -20.491700 -17.872500 -17.381500
C -20.324100 -17.793600 -14.954200
H -20.216100 -17.227000 -22.494100
C -19.613900 -17.392100 -20.563900
C -19.472000 -17.108400 -21.915000
C -19.145100 -17.558000 -17.352800
C -18.971200 -17.487400 -14.964600
H -18.492500 -17.371600 -14.152000
C -18.455400 -17.199500 -19.828700
N -18.352800 -17.394100 -18.464000
C -18.327700 -17.352200 -16.200800
C -18.258200 -16.650500 -22.445800
H -18.210000 -16.453000 -23.373600
C -17.194000 -16.758000 -20.303100
C -17.129800 -16.475300 -21.668800
C -17.104100 -17.038700 -18.067100
C -16.978500 -16.996700 -16.697600
H -16.320900 -16.166200 -22.057700
C -16.301300 -16.656600 -19.120900
C -15.693800 -16.583900 -16.310100
H -15.454500 -16.525900 -15.392000
C -15.029400 -16.266400 -18.698300
C -14.768900 -16.259200 -17.322900
H -14.361400 -16.012900 -19.325100
H -13.893100 -16.014600 -17.048200
