20
Fragment
N -16.101100 -14.209500 -24.109900
C -15.013100 -14.510700 -24.287800
F -14.879000 -14.669800 -26.892300
C -13.635200 -14.897900 -24.359300
F -13.585800 -15.088300 -29.140300
C -13.582500 -15.013600 -26.829800
C -13.048100 -15.014600 -23.049600
C -12.967300 -15.129400 -25.540500
C -12.929300 -15.227700 -27.978200
N -12.695900 -15.073000 -21.961200
N -11.812400 -15.656900 -31.625900
C -11.579000 -15.502200 -25.608900
C -11.540900 -15.600500 -28.046600
C -11.460200 -15.715300 -30.537500
C -10.925700 -15.716300 -26.757300
F -10.922500 -15.641600 -24.446800
C -10.873100 -15.832000 -29.227800
F -9.629300 -16.060100 -26.694800
C -9.495200 -16.219200 -29.299300
N -8.407200 -16.520400 -29.477200
32
Fragment
H -21.942100 -14.715300 -18.676500
H -21.473900 -14.717000 -16.399600
C -21.066400 -14.470700 -18.401800
C -20.805800 -14.463500 -17.026400
H -20.380700 -14.204000 -20.332700
C -20.141400 -14.146000 -19.414600
C -19.534000 -14.073300 -16.603800
H -19.514400 -14.563700 -13.667000
C -18.856800 -13.733200 -19.027200
C -18.731200 -13.691200 -17.657700
C -18.705400 -14.254600 -14.055900
C -18.641200 -13.971900 -15.421700
H -17.625300 -14.276900 -12.351100
C -17.577000 -14.079400 -13.278900
C -17.507600 -13.377700 -19.523900
N -17.482400 -13.335800 -17.260800
C -17.379800 -13.530400 -15.896100
H -17.342800 -13.358300 -21.572700
C -16.864100 -13.242500 -20.760200
C -16.690100 -13.171900 -18.372000
C -16.363200 -13.621500 -13.809800
C -16.221400 -13.337800 -15.160900
H -15.619100 -13.502900 -13.230700
C -15.511100 -12.936300 -20.770500
C -15.343500 -12.857400 -18.343200
H -15.073100 -12.853900 -21.609400
C -14.964500 -12.888100 -15.781900
C -14.764500 -12.743700 -19.610900
C -14.610800 -12.692500 -17.081800
H -14.270900 -12.700600 -15.160100
H -13.841300 -12.529900 -19.682900
H -13.717100 -12.391700 -17.193600
52
Fragment
N -16.101100 -14.209500 -24.109900
C -15.013100 -14.510700 -24.287800
F -14.879000 -14.669800 -26.892300
C -13.635200 -14.897900 -24.359300
F -13.585800 -15.088300 -29.140300
C -13.582500 -15.013600 -26.829800
C -13.048100 -15.014600 -23.049600
C -12.967300 -15.129400 -25.540500
C -12.929300 -15.227700 -27.978200
N -12.695900 -15.073000 -21.961200
N -11.812400 -15.656900 -31.625900
C -11.579000 -15.502200 -25.608900
C -11.540900 -15.600500 -28.046600
C -11.460200 -15.715300 -30.537500
C -10.925700 -15.716300 -26.757300
F -10.922500 -15.641600 -24.446800
C -10.873100 -15.832000 -29.227800
F -9.629300 -16.060100 -26.694800
C -9.495200 -16.219200 -29.299300
N -8.407200 -16.520400 -29.477200
H -21.942100 -14.715300 -18.676500
H -21.473900 -14.717000 -16.399600
C -21.066400 -14.470700 -18.401800
C -20.805800 -14.463500 -17.026400
H -20.380700 -14.204000 -20.332700
C -20.141400 -14.146000 -19.414600
C -19.534000 -14.073300 -16.603800
H -19.514400 -14.563700 -13.667000
C -18.856800 -13.733200 -19.027200
C -18.731200 -13.691200 -17.657700
C -18.705400 -14.254600 -14.055900
C -18.641200 -13.971900 -15.421700
H -17.625300 -14.276900 -12.351100
C -17.577000 -14.079400 -13.278900
C -17.507600 -13.377700 -19.523900
N -17.482400 -13.335800 -17.260800
C -17.379800 -13.530400 -15.896100
H -17.342800 -13.358300 -21.572700
C -16.864100 -13.242500 -20.760200
C -16.690100 -13.171900 -18.372000
C -16.363200 -13.621500 -13.809800
C -16.221400 -13.337800 -15.160900
H -15.619100 -13.502900 -13.230700
C -15.511100 -12.936300 -20.770500
C -15.343500 -12.857400 -18.343200
H -15.073100 -12.853900 -21.609400
C -14.964500 -12.888100 -15.781900
C -14.764500 -12.743700 -19.610900
C -14.610800 -12.692500 -17.081800
H -14.270900 -12.700600 -15.160100
H -13.841300 -12.529900 -19.682900
H -13.717100 -12.391700 -17.193600
