3
Fragment
H -5.612400 -24.255900 -16.693200
H -5.552800 -23.315700 -15.746400
O -5.090600 -23.866200 -16.181700
14
Fragment
H -9.937400 -17.007600 -14.941100
H -9.842400 -16.859000 -12.535100
N -9.556100 -17.584500 -14.379000
C -9.476000 -17.533600 -13.059600
N -8.922000 -18.701100 -14.838200
N -8.803600 -18.573100 -12.585200
C -8.496600 -19.225900 -13.716900
N -7.750200 -20.415900 -13.702100
H -7.475000 -20.945400 -15.649600
H -7.429200 -20.812700 -11.728700
C -7.313100 -21.152600 -14.757200
C -7.289500 -21.081300 -12.609100
N -6.640100 -22.182900 -14.350200
N -6.631200 -22.136400 -12.959500
17
Fragment
H -5.612400 -24.255900 -16.693200
H -5.552800 -23.315700 -15.746400
O -5.090600 -23.866200 -16.181700
H -9.937400 -17.007600 -14.941100
H -9.842400 -16.859000 -12.535100
N -9.556100 -17.584500 -14.379000
C -9.476000 -17.533600 -13.059600
N -8.922000 -18.701100 -14.838200
N -8.803600 -18.573100 -12.585200
C -8.496600 -19.225900 -13.716900
N -7.750200 -20.415900 -13.702100
H -7.475000 -20.945400 -15.649600
H -7.429200 -20.812700 -11.728700
C -7.313100 -21.152600 -14.757200
C -7.289500 -21.081300 -12.609100
N -6.640100 -22.182900 -14.350200
N -6.631200 -22.136400 -12.959500
