3
Fragment
H -5.612400 -24.255900 -16.693200
H -5.552800 -23.315700 -15.746400
O -5.090600 -23.866200 -16.181700
14
Fragment
H -5.896200 -30.398100 -20.382200
H -5.801200 -30.546700 -17.976200
N -5.514900 -29.821200 -19.820000
C -5.434900 -29.872100 -18.500700
N -4.880800 -28.704600 -20.279300
N -4.762500 -28.832600 -18.026200
C -4.455400 -28.179800 -19.158000
N -3.709000 -26.989800 -19.143200
H -3.433800 -26.460300 -21.090600
H -3.388000 -26.593000 -17.169800
C -3.271900 -26.253100 -20.198300
C -3.248300 -26.324400 -18.050200
N -2.599000 -25.222800 -19.791300
N -2.590000 -25.269300 -18.400600
17
Fragment
H -5.612400 -24.255900 -16.693200
H -5.552800 -23.315700 -15.746400
O -5.090600 -23.866200 -16.181700
H -5.896200 -30.398100 -20.382200
H -5.801200 -30.546700 -17.976200
N -5.514900 -29.821200 -19.820000
C -5.434900 -29.872100 -18.500700
N -4.880800 -28.704600 -20.279300
N -4.762500 -28.832600 -18.026200
C -4.455400 -28.179800 -19.158000
N -3.709000 -26.989800 -19.143200
H -3.433800 -26.460300 -21.090600
H -3.388000 -26.593000 -17.169800
C -3.271900 -26.253100 -20.198300
C -3.248300 -26.324400 -18.050200
N -2.599000 -25.222800 -19.791300
N -2.590000 -25.269300 -18.400600
