49
Fragment
H -18.676300 -30.930200 -25.002200
H -18.030400 -28.873500 -24.125200
C -17.765600 -30.767400 -24.783400
C -17.376400 -29.546100 -24.269800
F -17.209800 -32.946500 -25.454700
H -17.190200 -27.664600 -22.167100
C -16.828100 -31.736100 -24.972600
H -16.627700 -25.541400 -21.460700
C -16.401200 -27.263200 -22.512000
C -16.060600 -25.992400 -22.076300
C -16.039900 -29.281100 -23.960200
C -15.640100 -27.970000 -23.426200
C -15.488900 -31.526800 -24.661100
C -15.102100 -30.285400 -24.179000
C -14.923400 -25.377100 -22.517600
H -14.680400 -24.506100 -22.224600
C -14.440100 -27.337600 -23.871200
Cl -14.342600 -32.800000 -24.855000
H -14.185000 -30.118000 -23.997300
N -14.148500 -26.085400 -23.409500
N -13.524000 -27.708000 -24.777900
N -13.015200 -25.594100 -24.010200
C -12.721100 -26.626300 -24.844600
H -12.402600 -24.892000 -27.546200
N -11.659300 -26.567400 -25.695700
H -11.539700 -22.754800 -27.216200
C -11.419700 -24.836200 -27.442400
H -11.365000 -24.599100 -25.386100
H -11.345100 -27.309700 -26.049900
C -11.032200 -25.285600 -26.033200
H -11.009500 -23.187200 -28.669900
H -11.004500 -25.440600 -28.106200
C -10.956500 -23.391700 -27.702000
H -9.900700 -20.130900 -26.602400
H -9.766900 -21.135200 -28.805200
H -9.583300 -19.092500 -27.779900
C -9.551700 -23.258400 -27.229200
C -9.513300 -25.387900 -25.873700
H -9.281500 -25.502600 -24.918800
C -9.239700 -19.858100 -27.273700
H -9.175000 -26.173700 -26.372500
C -8.977900 -21.011200 -28.221200
C -8.878000 -24.135700 -26.407700
N -8.708100 -22.243300 -27.516600
H -8.404400 -19.607000 -26.826800
H -8.204300 -20.788000 -28.796000
C -7.600000 -23.562200 -26.222300
N -7.495800 -22.407600 -26.901000
H -6.909200 -23.940400 -25.692000
49
Fragment
H -20.519800 -26.937800 -20.144200
H -19.913000 -25.171000 -18.729400
C -19.575700 -26.680500 -20.088600
H -19.550800 -26.567400 -18.034100
H -19.356000 -26.083800 -20.835800
C -19.326300 -25.966000 -18.786900
H -19.014000 -27.481800 -20.134900
H -18.847200 -22.919000 -18.740600
H -18.549500 -23.238300 -20.285100
C -18.130500 -23.105000 -19.396900
N -17.922400 -25.546000 -18.675700
H -17.572100 -21.178600 -19.964300
C -17.392800 -24.332500 -19.002000
C -17.158400 -21.919400 -19.454400
H -16.976300 -21.597000 -18.536600
N -16.974400 -26.466600 -18.397500
H -16.045900 -22.756300 -21.008300
C -16.007500 -24.482800 -18.926000
C -15.826500 -22.328500 -20.131200
C -15.820400 -25.815700 -18.545900
H -15.324900 -20.364900 -20.064500
C -15.078100 -23.356100 -19.283800
N -15.053400 -21.132100 -20.400100
H -14.967300 -26.212400 -18.408700
H -14.738000 -22.926800 -18.458700
H -14.304000 -23.707900 -19.791900
C -13.925200 -21.156900 -21.154700
N -13.555500 -22.258800 -21.846400
N -13.121800 -20.067300 -21.273400
H -12.494600 -17.761200 -22.029900
Cl -12.463700 -15.053000 -21.298100
N -12.390100 -21.806200 -22.439700
C -12.134200 -20.510600 -22.083700
H -11.770000 -23.487800 -23.396500
C -11.578600 -17.533300 -21.916800
C -11.555900 -22.585800 -23.188800
C -11.242100 -16.260900 -21.546000
C -10.922000 -19.889100 -22.521300
C -10.588300 -18.515900 -22.133800
C -10.399700 -22.007700 -23.628300
C -10.089800 -20.682600 -23.300100
C -9.897900 -15.918400 -21.353100
H -9.797800 -22.511400 -24.162300
F -9.578500 -14.673900 -20.973000
H -9.276900 -20.310700 -23.622700
C -9.248800 -18.147100 -21.935400
C -8.907800 -16.865400 -21.559000
H -8.564200 -18.793400 -22.063300
H -7.994300 -16.631300 -21.440300
98
Fragment
H -18.676300 -30.930200 -25.002200
H -18.030400 -28.873500 -24.125200
C -17.765600 -30.767400 -24.783400
C -17.376400 -29.546100 -24.269800
F -17.209800 -32.946500 -25.454700
H -17.190200 -27.664600 -22.167100
C -16.828100 -31.736100 -24.972600
H -16.627700 -25.541400 -21.460700
C -16.401200 -27.263200 -22.512000
C -16.060600 -25.992400 -22.076300
C -16.039900 -29.281100 -23.960200
C -15.640100 -27.970000 -23.426200
C -15.488900 -31.526800 -24.661100
C -15.102100 -30.285400 -24.179000
C -14.923400 -25.377100 -22.517600
H -14.680400 -24.506100 -22.224600
C -14.440100 -27.337600 -23.871200
Cl -14.342600 -32.800000 -24.855000
H -14.185000 -30.118000 -23.997300
N -14.148500 -26.085400 -23.409500
N -13.524000 -27.708000 -24.777900
N -13.015200 -25.594100 -24.010200
C -12.721100 -26.626300 -24.844600
H -12.402600 -24.892000 -27.546200
N -11.659300 -26.567400 -25.695700
H -11.539700 -22.754800 -27.216200
C -11.419700 -24.836200 -27.442400
H -11.365000 -24.599100 -25.386100
H -11.345100 -27.309700 -26.049900
C -11.032200 -25.285600 -26.033200
H -11.009500 -23.187200 -28.669900
H -11.004500 -25.440600 -28.106200
C -10.956500 -23.391700 -27.702000
H -9.900700 -20.130900 -26.602400
H -9.766900 -21.135200 -28.805200
H -9.583300 -19.092500 -27.779900
C -9.551700 -23.258400 -27.229200
C -9.513300 -25.387900 -25.873700
H -9.281500 -25.502600 -24.918800
C -9.239700 -19.858100 -27.273700
H -9.175000 -26.173700 -26.372500
C -8.977900 -21.011200 -28.221200
C -8.878000 -24.135700 -26.407700
N -8.708100 -22.243300 -27.516600
H -8.404400 -19.607000 -26.826800
H -8.204300 -20.788000 -28.796000
C -7.600000 -23.562200 -26.222300
N -7.495800 -22.407600 -26.901000
H -6.909200 -23.940400 -25.692000
H -20.519800 -26.937800 -20.144200
H -19.913000 -25.171000 -18.729400
C -19.575700 -26.680500 -20.088600
H -19.550800 -26.567400 -18.034100
H -19.356000 -26.083800 -20.835800
C -19.326300 -25.966000 -18.786900
H -19.014000 -27.481800 -20.134900
H -18.847200 -22.919000 -18.740600
H -18.549500 -23.238300 -20.285100
C -18.130500 -23.105000 -19.396900
N -17.922400 -25.546000 -18.675700
H -17.572100 -21.178600 -19.964300
C -17.392800 -24.332500 -19.002000
C -17.158400 -21.919400 -19.454400
H -16.976300 -21.597000 -18.536600
N -16.974400 -26.466600 -18.397500
H -16.045900 -22.756300 -21.008300
C -16.007500 -24.482800 -18.926000
C -15.826500 -22.328500 -20.131200
C -15.820400 -25.815700 -18.545900
H -15.324900 -20.364900 -20.064500
C -15.078100 -23.356100 -19.283800
N -15.053400 -21.132100 -20.400100
H -14.967300 -26.212400 -18.408700
H -14.738000 -22.926800 -18.458700
H -14.304000 -23.707900 -19.791900
C -13.925200 -21.156900 -21.154700
N -13.555500 -22.258800 -21.846400
N -13.121800 -20.067300 -21.273400
H -12.494600 -17.761200 -22.029900
Cl -12.463700 -15.053000 -21.298100
N -12.390100 -21.806200 -22.439700
C -12.134200 -20.510600 -22.083700
H -11.770000 -23.487800 -23.396500
C -11.578600 -17.533300 -21.916800
C -11.555900 -22.585800 -23.188800
C -11.242100 -16.260900 -21.546000
C -10.922000 -19.889100 -22.521300
C -10.588300 -18.515900 -22.133800
C -10.399700 -22.007700 -23.628300
C -10.089800 -20.682600 -23.300100
C -9.897900 -15.918400 -21.353100
H -9.797800 -22.511400 -24.162300
F -9.578500 -14.673900 -20.973000
H -9.276900 -20.310700 -23.622700
C -9.248800 -18.147100 -21.935400
C -8.907800 -16.865400 -21.559000
H -8.564200 -18.793400 -22.063300
H -7.994300 -16.631300 -21.440300
