49
Fragment
H -18.676300 -30.930200 -25.002200
H -18.030400 -28.873500 -24.125200
C -17.765600 -30.767400 -24.783400
C -17.376400 -29.546100 -24.269800
F -17.209800 -32.946500 -25.454700
H -17.190200 -27.664600 -22.167100
C -16.828100 -31.736100 -24.972600
H -16.627700 -25.541400 -21.460700
C -16.401200 -27.263200 -22.512000
C -16.060600 -25.992400 -22.076300
C -16.039900 -29.281100 -23.960200
C -15.640100 -27.970000 -23.426200
C -15.488900 -31.526800 -24.661100
C -15.102100 -30.285400 -24.179000
C -14.923400 -25.377100 -22.517600
H -14.680400 -24.506100 -22.224600
C -14.440100 -27.337600 -23.871200
Cl -14.342600 -32.800000 -24.855000
H -14.185000 -30.118000 -23.997300
N -14.148500 -26.085400 -23.409500
N -13.524000 -27.708000 -24.777900
N -13.015200 -25.594100 -24.010200
C -12.721100 -26.626300 -24.844600
H -12.402600 -24.892000 -27.546200
N -11.659300 -26.567400 -25.695700
H -11.539700 -22.754800 -27.216200
C -11.419700 -24.836200 -27.442400
H -11.365000 -24.599100 -25.386100
H -11.345100 -27.309700 -26.049900
C -11.032200 -25.285600 -26.033200
H -11.009500 -23.187200 -28.669900
H -11.004500 -25.440600 -28.106200
C -10.956500 -23.391700 -27.702000
H -9.900700 -20.130900 -26.602400
H -9.766900 -21.135200 -28.805200
H -9.583300 -19.092500 -27.779900
C -9.551700 -23.258400 -27.229200
C -9.513300 -25.387900 -25.873700
H -9.281500 -25.502600 -24.918800
C -9.239700 -19.858100 -27.273700
H -9.175000 -26.173700 -26.372500
C -8.977900 -21.011200 -28.221200
C -8.878000 -24.135700 -26.407700
N -8.708100 -22.243300 -27.516600
H -8.404400 -19.607000 -26.826800
H -8.204300 -20.788000 -28.796000
C -7.600000 -23.562200 -26.222300
N -7.495800 -22.407600 -26.901000
H -6.909200 -23.940400 -25.692000
49
Fragment
H -10.071100 -31.689600 -29.934500
N -9.484500 -30.156800 -28.725500
C -9.380300 -31.311400 -29.404200
H -8.775900 -28.537200 -26.830500
H -8.575800 -27.356200 -28.799700
N -8.272200 -29.992500 -28.109900
C -8.102300 -31.884900 -29.218700
C -8.002300 -28.760400 -27.405300
H -7.805200 -33.922900 -29.254000
C -7.740600 -27.607300 -28.352800
H -7.698700 -33.251800 -30.707700
C -7.467000 -33.137100 -29.752700
C -7.428600 -31.007600 -28.397300
H -7.397000 -26.841700 -27.846600
H -7.213300 -28.884400 -26.821200
H -7.079600 -27.880100 -29.024000
C -6.023800 -31.140900 -27.924500
H -5.975700 -33.189800 -27.520300
H -5.970700 -30.936400 -26.956600
C -5.948100 -33.034800 -29.593300
H -5.635200 -35.058900 -29.576600
H -5.615300 -32.348300 -30.240400
C -5.560600 -32.585400 -28.184100
H -5.440500 -30.504000 -28.410300
N -5.321000 -34.316600 -29.930700
H -4.577700 -32.641200 -28.080200
C -4.259200 -34.375500 -30.781800
N -3.965000 -33.343300 -31.616200
N -3.456300 -35.457200 -30.848600
N -2.831800 -33.834600 -32.217000
H -2.795300 -37.867200 -31.629200
Cl -2.637600 -40.549200 -30.771400
C -2.540100 -35.086800 -31.755300
H -2.299800 -32.255300 -33.401800
C -2.056800 -33.126300 -33.108900
C -1.878100 -38.034600 -31.447500
C -1.491400 -39.276000 -30.965400
C -1.340100 -35.719200 -32.200300
C -0.940400 -37.030300 -31.666300
C -0.919700 -33.741600 -33.550200
C -0.579100 -35.012400 -33.114400
H -0.352600 -33.290600 -34.165800
C -0.152200 -39.485300 -30.653900
H 0.210000 -35.413800 -33.459300
F 0.229600 -40.695700 -30.171800
C 0.396100 -37.295300 -31.356600
C 0.785400 -38.516600 -30.843000
H 1.050100 -36.622700 -31.501300
H 1.696000 -38.679400 -30.624200
98
Fragment
H -18.676300 -30.930200 -25.002200
H -18.030400 -28.873500 -24.125200
C -17.765600 -30.767400 -24.783400
C -17.376400 -29.546100 -24.269800
F -17.209800 -32.946500 -25.454700
H -17.190200 -27.664600 -22.167100
C -16.828100 -31.736100 -24.972600
H -16.627700 -25.541400 -21.460700
C -16.401200 -27.263200 -22.512000
C -16.060600 -25.992400 -22.076300
C -16.039900 -29.281100 -23.960200
C -15.640100 -27.970000 -23.426200
C -15.488900 -31.526800 -24.661100
C -15.102100 -30.285400 -24.179000
C -14.923400 -25.377100 -22.517600
H -14.680400 -24.506100 -22.224600
C -14.440100 -27.337600 -23.871200
Cl -14.342600 -32.800000 -24.855000
H -14.185000 -30.118000 -23.997300
N -14.148500 -26.085400 -23.409500
N -13.524000 -27.708000 -24.777900
N -13.015200 -25.594100 -24.010200
C -12.721100 -26.626300 -24.844600
H -12.402600 -24.892000 -27.546200
N -11.659300 -26.567400 -25.695700
H -11.539700 -22.754800 -27.216200
C -11.419700 -24.836200 -27.442400
H -11.365000 -24.599100 -25.386100
H -11.345100 -27.309700 -26.049900
C -11.032200 -25.285600 -26.033200
H -11.009500 -23.187200 -28.669900
H -11.004500 -25.440600 -28.106200
C -10.956500 -23.391700 -27.702000
H -9.900700 -20.130900 -26.602400
H -9.766900 -21.135200 -28.805200
H -9.583300 -19.092500 -27.779900
C -9.551700 -23.258400 -27.229200
C -9.513300 -25.387900 -25.873700
H -9.281500 -25.502600 -24.918800
C -9.239700 -19.858100 -27.273700
H -9.175000 -26.173700 -26.372500
C -8.977900 -21.011200 -28.221200
C -8.878000 -24.135700 -26.407700
N -8.708100 -22.243300 -27.516600
H -8.404400 -19.607000 -26.826800
H -8.204300 -20.788000 -28.796000
C -7.600000 -23.562200 -26.222300
N -7.495800 -22.407600 -26.901000
H -6.909200 -23.940400 -25.692000
H -10.071100 -31.689600 -29.934500
N -9.484500 -30.156800 -28.725500
C -9.380300 -31.311400 -29.404200
H -8.775900 -28.537200 -26.830500
H -8.575800 -27.356200 -28.799700
N -8.272200 -29.992500 -28.109900
C -8.102300 -31.884900 -29.218700
C -8.002300 -28.760400 -27.405300
H -7.805200 -33.922900 -29.254000
C -7.740600 -27.607300 -28.352800
H -7.698700 -33.251800 -30.707700
C -7.467000 -33.137100 -29.752700
C -7.428600 -31.007600 -28.397300
H -7.397000 -26.841700 -27.846600
H -7.213300 -28.884400 -26.821200
H -7.079600 -27.880100 -29.024000
C -6.023800 -31.140900 -27.924500
H -5.975700 -33.189800 -27.520300
H -5.970700 -30.936400 -26.956600
C -5.948100 -33.034800 -29.593300
H -5.635200 -35.058900 -29.576600
H -5.615300 -32.348300 -30.240400
C -5.560600 -32.585400 -28.184100
H -5.440500 -30.504000 -28.410300
N -5.321000 -34.316600 -29.930700
H -4.577700 -32.641200 -28.080200
C -4.259200 -34.375500 -30.781800
N -3.965000 -33.343300 -31.616200
N -3.456300 -35.457200 -30.848600
N -2.831800 -33.834600 -32.217000
H -2.795300 -37.867200 -31.629200
Cl -2.637600 -40.549200 -30.771400
C -2.540100 -35.086800 -31.755300
H -2.299800 -32.255300 -33.401800
C -2.056800 -33.126300 -33.108900
C -1.878100 -38.034600 -31.447500
C -1.491400 -39.276000 -30.965400
C -1.340100 -35.719200 -32.200300
C -0.940400 -37.030300 -31.666300
C -0.919700 -33.741600 -33.550200
C -0.579100 -35.012400 -33.114400
H -0.352600 -33.290600 -34.165800
C -0.152200 -39.485300 -30.653900
H 0.210000 -35.413800 -33.459300
F 0.229600 -40.695700 -30.171800
C 0.396100 -37.295300 -31.356600
C 0.785400 -38.516600 -30.843000
H 1.050100 -36.622700 -31.501300
H 1.696000 -38.679400 -30.624200
