49
Fragment
H -18.676300 -30.930200 -25.002200
H -18.030400 -28.873500 -24.125200
C -17.765600 -30.767400 -24.783400
C -17.376400 -29.546100 -24.269800
F -17.209800 -32.946500 -25.454700
H -17.190200 -27.664600 -22.167100
C -16.828100 -31.736100 -24.972600
H -16.627700 -25.541400 -21.460700
C -16.401200 -27.263200 -22.512000
C -16.060600 -25.992400 -22.076300
C -16.039900 -29.281100 -23.960200
C -15.640100 -27.970000 -23.426200
C -15.488900 -31.526800 -24.661100
C -15.102100 -30.285400 -24.179000
C -14.923400 -25.377100 -22.517600
H -14.680400 -24.506100 -22.224600
C -14.440100 -27.337600 -23.871200
Cl -14.342600 -32.800000 -24.855000
H -14.185000 -30.118000 -23.997300
N -14.148500 -26.085400 -23.409500
N -13.524000 -27.708000 -24.777900
N -13.015200 -25.594100 -24.010200
C -12.721100 -26.626300 -24.844600
H -12.402600 -24.892000 -27.546200
N -11.659300 -26.567400 -25.695700
H -11.539700 -22.754800 -27.216200
C -11.419700 -24.836200 -27.442400
H -11.365000 -24.599100 -25.386100
H -11.345100 -27.309700 -26.049900
C -11.032200 -25.285600 -26.033200
H -11.009500 -23.187200 -28.669900
H -11.004500 -25.440600 -28.106200
C -10.956500 -23.391700 -27.702000
H -9.900700 -20.130900 -26.602400
H -9.766900 -21.135200 -28.805200
H -9.583300 -19.092500 -27.779900
C -9.551700 -23.258400 -27.229200
C -9.513300 -25.387900 -25.873700
H -9.281500 -25.502600 -24.918800
C -9.239700 -19.858100 -27.273700
H -9.175000 -26.173700 -26.372500
C -8.977900 -21.011200 -28.221200
C -8.878000 -24.135700 -26.407700
N -8.708100 -22.243300 -27.516600
H -8.404400 -19.607000 -26.826800
H -8.204300 -20.788000 -28.796000
C -7.600000 -23.562200 -26.222300
N -7.495800 -22.407600 -26.901000
H -6.909200 -23.940400 -25.692000
49
Fragment
H -11.567000 -15.431800 -25.002200
H -10.921100 -13.375100 -24.125200
C -10.656400 -15.269000 -24.783400
C -10.267100 -14.047700 -24.269800
F -10.100600 -17.448100 -25.454700
H -10.081000 -12.166200 -22.167100
C -9.718800 -16.237700 -24.972600
H -9.518400 -10.043000 -21.460700
C -9.291900 -11.764800 -22.512000
C -8.951300 -10.494000 -22.076300
C -8.930600 -13.782700 -23.960200
C -8.530900 -12.471600 -23.426200
C -8.379600 -16.028400 -24.661100
C -7.992900 -14.787000 -24.179000
C -7.814200 -9.878700 -22.517600
H -7.571200 -9.007700 -22.224600
C -7.330900 -11.839200 -23.871200
Cl -7.233400 -17.301600 -24.855000
H -7.075700 -14.619600 -23.997300
N -7.039200 -10.587000 -23.409500
N -6.414700 -12.209600 -24.777900
N -5.906000 -10.095700 -24.010200
C -5.611800 -11.127900 -24.844600
H -5.293300 -9.393600 -27.546200
N -4.550000 -11.069000 -25.695700
H -4.430500 -7.256400 -27.216200
C -4.310400 -9.337800 -27.442400
H -4.255700 -9.100700 -25.386100
H -4.235800 -11.811300 -26.049900
C -3.922900 -9.787200 -26.033200
H -3.900300 -7.688800 -28.669900
H -3.895300 -9.942200 -28.106200
C -3.847200 -7.893300 -27.702000
H -2.791400 -4.632500 -26.602400
H -2.657700 -5.636800 -28.805200
H -2.474000 -3.594100 -27.779900
C -2.442400 -7.760000 -27.229200
C -2.404000 -9.889500 -25.873700
H -2.172300 -10.004200 -24.918800
C -2.130400 -4.359700 -27.273700
H -2.065800 -10.675300 -26.372500
C -1.868700 -5.512800 -28.221200
C -1.768700 -8.637300 -26.407700
N -1.598900 -6.744900 -27.516600
H -1.295200 -4.108600 -26.826800
H -1.095100 -5.289600 -28.796000
C -0.490700 -8.063800 -26.222300
N -0.386500 -6.909200 -26.901000
H 0.200100 -8.442000 -25.692000
98
Fragment
H -18.676300 -30.930200 -25.002200
H -18.030400 -28.873500 -24.125200
C -17.765600 -30.767400 -24.783400
C -17.376400 -29.546100 -24.269800
F -17.209800 -32.946500 -25.454700
H -17.190200 -27.664600 -22.167100
C -16.828100 -31.736100 -24.972600
H -16.627700 -25.541400 -21.460700
C -16.401200 -27.263200 -22.512000
C -16.060600 -25.992400 -22.076300
C -16.039900 -29.281100 -23.960200
C -15.640100 -27.970000 -23.426200
C -15.488900 -31.526800 -24.661100
C -15.102100 -30.285400 -24.179000
C -14.923400 -25.377100 -22.517600
H -14.680400 -24.506100 -22.224600
C -14.440100 -27.337600 -23.871200
Cl -14.342600 -32.800000 -24.855000
H -14.185000 -30.118000 -23.997300
N -14.148500 -26.085400 -23.409500
N -13.524000 -27.708000 -24.777900
N -13.015200 -25.594100 -24.010200
C -12.721100 -26.626300 -24.844600
H -12.402600 -24.892000 -27.546200
N -11.659300 -26.567400 -25.695700
H -11.539700 -22.754800 -27.216200
C -11.419700 -24.836200 -27.442400
H -11.365000 -24.599100 -25.386100
H -11.345100 -27.309700 -26.049900
C -11.032200 -25.285600 -26.033200
H -11.009500 -23.187200 -28.669900
H -11.004500 -25.440600 -28.106200
C -10.956500 -23.391700 -27.702000
H -9.900700 -20.130900 -26.602400
H -9.766900 -21.135200 -28.805200
H -9.583300 -19.092500 -27.779900
C -9.551700 -23.258400 -27.229200
C -9.513300 -25.387900 -25.873700
H -9.281500 -25.502600 -24.918800
C -9.239700 -19.858100 -27.273700
H -9.175000 -26.173700 -26.372500
C -8.977900 -21.011200 -28.221200
C -8.878000 -24.135700 -26.407700
N -8.708100 -22.243300 -27.516600
H -8.404400 -19.607000 -26.826800
H -8.204300 -20.788000 -28.796000
C -7.600000 -23.562200 -26.222300
N -7.495800 -22.407600 -26.901000
H -6.909200 -23.940400 -25.692000
H -11.567000 -15.431800 -25.002200
H -10.921100 -13.375100 -24.125200
C -10.656400 -15.269000 -24.783400
C -10.267100 -14.047700 -24.269800
F -10.100600 -17.448100 -25.454700
H -10.081000 -12.166200 -22.167100
C -9.718800 -16.237700 -24.972600
H -9.518400 -10.043000 -21.460700
C -9.291900 -11.764800 -22.512000
C -8.951300 -10.494000 -22.076300
C -8.930600 -13.782700 -23.960200
C -8.530900 -12.471600 -23.426200
C -8.379600 -16.028400 -24.661100
C -7.992900 -14.787000 -24.179000
C -7.814200 -9.878700 -22.517600
H -7.571200 -9.007700 -22.224600
C -7.330900 -11.839200 -23.871200
Cl -7.233400 -17.301600 -24.855000
H -7.075700 -14.619600 -23.997300
N -7.039200 -10.587000 -23.409500
N -6.414700 -12.209600 -24.777900
N -5.906000 -10.095700 -24.010200
C -5.611800 -11.127900 -24.844600
H -5.293300 -9.393600 -27.546200
N -4.550000 -11.069000 -25.695700
H -4.430500 -7.256400 -27.216200
C -4.310400 -9.337800 -27.442400
H -4.255700 -9.100700 -25.386100
H -4.235800 -11.811300 -26.049900
C -3.922900 -9.787200 -26.033200
H -3.900300 -7.688800 -28.669900
H -3.895300 -9.942200 -28.106200
C -3.847200 -7.893300 -27.702000
H -2.791400 -4.632500 -26.602400
H -2.657700 -5.636800 -28.805200
H -2.474000 -3.594100 -27.779900
C -2.442400 -7.760000 -27.229200
C -2.404000 -9.889500 -25.873700
H -2.172300 -10.004200 -24.918800
C -2.130400 -4.359700 -27.273700
H -2.065800 -10.675300 -26.372500
C -1.868700 -5.512800 -28.221200
C -1.768700 -8.637300 -26.407700
N -1.598900 -6.744900 -27.516600
H -1.295200 -4.108600 -26.826800
H -1.095100 -5.289600 -28.796000
C -0.490700 -8.063800 -26.222300
N -0.386500 -6.909200 -26.901000
H 0.200100 -8.442000 -25.692000
