20
Fragment
H -16.367500 -9.813500 -35.283400
O -15.924900 -10.391200 -35.662100
C -14.926300 -10.823100 -34.824900
H -14.901200 -9.302700 -33.522700
H -14.642400 -12.531100 -35.909600
C -14.498600 -10.113400 -33.736100
C -14.339300 -12.060300 -35.165500
C -13.439500 -10.614000 -32.930100
C -13.331400 -12.562100 -34.404700
H -13.328000 -9.096000 -31.567900
C -12.952100 -9.914500 -31.802000
H -12.947100 -13.377600 -34.635100
C -12.855900 -11.865000 -33.269200
C -11.933000 -10.436000 -31.053200
C -11.806000 -12.359000 -32.462300
H -11.788500 -9.091800 -29.826800
O -11.427400 -9.821900 -29.925800
H -11.417600 -13.177400 -32.673000
C -11.351900 -11.666000 -31.386000
H -10.655700 -12.007100 -30.870500
20
Fragment
H -16.367500 -15.787500 -35.283400
O -15.924900 -16.365200 -35.662100
C -14.926300 -16.797100 -34.824900
H -14.901200 -15.276700 -33.522700
H -14.642400 -18.505100 -35.909600
C -14.498600 -16.087400 -33.736100
C -14.339300 -18.034300 -35.165500
C -13.439500 -16.588000 -32.930100
C -13.331400 -18.536100 -34.404700
H -13.328000 -15.070000 -31.567900
C -12.952100 -15.888500 -31.802000
H -12.947100 -19.351600 -34.635100
C -12.855900 -17.839000 -33.269200
C -11.933000 -16.410000 -31.053200
C -11.806000 -18.333000 -32.462300
H -11.788500 -15.065800 -29.826800
O -11.427400 -15.795900 -29.925800
H -11.417600 -19.151400 -32.673000
C -11.351900 -17.640000 -31.386000
H -10.655700 -17.981100 -30.870500
40
Fragment
H -16.367500 -9.813500 -35.283400
O -15.924900 -10.391200 -35.662100
C -14.926300 -10.823100 -34.824900
H -14.901200 -9.302700 -33.522700
H -14.642400 -12.531100 -35.909600
C -14.498600 -10.113400 -33.736100
C -14.339300 -12.060300 -35.165500
C -13.439500 -10.614000 -32.930100
C -13.331400 -12.562100 -34.404700
H -13.328000 -9.096000 -31.567900
C -12.952100 -9.914500 -31.802000
H -12.947100 -13.377600 -34.635100
C -12.855900 -11.865000 -33.269200
C -11.933000 -10.436000 -31.053200
C -11.806000 -12.359000 -32.462300
H -11.788500 -9.091800 -29.826800
O -11.427400 -9.821900 -29.925800
H -11.417600 -13.177400 -32.673000
C -11.351900 -11.666000 -31.386000
H -10.655700 -12.007100 -30.870500
H -16.367500 -15.787500 -35.283400
O -15.924900 -16.365200 -35.662100
C -14.926300 -16.797100 -34.824900
H -14.901200 -15.276700 -33.522700
H -14.642400 -18.505100 -35.909600
C -14.498600 -16.087400 -33.736100
C -14.339300 -18.034300 -35.165500
C -13.439500 -16.588000 -32.930100
C -13.331400 -18.536100 -34.404700
H -13.328000 -15.070000 -31.567900
C -12.952100 -15.888500 -31.802000
H -12.947100 -19.351600 -34.635100
C -12.855900 -17.839000 -33.269200
C -11.933000 -16.410000 -31.053200
C -11.806000 -18.333000 -32.462300
H -11.788500 -15.065800 -29.826800
O -11.427400 -15.795900 -29.925800
H -11.417600 -19.151400 -32.673000
C -11.351900 -17.640000 -31.386000
H -10.655700 -17.981100 -30.870500
