20
Fragment
H -16.367500 -9.813500 -35.283400
O -15.924900 -10.391200 -35.662100
C -14.926300 -10.823100 -34.824900
H -14.901200 -9.302700 -33.522700
H -14.642400 -12.531100 -35.909600
C -14.498600 -10.113400 -33.736100
C -14.339300 -12.060300 -35.165500
C -13.439500 -10.614000 -32.930100
C -13.331400 -12.562100 -34.404700
H -13.328000 -9.096000 -31.567900
C -12.952100 -9.914500 -31.802000
H -12.947100 -13.377600 -34.635100
C -12.855900 -11.865000 -33.269200
C -11.933000 -10.436000 -31.053200
C -11.806000 -12.359000 -32.462300
H -11.788500 -9.091800 -29.826800
O -11.427400 -9.821900 -29.925800
H -11.417600 -13.177400 -32.673000
C -11.351900 -11.666000 -31.386000
H -10.655700 -12.007100 -30.870500
22
Fragment
H -15.457500 -10.973000 -39.529300
H -15.059000 -9.087100 -41.000200
H -14.975900 -10.912700 -38.038700
C -14.757200 -10.645700 -38.944100
N -14.712600 -9.168300 -39.018000
C -14.361000 -8.783600 -40.397100
H -14.318000 -7.816400 -40.455100
H -13.863500 -11.145100 -41.302300
H -13.829700 -8.958600 -37.211100
C -13.624300 -8.702900 -38.124600
H -13.574300 -7.735100 -38.159000
N -13.477600 -11.257400 -39.333100
C -13.171000 -10.822500 -40.705300
N -13.074100 -9.349900 -40.827400
H -12.623600 -11.008900 -37.530300
C -12.428000 -10.741800 -38.442100
H -12.329800 -11.219200 -40.983000
N -12.322400 -9.268700 -38.504500
C -12.033400 -8.877400 -39.894700
H -11.971300 -7.910800 -39.949200
H -11.576200 -11.133100 -38.691900
H -11.175500 -9.246000 -40.157900
42
Fragment
H -16.367500 -9.813500 -35.283400
O -15.924900 -10.391200 -35.662100
C -14.926300 -10.823100 -34.824900
H -14.901200 -9.302700 -33.522700
H -14.642400 -12.531100 -35.909600
C -14.498600 -10.113400 -33.736100
C -14.339300 -12.060300 -35.165500
C -13.439500 -10.614000 -32.930100
C -13.331400 -12.562100 -34.404700
H -13.328000 -9.096000 -31.567900
C -12.952100 -9.914500 -31.802000
H -12.947100 -13.377600 -34.635100
C -12.855900 -11.865000 -33.269200
C -11.933000 -10.436000 -31.053200
C -11.806000 -12.359000 -32.462300
H -11.788500 -9.091800 -29.826800
O -11.427400 -9.821900 -29.925800
H -11.417600 -13.177400 -32.673000
C -11.351900 -11.666000 -31.386000
H -10.655700 -12.007100 -30.870500
H -15.457500 -10.973000 -39.529300
H -15.059000 -9.087100 -41.000200
H -14.975900 -10.912700 -38.038700
C -14.757200 -10.645700 -38.944100
N -14.712600 -9.168300 -39.018000
C -14.361000 -8.783600 -40.397100
H -14.318000 -7.816400 -40.455100
H -13.863500 -11.145100 -41.302300
H -13.829700 -8.958600 -37.211100
C -13.624300 -8.702900 -38.124600
H -13.574300 -7.735100 -38.159000
N -13.477600 -11.257400 -39.333100
C -13.171000 -10.822500 -40.705300
N -13.074100 -9.349900 -40.827400
H -12.623600 -11.008900 -37.530300
C -12.428000 -10.741800 -38.442100
H -12.329800 -11.219200 -40.983000
N -12.322400 -9.268700 -38.504500
C -12.033400 -8.877400 -39.894700
H -11.971300 -7.910800 -39.949200
H -11.576200 -11.133100 -38.691900
H -11.175500 -9.246000 -40.157900
