20
Fragment
H -16.367500 -9.813500 -35.283400
O -15.924900 -10.391200 -35.662100
C -14.926300 -10.823100 -34.824900
H -14.901200 -9.302700 -33.522700
H -14.642400 -12.531100 -35.909600
C -14.498600 -10.113400 -33.736100
C -14.339300 -12.060300 -35.165500
C -13.439500 -10.614000 -32.930100
C -13.331400 -12.562100 -34.404700
H -13.328000 -9.096000 -31.567900
C -12.952100 -9.914500 -31.802000
H -12.947100 -13.377600 -34.635100
C -12.855900 -11.865000 -33.269200
C -11.933000 -10.436000 -31.053200
C -11.806000 -12.359000 -32.462300
H -11.788500 -9.091800 -29.826800
O -11.427400 -9.821900 -29.925800
H -11.417600 -13.177400 -32.673000
C -11.351900 -11.666000 -31.386000
H -10.655700 -12.007100 -30.870500
22
Fragment
H -10.030100 -9.936000 -27.250800
H -9.631600 -11.821900 -28.721800
H -9.548500 -9.996300 -25.760200
C -9.329800 -10.263300 -26.665600
N -9.285200 -11.740700 -26.739500
C -8.933600 -12.125400 -28.118700
H -8.890600 -13.092600 -28.176600
H -8.436100 -9.763900 -29.023800
H -8.402300 -11.950400 -24.932600
C -8.196900 -12.206100 -25.846200
H -8.146900 -13.173900 -25.880500
N -8.050200 -9.651600 -27.054600
C -7.743600 -10.086500 -28.426800
N -7.646700 -11.559100 -28.548900
H -7.196200 -9.900100 -25.251900
C -7.000700 -10.167200 -26.163700
H -6.902400 -9.689800 -28.704600
N -6.895000 -11.640300 -26.226100
C -6.606000 -12.031600 -27.616200
H -6.543900 -12.998200 -27.670700
H -6.148800 -9.775900 -26.413400
H -5.748200 -11.663000 -27.879500
42
Fragment
H -16.367500 -9.813500 -35.283400
O -15.924900 -10.391200 -35.662100
C -14.926300 -10.823100 -34.824900
H -14.901200 -9.302700 -33.522700
H -14.642400 -12.531100 -35.909600
C -14.498600 -10.113400 -33.736100
C -14.339300 -12.060300 -35.165500
C -13.439500 -10.614000 -32.930100
C -13.331400 -12.562100 -34.404700
H -13.328000 -9.096000 -31.567900
C -12.952100 -9.914500 -31.802000
H -12.947100 -13.377600 -34.635100
C -12.855900 -11.865000 -33.269200
C -11.933000 -10.436000 -31.053200
C -11.806000 -12.359000 -32.462300
H -11.788500 -9.091800 -29.826800
O -11.427400 -9.821900 -29.925800
H -11.417600 -13.177400 -32.673000
C -11.351900 -11.666000 -31.386000
H -10.655700 -12.007100 -30.870500
H -10.030100 -9.936000 -27.250800
H -9.631600 -11.821900 -28.721800
H -9.548500 -9.996300 -25.760200
C -9.329800 -10.263300 -26.665600
N -9.285200 -11.740700 -26.739500
C -8.933600 -12.125400 -28.118700
H -8.890600 -13.092600 -28.176600
H -8.436100 -9.763900 -29.023800
H -8.402300 -11.950400 -24.932600
C -8.196900 -12.206100 -25.846200
H -8.146900 -13.173900 -25.880500
N -8.050200 -9.651600 -27.054600
C -7.743600 -10.086500 -28.426800
N -7.646700 -11.559100 -28.548900
H -7.196200 -9.900100 -25.251900
C -7.000700 -10.167200 -26.163700
H -6.902400 -9.689800 -28.704600
N -6.895000 -11.640300 -26.226100
C -6.606000 -12.031600 -27.616200
H -6.543900 -12.998200 -27.670700
H -6.148800 -9.775900 -26.413400
H -5.748200 -11.663000 -27.879500
