14
Fragment
H -8.812400 -8.187800 -13.429300
H -8.521500 -8.324700 -11.875300
C -8.199100 -8.491200 -12.757700
H -8.165700 -9.905200 -14.882800
O -8.061100 -9.908100 -12.907100
C -7.519900 -10.212800 -14.199500
H -7.391400 -11.230300 -14.225700
H -7.006500 -6.794800 -12.926100
C -6.878000 -7.812300 -12.952300
O -6.336800 -8.117000 -14.244800
H -6.232200 -8.119900 -12.269000
C -6.198800 -9.533900 -14.394100
H -5.876400 -9.700400 -15.276500
H -5.585500 -9.837300 -13.722500
11
Fragment
O -11.163700 -14.593600 -18.192600
O -10.446100 -12.002300 -16.659500
H -10.313300 -14.859400 -15.936300
O -10.290100 -12.776800 -14.649300
N -10.224900 -12.865000 -15.851200
N -10.047900 -14.274000 -17.838700
C -9.842500 -14.219600 -16.359900
O -9.111000 -13.987000 -18.541100
N -8.389300 -14.473000 -16.089300
O -8.041400 -15.617200 -16.274800
O -7.713200 -13.547500 -15.750800
25
Fragment
H -8.812400 -8.187800 -13.429300
H -8.521500 -8.324700 -11.875300
C -8.199100 -8.491200 -12.757700
H -8.165700 -9.905200 -14.882800
O -8.061100 -9.908100 -12.907100
C -7.519900 -10.212800 -14.199500
H -7.391400 -11.230300 -14.225700
H -7.006500 -6.794800 -12.926100
C -6.878000 -7.812300 -12.952300
O -6.336800 -8.117000 -14.244800
H -6.232200 -8.119900 -12.269000
C -6.198800 -9.533900 -14.394100
H -5.876400 -9.700400 -15.276500
H -5.585500 -9.837300 -13.722500
O -11.163700 -14.593600 -18.192600
O -10.446100 -12.002300 -16.659500
H -10.313300 -14.859400 -15.936300
O -10.290100 -12.776800 -14.649300
N -10.224900 -12.865000 -15.851200
N -10.047900 -14.274000 -17.838700
C -9.842500 -14.219600 -16.359900
O -9.111000 -13.987000 -18.541100
N -8.389300 -14.473000 -16.089300
O -8.041400 -15.617200 -16.274800
O -7.713200 -13.547500 -15.750800
