14
Fragment
H -8.812400 -8.187800 -13.429300
H -8.521500 -8.324700 -11.875300
C -8.199100 -8.491200 -12.757700
H -8.165700 -9.905200 -14.882800
O -8.061100 -9.908100 -12.907100
C -7.519900 -10.212800 -14.199500
H -7.391400 -11.230300 -14.225700
H -7.006500 -6.794800 -12.926100
C -6.878000 -7.812300 -12.952300
O -6.336800 -8.117000 -14.244800
H -6.232200 -8.119900 -12.269000
C -6.198800 -9.533900 -14.394100
H -5.876400 -9.700400 -15.276500
H -5.585500 -9.837300 -13.722500
14
Fragment
H -3.489400 -8.187800 -13.429300
H -3.198500 -8.324700 -11.875300
C -2.876100 -8.491200 -12.757700
H -2.842700 -9.905200 -14.882800
O -2.738100 -9.908100 -12.907100
C -2.196900 -10.212800 -14.199500
H -2.068400 -11.230300 -14.225700
H -1.683500 -6.794800 -12.926100
C -1.555000 -7.812300 -12.952300
O -1.013800 -8.117000 -14.244800
H -0.909200 -8.119900 -12.269000
C -0.875800 -9.533900 -14.394100
H -0.553400 -9.700400 -15.276500
H -0.262500 -9.837300 -13.722500
28
Fragment
H -8.812400 -8.187800 -13.429300
H -8.521500 -8.324700 -11.875300
C -8.199100 -8.491200 -12.757700
H -8.165700 -9.905200 -14.882800
O -8.061100 -9.908100 -12.907100
C -7.519900 -10.212800 -14.199500
H -7.391400 -11.230300 -14.225700
H -7.006500 -6.794800 -12.926100
C -6.878000 -7.812300 -12.952300
O -6.336800 -8.117000 -14.244800
H -6.232200 -8.119900 -12.269000
C -6.198800 -9.533900 -14.394100
H -5.876400 -9.700400 -15.276500
H -5.585500 -9.837300 -13.722500
H -3.489400 -8.187800 -13.429300
H -3.198500 -8.324700 -11.875300
C -2.876100 -8.491200 -12.757700
H -2.842700 -9.905200 -14.882800
O -2.738100 -9.908100 -12.907100
C -2.196900 -10.212800 -14.199500
H -2.068400 -11.230300 -14.225700
H -1.683500 -6.794800 -12.926100
C -1.555000 -7.812300 -12.952300
O -1.013800 -8.117000 -14.244800
H -0.909200 -8.119900 -12.269000
C -0.875800 -9.533900 -14.394100
H -0.553400 -9.700400 -15.276500
H -0.262500 -9.837300 -13.722500
