14
Fragment
H -8.812400 -8.187800 -13.429300
H -8.521500 -8.324700 -11.875300
C -8.199100 -8.491200 -12.757700
H -8.165700 -9.905200 -14.882800
O -8.061100 -9.908100 -12.907100
C -7.519900 -10.212800 -14.199500
H -7.391400 -11.230300 -14.225700
H -7.006500 -6.794800 -12.926100
C -6.878000 -7.812300 -12.952300
O -6.336800 -8.117000 -14.244800
H -6.232200 -8.119900 -12.269000
C -6.198800 -9.533900 -14.394100
H -5.876400 -9.700400 -15.276500
H -5.585500 -9.837300 -13.722500
11
Fragment
O -5.840700 -14.593600 -18.192600
O -5.123100 -12.002300 -16.659500
H -4.990300 -14.859400 -15.936300
O -4.967100 -12.776800 -14.649300
N -4.901900 -12.865000 -15.851200
N -4.724900 -14.274000 -17.838700
C -4.519500 -14.219600 -16.359900
O -3.788000 -13.987000 -18.541100
N -3.066300 -14.473000 -16.089300
O -2.718400 -15.617200 -16.274800
O -2.390200 -13.547500 -15.750800
25
Fragment
H -8.812400 -8.187800 -13.429300
H -8.521500 -8.324700 -11.875300
C -8.199100 -8.491200 -12.757700
H -8.165700 -9.905200 -14.882800
O -8.061100 -9.908100 -12.907100
C -7.519900 -10.212800 -14.199500
H -7.391400 -11.230300 -14.225700
H -7.006500 -6.794800 -12.926100
C -6.878000 -7.812300 -12.952300
O -6.336800 -8.117000 -14.244800
H -6.232200 -8.119900 -12.269000
C -6.198800 -9.533900 -14.394100
H -5.876400 -9.700400 -15.276500
H -5.585500 -9.837300 -13.722500
O -5.840700 -14.593600 -18.192600
O -5.123100 -12.002300 -16.659500
H -4.990300 -14.859400 -15.936300
O -4.967100 -12.776800 -14.649300
N -4.901900 -12.865000 -15.851200
N -4.724900 -14.274000 -17.838700
C -4.519500 -14.219600 -16.359900
O -3.788000 -13.987000 -18.541100
N -3.066300 -14.473000 -16.089300
O -2.718400 -15.617200 -16.274800
O -2.390200 -13.547500 -15.750800
