14
Fragment
H -8.812400 -8.187800 -13.429300
H -8.521500 -8.324700 -11.875300
C -8.199100 -8.491200 -12.757700
H -8.165700 -9.905200 -14.882800
O -8.061100 -9.908100 -12.907100
C -7.519900 -10.212800 -14.199500
H -7.391400 -11.230300 -14.225700
H -7.006500 -6.794800 -12.926100
C -6.878000 -7.812300 -12.952300
O -6.336800 -8.117000 -14.244800
H -6.232200 -8.119900 -12.269000
C -6.198800 -9.533900 -14.394100
H -5.876400 -9.700400 -15.276500
H -5.585500 -9.837300 -13.722500
11
Fragment
O -8.138700 -8.585200 -9.142000
O -7.421100 -5.994000 -7.608800
H -7.288400 -8.851000 -6.885700
O -7.265100 -6.768400 -5.598700
N -7.200000 -6.856600 -6.800600
N -7.023000 -8.265600 -8.788100
C -6.817500 -8.211300 -7.309300
O -6.086000 -7.978600 -9.490500
N -5.364300 -8.464700 -7.038700
O -5.016400 -9.608800 -7.224200
O -4.688200 -7.539200 -6.700200
25
Fragment
H -8.812400 -8.187800 -13.429300
H -8.521500 -8.324700 -11.875300
C -8.199100 -8.491200 -12.757700
H -8.165700 -9.905200 -14.882800
O -8.061100 -9.908100 -12.907100
C -7.519900 -10.212800 -14.199500
H -7.391400 -11.230300 -14.225700
H -7.006500 -6.794800 -12.926100
C -6.878000 -7.812300 -12.952300
O -6.336800 -8.117000 -14.244800
H -6.232200 -8.119900 -12.269000
C -6.198800 -9.533900 -14.394100
H -5.876400 -9.700400 -15.276500
H -5.585500 -9.837300 -13.722500
O -8.138700 -8.585200 -9.142000
O -7.421100 -5.994000 -7.608800
H -7.288400 -8.851000 -6.885700
O -7.265100 -6.768400 -5.598700
N -7.200000 -6.856600 -6.800600
N -7.023000 -8.265600 -8.788100
C -6.817500 -8.211300 -7.309300
O -6.086000 -7.978600 -9.490500
N -5.364300 -8.464700 -7.038700
O -5.016400 -9.608800 -7.224200
O -4.688200 -7.539200 -6.700200
