14
Fragment
H -8.812400 -8.187800 -13.429300
H -8.521500 -8.324700 -11.875300
C -8.199100 -8.491200 -12.757700
H -8.165700 -9.905200 -14.882800
O -8.061100 -9.908100 -12.907100
C -7.519900 -10.212800 -14.199500
H -7.391400 -11.230300 -14.225700
H -7.006500 -6.794800 -12.926100
C -6.878000 -7.812300 -12.952300
O -6.336800 -8.117000 -14.244800
H -6.232200 -8.119900 -12.269000
C -6.198800 -9.533900 -14.394100
H -5.876400 -9.700400 -15.276500
H -5.585500 -9.837300 -13.722500
11
Fragment
O -6.684700 -4.477600 -11.401000
O -6.356500 -2.407900 -10.877000
N -6.008600 -3.552100 -11.062600
O -5.286900 -4.038100 -8.610700
C -4.555400 -3.805500 -10.791900
N -4.350000 -3.751100 -9.313100
N -4.173000 -5.160100 -11.300600
O -4.107800 -5.248300 -12.502500
H -4.084600 -3.165700 -11.215500
O -3.951800 -6.022700 -10.492400
O -3.234200 -3.431500 -8.959200
25
Fragment
H -8.812400 -8.187800 -13.429300
H -8.521500 -8.324700 -11.875300
C -8.199100 -8.491200 -12.757700
H -8.165700 -9.905200 -14.882800
O -8.061100 -9.908100 -12.907100
C -7.519900 -10.212800 -14.199500
H -7.391400 -11.230300 -14.225700
H -7.006500 -6.794800 -12.926100
C -6.878000 -7.812300 -12.952300
O -6.336800 -8.117000 -14.244800
H -6.232200 -8.119900 -12.269000
C -6.198800 -9.533900 -14.394100
H -5.876400 -9.700400 -15.276500
H -5.585500 -9.837300 -13.722500
O -6.684700 -4.477600 -11.401000
O -6.356500 -2.407900 -10.877000
N -6.008600 -3.552100 -11.062600
O -5.286900 -4.038100 -8.610700
C -4.555400 -3.805500 -10.791900
N -4.350000 -3.751100 -9.313100
N -4.173000 -5.160100 -11.300600
O -4.107800 -5.248300 -12.502500
H -4.084600 -3.165700 -11.215500
O -3.951800 -6.022700 -10.492400
O -3.234200 -3.431500 -8.959200
