28
Fragment
O -9.545900 -25.355000 -17.853400
H -9.131700 -22.932300 -18.563100
H -8.918800 -21.046100 -17.246500
H -8.910800 -27.341000 -18.938500
C -8.661700 -25.493800 -18.691900
O -8.354300 -26.610400 -19.280400
H -8.343800 -20.292900 -18.537800
N -8.253800 -23.075800 -18.600900
C -8.090600 -20.825400 -17.742500
H -7.807200 -24.291200 -20.131400
C -7.797600 -24.338700 -19.143000
C -7.415300 -22.120200 -18.195800
N -7.228500 -20.038500 -16.900400
H -7.080700 -20.359600 -16.108300
H -6.863800 -24.498200 -18.855300
N -6.677500 -18.531200 -18.595200
C -6.482600 -19.008900 -17.349300
O -6.189100 -22.237000 -18.196400
H -6.142200 -17.156600 -19.867600
C -5.945900 -17.489000 -19.000100
C -5.510400 -18.373700 -16.550000
H -5.336700 -19.131700 -14.728800
N -5.022400 -18.554400 -15.277000
N -4.979700 -16.860200 -18.341900
C -4.770200 -17.335600 -17.087500
C -4.033800 -17.652000 -15.120000
N -3.838200 -16.886400 -16.188000
H -3.525300 -17.570500 -14.322000
28
Fragment
O -9.545900 -13.660800 -17.853400
H -9.131700 -11.238100 -18.563100
H -8.918800 -9.351900 -17.246500
H -8.910800 -15.646800 -18.938500
C -8.661700 -13.799600 -18.691900
O -8.354300 -14.916200 -19.280400
H -8.343800 -8.598700 -18.537800
N -8.253800 -11.381600 -18.600900
C -8.090600 -9.131200 -17.742500
H -7.807200 -12.597000 -20.131400
C -7.797600 -12.644500 -19.143000
C -7.415300 -10.426000 -18.195800
N -7.228500 -8.344300 -16.900400
H -7.080700 -8.665400 -16.108300
H -6.863800 -12.804000 -18.855300
N -6.677500 -6.837000 -18.595200
C -6.482600 -7.314700 -17.349300
O -6.189100 -10.542800 -18.196400
H -6.142200 -5.462400 -19.867600
C -5.945900 -5.794800 -19.000100
C -5.510400 -6.679500 -16.550000
H -5.336700 -7.437500 -14.728800
N -5.022400 -6.860200 -15.277000
N -4.979700 -5.166000 -18.341900
C -4.770200 -5.641400 -17.087500
C -4.033800 -5.957800 -15.120000
N -3.838200 -5.192200 -16.188000
H -3.525300 -5.876300 -14.322000
56
Fragment
O -9.545900 -25.355000 -17.853400
H -9.131700 -22.932300 -18.563100
H -8.918800 -21.046100 -17.246500
H -8.910800 -27.341000 -18.938500
C -8.661700 -25.493800 -18.691900
O -8.354300 -26.610400 -19.280400
H -8.343800 -20.292900 -18.537800
N -8.253800 -23.075800 -18.600900
C -8.090600 -20.825400 -17.742500
H -7.807200 -24.291200 -20.131400
C -7.797600 -24.338700 -19.143000
C -7.415300 -22.120200 -18.195800
N -7.228500 -20.038500 -16.900400
H -7.080700 -20.359600 -16.108300
H -6.863800 -24.498200 -18.855300
N -6.677500 -18.531200 -18.595200
C -6.482600 -19.008900 -17.349300
O -6.189100 -22.237000 -18.196400
H -6.142200 -17.156600 -19.867600
C -5.945900 -17.489000 -19.000100
C -5.510400 -18.373700 -16.550000
H -5.336700 -19.131700 -14.728800
N -5.022400 -18.554400 -15.277000
N -4.979700 -16.860200 -18.341900
C -4.770200 -17.335600 -17.087500
C -4.033800 -17.652000 -15.120000
N -3.838200 -16.886400 -16.188000
H -3.525300 -17.570500 -14.322000
O -9.545900 -13.660800 -17.853400
H -9.131700 -11.238100 -18.563100
H -8.918800 -9.351900 -17.246500
H -8.910800 -15.646800 -18.938500
C -8.661700 -13.799600 -18.691900
O -8.354300 -14.916200 -19.280400
H -8.343800 -8.598700 -18.537800
N -8.253800 -11.381600 -18.600900
C -8.090600 -9.131200 -17.742500
H -7.807200 -12.597000 -20.131400
C -7.797600 -12.644500 -19.143000
C -7.415300 -10.426000 -18.195800
N -7.228500 -8.344300 -16.900400
H -7.080700 -8.665400 -16.108300
H -6.863800 -12.804000 -18.855300
N -6.677500 -6.837000 -18.595200
C -6.482600 -7.314700 -17.349300
O -6.189100 -10.542800 -18.196400
H -6.142200 -5.462400 -19.867600
C -5.945900 -5.794800 -19.000100
C -5.510400 -6.679500 -16.550000
H -5.336700 -7.437500 -14.728800
N -5.022400 -6.860200 -15.277000
N -4.979700 -5.166000 -18.341900
C -4.770200 -5.641400 -17.087500
C -4.033800 -5.957800 -15.120000
N -3.838200 -5.192200 -16.188000
H -3.525300 -5.876300 -14.322000
