28
Fragment
O -9.545900 -25.355000 -17.853400
H -9.131700 -22.932300 -18.563100
H -8.918800 -21.046100 -17.246500
H -8.910800 -27.341000 -18.938500
C -8.661700 -25.493800 -18.691900
O -8.354300 -26.610400 -19.280400
H -8.343800 -20.292900 -18.537800
N -8.253800 -23.075800 -18.600900
C -8.090600 -20.825400 -17.742500
H -7.807200 -24.291200 -20.131400
C -7.797600 -24.338700 -19.143000
C -7.415300 -22.120200 -18.195800
N -7.228500 -20.038500 -16.900400
H -7.080700 -20.359600 -16.108300
H -6.863800 -24.498200 -18.855300
N -6.677500 -18.531200 -18.595200
C -6.482600 -19.008900 -17.349300
O -6.189100 -22.237000 -18.196400
H -6.142200 -17.156600 -19.867600
C -5.945900 -17.489000 -19.000100
C -5.510400 -18.373700 -16.550000
H -5.336700 -19.131700 -14.728800
N -5.022400 -18.554400 -15.277000
N -4.979700 -16.860200 -18.341900
C -4.770200 -17.335600 -17.087500
C -4.033800 -17.652000 -15.120000
N -3.838200 -16.886400 -16.188000
H -3.525300 -17.570500 -14.322000
28
Fragment
H -5.163300 -23.417600 -16.109400
N -4.850400 -22.733500 -14.243400
C -4.654800 -23.499100 -15.311300
C -3.918400 -23.182700 -13.343900
N -3.708800 -22.707300 -12.089500
N -3.666200 -24.401500 -15.154400
H -3.351900 -24.978800 -15.702600
C -3.178200 -24.220800 -13.881400
C -2.742700 -23.336100 -11.431200
H -2.546400 -23.003700 -10.563700
O -2.499400 -28.084100 -12.234900
C -2.206000 -24.856000 -13.082000
N -2.011000 -24.378300 -11.836200
H -1.824800 -30.345300 -11.576100
H -1.607900 -26.206700 -14.323000
N -1.460100 -25.885600 -13.531000
C -1.273300 -27.967300 -12.235500
C -0.891000 -30.185800 -11.288400
H -0.881400 -30.138300 -10.300000
C -0.597900 -26.672500 -12.688900
N -0.434700 -28.922900 -11.830500
H -0.344700 -26.140000 -11.893600
O -0.334300 -32.457500 -11.151000
C -0.026900 -31.340900 -11.739500
H 0.222200 -33.188100 -11.492900
H 0.230200 -26.893200 -13.184900
H 0.443100 -28.779400 -11.868200
O 0.857400 -31.202100 -12.578000
56
Fragment
O -9.545900 -25.355000 -17.853400
H -9.131700 -22.932300 -18.563100
H -8.918800 -21.046100 -17.246500
H -8.910800 -27.341000 -18.938500
C -8.661700 -25.493800 -18.691900
O -8.354300 -26.610400 -19.280400
H -8.343800 -20.292900 -18.537800
N -8.253800 -23.075800 -18.600900
C -8.090600 -20.825400 -17.742500
H -7.807200 -24.291200 -20.131400
C -7.797600 -24.338700 -19.143000
C -7.415300 -22.120200 -18.195800
N -7.228500 -20.038500 -16.900400
H -7.080700 -20.359600 -16.108300
H -6.863800 -24.498200 -18.855300
N -6.677500 -18.531200 -18.595200
C -6.482600 -19.008900 -17.349300
O -6.189100 -22.237000 -18.196400
H -6.142200 -17.156600 -19.867600
C -5.945900 -17.489000 -19.000100
C -5.510400 -18.373700 -16.550000
H -5.336700 -19.131700 -14.728800
N -5.022400 -18.554400 -15.277000
N -4.979700 -16.860200 -18.341900
C -4.770200 -17.335600 -17.087500
C -4.033800 -17.652000 -15.120000
N -3.838200 -16.886400 -16.188000
H -3.525300 -17.570500 -14.322000
H -5.163300 -23.417600 -16.109400
N -4.850400 -22.733500 -14.243400
C -4.654800 -23.499100 -15.311300
C -3.918400 -23.182700 -13.343900
N -3.708800 -22.707300 -12.089500
N -3.666200 -24.401500 -15.154400
H -3.351900 -24.978800 -15.702600
C -3.178200 -24.220800 -13.881400
C -2.742700 -23.336100 -11.431200
H -2.546400 -23.003700 -10.563700
O -2.499400 -28.084100 -12.234900
C -2.206000 -24.856000 -13.082000
N -2.011000 -24.378300 -11.836200
H -1.824800 -30.345300 -11.576100
H -1.607900 -26.206700 -14.323000
N -1.460100 -25.885600 -13.531000
C -1.273300 -27.967300 -12.235500
C -0.891000 -30.185800 -11.288400
H -0.881400 -30.138300 -10.300000
C -0.597900 -26.672500 -12.688900
N -0.434700 -28.922900 -11.830500
H -0.344700 -26.140000 -11.893600
O -0.334300 -32.457500 -11.151000
C -0.026900 -31.340900 -11.739500
H 0.222200 -33.188100 -11.492900
H 0.230200 -26.893200 -13.184900
H 0.443100 -28.779400 -11.868200
O 0.857400 -31.202100 -12.578000
