28
Fragment
O -9.545900 -25.355000 -17.853400
H -9.131700 -22.932300 -18.563100
H -8.918800 -21.046100 -17.246500
H -8.910800 -27.341000 -18.938500
C -8.661700 -25.493800 -18.691900
O -8.354300 -26.610400 -19.280400
H -8.343800 -20.292900 -18.537800
N -8.253800 -23.075800 -18.600900
C -8.090600 -20.825400 -17.742500
H -7.807200 -24.291200 -20.131400
C -7.797600 -24.338700 -19.143000
C -7.415300 -22.120200 -18.195800
N -7.228500 -20.038500 -16.900400
H -7.080700 -20.359600 -16.108300
H -6.863800 -24.498200 -18.855300
N -6.677500 -18.531200 -18.595200
C -6.482600 -19.008900 -17.349300
O -6.189100 -22.237000 -18.196400
H -6.142200 -17.156600 -19.867600
C -5.945900 -17.489000 -19.000100
C -5.510400 -18.373700 -16.550000
H -5.336700 -19.131700 -14.728800
N -5.022400 -18.554400 -15.277000
N -4.979700 -16.860200 -18.341900
C -4.770200 -17.335600 -17.087500
C -4.033800 -17.652000 -15.120000
N -3.838200 -16.886400 -16.188000
H -3.525300 -17.570500 -14.322000
28
Fragment
H -12.813300 -11.723400 -26.253200
N -12.500500 -11.039300 -24.387200
C -12.304900 -11.804900 -25.455100
C -11.568500 -11.488500 -23.487700
N -11.358900 -11.013100 -22.233300
N -11.316300 -12.707300 -25.298200
H -11.002000 -13.284600 -25.846400
C -10.828300 -12.526600 -24.025200
C -10.392700 -11.641900 -21.575000
H -10.196500 -11.309500 -20.707500
O -10.149500 -16.389900 -22.378700
C -9.856100 -13.161800 -23.225800
N -9.661100 -12.684100 -21.980000
H -9.474900 -18.651100 -21.719900
H -9.258000 -14.512500 -24.466800
N -9.110200 -14.191400 -23.674800
C -8.923400 -16.273100 -22.379300
C -8.541100 -18.491600 -21.432200
H -8.531500 -18.444100 -20.443800
C -8.248000 -14.978300 -22.832700
N -8.084800 -17.228700 -21.974300
H -7.994800 -14.445800 -22.037400
O -7.984400 -20.763300 -21.294800
C -7.677000 -19.646700 -21.883300
H -7.427900 -21.493900 -21.636700
H -7.419900 -15.199000 -23.328700
H -7.207000 -17.085200 -22.012000
O -6.792700 -19.507900 -22.721800
56
Fragment
O -9.545900 -25.355000 -17.853400
H -9.131700 -22.932300 -18.563100
H -8.918800 -21.046100 -17.246500
H -8.910800 -27.341000 -18.938500
C -8.661700 -25.493800 -18.691900
O -8.354300 -26.610400 -19.280400
H -8.343800 -20.292900 -18.537800
N -8.253800 -23.075800 -18.600900
C -8.090600 -20.825400 -17.742500
H -7.807200 -24.291200 -20.131400
C -7.797600 -24.338700 -19.143000
C -7.415300 -22.120200 -18.195800
N -7.228500 -20.038500 -16.900400
H -7.080700 -20.359600 -16.108300
H -6.863800 -24.498200 -18.855300
N -6.677500 -18.531200 -18.595200
C -6.482600 -19.008900 -17.349300
O -6.189100 -22.237000 -18.196400
H -6.142200 -17.156600 -19.867600
C -5.945900 -17.489000 -19.000100
C -5.510400 -18.373700 -16.550000
H -5.336700 -19.131700 -14.728800
N -5.022400 -18.554400 -15.277000
N -4.979700 -16.860200 -18.341900
C -4.770200 -17.335600 -17.087500
C -4.033800 -17.652000 -15.120000
N -3.838200 -16.886400 -16.188000
H -3.525300 -17.570500 -14.322000
H -12.813300 -11.723400 -26.253200
N -12.500500 -11.039300 -24.387200
C -12.304900 -11.804900 -25.455100
C -11.568500 -11.488500 -23.487700
N -11.358900 -11.013100 -22.233300
N -11.316300 -12.707300 -25.298200
H -11.002000 -13.284600 -25.846400
C -10.828300 -12.526600 -24.025200
C -10.392700 -11.641900 -21.575000
H -10.196500 -11.309500 -20.707500
O -10.149500 -16.389900 -22.378700
C -9.856100 -13.161800 -23.225800
N -9.661100 -12.684100 -21.980000
H -9.474900 -18.651100 -21.719900
H -9.258000 -14.512500 -24.466800
N -9.110200 -14.191400 -23.674800
C -8.923400 -16.273100 -22.379300
C -8.541100 -18.491600 -21.432200
H -8.531500 -18.444100 -20.443800
C -8.248000 -14.978300 -22.832700
N -8.084800 -17.228700 -21.974300
H -7.994800 -14.445800 -22.037400
O -7.984400 -20.763300 -21.294800
C -7.677000 -19.646700 -21.883300
H -7.427900 -21.493900 -21.636700
H -7.419900 -15.199000 -23.328700
H -7.207000 -17.085200 -22.012000
O -6.792700 -19.507900 -22.721800
