28
Fragment
O -9.545900 -25.355000 -17.853400
H -9.131700 -22.932300 -18.563100
H -8.918800 -21.046100 -17.246500
H -8.910800 -27.341000 -18.938500
C -8.661700 -25.493800 -18.691900
O -8.354300 -26.610400 -19.280400
H -8.343800 -20.292900 -18.537800
N -8.253800 -23.075800 -18.600900
C -8.090600 -20.825400 -17.742500
H -7.807200 -24.291200 -20.131400
C -7.797600 -24.338700 -19.143000
C -7.415300 -22.120200 -18.195800
N -7.228500 -20.038500 -16.900400
H -7.080700 -20.359600 -16.108300
H -6.863800 -24.498200 -18.855300
N -6.677500 -18.531200 -18.595200
C -6.482600 -19.008900 -17.349300
O -6.189100 -22.237000 -18.196400
H -6.142200 -17.156600 -19.867600
C -5.945900 -17.489000 -19.000100
C -5.510400 -18.373700 -16.550000
H -5.336700 -19.131700 -14.728800
N -5.022400 -18.554400 -15.277000
N -4.979700 -16.860200 -18.341900
C -4.770200 -17.335600 -17.087500
C -4.033800 -17.652000 -15.120000
N -3.838200 -16.886400 -16.188000
H -3.525300 -17.570500 -14.322000
28
Fragment
H -12.813300 -23.417600 -26.253200
N -12.500500 -22.733500 -24.387200
C -12.304900 -23.499100 -25.455100
C -11.568500 -23.182700 -23.487700
N -11.358900 -22.707300 -22.233300
N -11.316300 -24.401500 -25.298200
H -11.002000 -24.978800 -25.846400
C -10.828300 -24.220800 -24.025200
C -10.392700 -23.336100 -21.575000
H -10.196500 -23.003700 -20.707500
O -10.149500 -28.084100 -22.378700
C -9.856100 -24.856000 -23.225800
N -9.661100 -24.378300 -21.980000
H -9.474900 -30.345300 -21.719900
H -9.258000 -26.206700 -24.466800
N -9.110200 -25.885600 -23.674800
C -8.923400 -27.967300 -22.379300
C -8.541100 -30.185800 -21.432200
H -8.531500 -30.138300 -20.443800
C -8.248000 -26.672500 -22.832700
N -8.084800 -28.922900 -21.974300
H -7.994800 -26.140000 -22.037400
O -7.984400 -32.457500 -21.294800
C -7.677000 -31.340900 -21.883300
H -7.427900 -33.188100 -21.636700
H -7.419900 -26.893200 -23.328700
H -7.207000 -28.779400 -22.012000
O -6.792700 -31.202100 -22.721800
56
Fragment
O -9.545900 -25.355000 -17.853400
H -9.131700 -22.932300 -18.563100
H -8.918800 -21.046100 -17.246500
H -8.910800 -27.341000 -18.938500
C -8.661700 -25.493800 -18.691900
O -8.354300 -26.610400 -19.280400
H -8.343800 -20.292900 -18.537800
N -8.253800 -23.075800 -18.600900
C -8.090600 -20.825400 -17.742500
H -7.807200 -24.291200 -20.131400
C -7.797600 -24.338700 -19.143000
C -7.415300 -22.120200 -18.195800
N -7.228500 -20.038500 -16.900400
H -7.080700 -20.359600 -16.108300
H -6.863800 -24.498200 -18.855300
N -6.677500 -18.531200 -18.595200
C -6.482600 -19.008900 -17.349300
O -6.189100 -22.237000 -18.196400
H -6.142200 -17.156600 -19.867600
C -5.945900 -17.489000 -19.000100
C -5.510400 -18.373700 -16.550000
H -5.336700 -19.131700 -14.728800
N -5.022400 -18.554400 -15.277000
N -4.979700 -16.860200 -18.341900
C -4.770200 -17.335600 -17.087500
C -4.033800 -17.652000 -15.120000
N -3.838200 -16.886400 -16.188000
H -3.525300 -17.570500 -14.322000
H -12.813300 -23.417600 -26.253200
N -12.500500 -22.733500 -24.387200
C -12.304900 -23.499100 -25.455100
C -11.568500 -23.182700 -23.487700
N -11.358900 -22.707300 -22.233300
N -11.316300 -24.401500 -25.298200
H -11.002000 -24.978800 -25.846400
C -10.828300 -24.220800 -24.025200
C -10.392700 -23.336100 -21.575000
H -10.196500 -23.003700 -20.707500
O -10.149500 -28.084100 -22.378700
C -9.856100 -24.856000 -23.225800
N -9.661100 -24.378300 -21.980000
H -9.474900 -30.345300 -21.719900
H -9.258000 -26.206700 -24.466800
N -9.110200 -25.885600 -23.674800
C -8.923400 -27.967300 -22.379300
C -8.541100 -30.185800 -21.432200
H -8.531500 -30.138300 -20.443800
C -8.248000 -26.672500 -22.832700
N -8.084800 -28.922900 -21.974300
H -7.994800 -26.140000 -22.037400
O -7.984400 -32.457500 -21.294800
C -7.677000 -31.340900 -21.883300
H -7.427900 -33.188100 -21.636700
H -7.419900 -26.893200 -23.328700
H -7.207000 -28.779400 -22.012000
O -6.792700 -31.202100 -22.721800
