26
Fragment
H -11.724300 -11.605200 -33.168900
Cl -11.289900 -11.941100 -30.416100
C -10.803900 -11.692600 -33.068700
H -10.330100 -11.566800 -35.022100
C -10.243700 -11.852500 -31.815000
C -9.964100 -11.664200 -34.173600
H -9.019100 -11.789300 -38.899400
C -8.868500 -11.954900 -31.636900
C -8.575200 -11.778600 -34.032300
H -8.507300 -12.049400 -30.784400
H -8.257100 -13.076600 -39.369700
C -8.230200 -12.117700 -39.336700
N -8.203100 -11.803500 -36.498800
H -8.189500 -11.768700 -40.230800
C -8.044800 -11.913700 -32.751200
C -7.713500 -11.753000 -35.220800
H -7.122800 -11.977700 -32.642400
C -7.089000 -11.733800 -37.244400
N -7.053400 -11.690500 -38.596400
N -6.393500 -11.659900 -35.141200
N -6.005600 -11.659200 -36.459500
H -5.850100 -11.382000 -40.153600
C -5.768200 -11.759400 -39.275900
H -5.492500 -12.676400 -39.346300
H -5.192400 -11.618000 -36.737300
H -5.114300 -11.265400 -38.775400
26
Fragment
H -14.933800 -9.720000 -21.469100
Cl -14.499400 -9.384100 -18.716400
C -14.013300 -9.632600 -21.368900
H -13.539500 -9.758400 -23.322300
C -13.453100 -9.472700 -20.115200
C -13.173600 -9.661000 -22.473900
H -12.228500 -9.535900 -27.199600
C -12.077900 -9.370300 -19.937100
C -11.784700 -9.546600 -22.332500
H -11.716800 -9.275800 -19.084700
H -11.466500 -8.248600 -27.670000
C -11.439700 -9.207500 -27.637000
N -11.412600 -9.521700 -24.799100
H -11.398900 -9.556500 -28.531100
C -11.254300 -9.411500 -21.051400
C -10.923000 -9.572200 -23.521000
H -10.332300 -9.347500 -20.942600
C -10.298500 -9.591400 -25.544600
N -10.262900 -9.634700 -26.896600
N -9.603000 -9.665300 -23.441400
N -9.215100 -9.666000 -24.759800
H -9.059600 -9.943200 -28.453800
C -8.977700 -9.565800 -27.576100
H -8.702000 -8.648800 -27.646600
H -8.401900 -9.707200 -25.037500
H -8.323700 -10.059800 -27.075600
52
Fragment
H -11.724300 -11.605200 -33.168900
Cl -11.289900 -11.941100 -30.416100
C -10.803900 -11.692600 -33.068700
H -10.330100 -11.566800 -35.022100
C -10.243700 -11.852500 -31.815000
C -9.964100 -11.664200 -34.173600
H -9.019100 -11.789300 -38.899400
C -8.868500 -11.954900 -31.636900
C -8.575200 -11.778600 -34.032300
H -8.507300 -12.049400 -30.784400
H -8.257100 -13.076600 -39.369700
C -8.230200 -12.117700 -39.336700
N -8.203100 -11.803500 -36.498800
H -8.189500 -11.768700 -40.230800
C -8.044800 -11.913700 -32.751200
C -7.713500 -11.753000 -35.220800
H -7.122800 -11.977700 -32.642400
C -7.089000 -11.733800 -37.244400
N -7.053400 -11.690500 -38.596400
N -6.393500 -11.659900 -35.141200
N -6.005600 -11.659200 -36.459500
H -5.850100 -11.382000 -40.153600
C -5.768200 -11.759400 -39.275900
H -5.492500 -12.676400 -39.346300
H -5.192400 -11.618000 -36.737300
H -5.114300 -11.265400 -38.775400
H -14.933800 -9.720000 -21.469100
Cl -14.499400 -9.384100 -18.716400
C -14.013300 -9.632600 -21.368900
H -13.539500 -9.758400 -23.322300
C -13.453100 -9.472700 -20.115200
C -13.173600 -9.661000 -22.473900
H -12.228500 -9.535900 -27.199600
C -12.077900 -9.370300 -19.937100
C -11.784700 -9.546600 -22.332500
H -11.716800 -9.275800 -19.084700
H -11.466500 -8.248600 -27.670000
C -11.439700 -9.207500 -27.637000
N -11.412600 -9.521700 -24.799100
H -11.398900 -9.556500 -28.531100
C -11.254300 -9.411500 -21.051400
C -10.923000 -9.572200 -23.521000
H -10.332300 -9.347500 -20.942600
C -10.298500 -9.591400 -25.544600
N -10.262900 -9.634700 -26.896600
N -9.603000 -9.665300 -23.441400
N -9.215100 -9.666000 -24.759800
H -9.059600 -9.943200 -28.453800
C -8.977700 -9.565800 -27.576100
H -8.702000 -8.648800 -27.646600
H -8.401900 -9.707200 -25.037500
H -8.323700 -10.059800 -27.075600
