26
Fragment
H -11.724300 -11.605200 -33.168900
Cl -11.289900 -11.941100 -30.416100
C -10.803900 -11.692600 -33.068700
H -10.330100 -11.566800 -35.022100
C -10.243700 -11.852500 -31.815000
C -9.964100 -11.664200 -34.173600
H -9.019100 -11.789300 -38.899400
C -8.868500 -11.954900 -31.636900
C -8.575200 -11.778600 -34.032300
H -8.507300 -12.049400 -30.784400
H -8.257100 -13.076600 -39.369700
C -8.230200 -12.117700 -39.336700
N -8.203100 -11.803500 -36.498800
H -8.189500 -11.768700 -40.230800
C -8.044800 -11.913700 -32.751200
C -7.713500 -11.753000 -35.220800
H -7.122800 -11.977700 -32.642400
C -7.089000 -11.733800 -37.244400
N -7.053400 -11.690500 -38.596400
N -6.393500 -11.659900 -35.141200
N -6.005600 -11.659200 -36.459500
H -5.850100 -11.382000 -40.153600
C -5.768200 -11.759400 -39.275900
H -5.492500 -12.676400 -39.346300
H -5.192400 -11.618000 -36.737300
H -5.114300 -11.265400 -38.775400
26
Fragment
H -10.179900 -7.711200 -31.423200
H -10.101700 -8.063800 -33.461400
H -9.801700 -9.122200 -30.852300
C -9.526000 -8.205200 -30.922700
H -9.444000 -7.827800 -30.045000
N -9.288500 -8.105000 -33.739100
N -8.900600 -8.105700 -35.057400
N -8.240700 -8.136300 -31.602300
C -8.205100 -8.179600 -32.954300
H -8.171300 -8.423500 -37.556300
C -7.580600 -8.198800 -34.977900
C -7.249300 -8.359500 -37.447500
H -7.104700 -8.214500 -29.967800
N -7.091100 -8.249300 -33.699800
C -7.064000 -8.563500 -30.861900
H -7.037100 -9.522400 -30.828900
H -6.786800 -8.495200 -39.414200
C -6.718900 -8.224400 -36.166300
C -6.425700 -8.400700 -38.561700
H -6.275100 -8.235100 -31.299200
C -5.330000 -8.110000 -36.025000
C -5.050500 -8.298300 -38.383700
H -4.964100 -8.012600 -35.176500
C -4.490300 -8.138400 -37.129900
Cl -4.004200 -8.386900 -39.782500
H -3.569800 -8.051000 -37.029800
52
Fragment
H -11.724300 -11.605200 -33.168900
Cl -11.289900 -11.941100 -30.416100
C -10.803900 -11.692600 -33.068700
H -10.330100 -11.566800 -35.022100
C -10.243700 -11.852500 -31.815000
C -9.964100 -11.664200 -34.173600
H -9.019100 -11.789300 -38.899400
C -8.868500 -11.954900 -31.636900
C -8.575200 -11.778600 -34.032300
H -8.507300 -12.049400 -30.784400
H -8.257100 -13.076600 -39.369700
C -8.230200 -12.117700 -39.336700
N -8.203100 -11.803500 -36.498800
H -8.189500 -11.768700 -40.230800
C -8.044800 -11.913700 -32.751200
C -7.713500 -11.753000 -35.220800
H -7.122800 -11.977700 -32.642400
C -7.089000 -11.733800 -37.244400
N -7.053400 -11.690500 -38.596400
N -6.393500 -11.659900 -35.141200
N -6.005600 -11.659200 -36.459500
H -5.850100 -11.382000 -40.153600
C -5.768200 -11.759400 -39.275900
H -5.492500 -12.676400 -39.346300
H -5.192400 -11.618000 -36.737300
H -5.114300 -11.265400 -38.775400
H -10.179900 -7.711200 -31.423200
H -10.101700 -8.063800 -33.461400
H -9.801700 -9.122200 -30.852300
C -9.526000 -8.205200 -30.922700
H -9.444000 -7.827800 -30.045000
N -9.288500 -8.105000 -33.739100
N -8.900600 -8.105700 -35.057400
N -8.240700 -8.136300 -31.602300
C -8.205100 -8.179600 -32.954300
H -8.171300 -8.423500 -37.556300
C -7.580600 -8.198800 -34.977900
C -7.249300 -8.359500 -37.447500
H -7.104700 -8.214500 -29.967800
N -7.091100 -8.249300 -33.699800
C -7.064000 -8.563500 -30.861900
H -7.037100 -9.522400 -30.828900
H -6.786800 -8.495200 -39.414200
C -6.718900 -8.224400 -36.166300
C -6.425700 -8.400700 -38.561700
H -6.275100 -8.235100 -31.299200
C -5.330000 -8.110000 -36.025000
C -5.050500 -8.298300 -38.383700
H -4.964100 -8.012600 -35.176500
C -4.490300 -8.138400 -37.129900
Cl -4.004200 -8.386900 -39.782500
H -3.569800 -8.051000 -37.029800
