26
Fragment
H -11.724300 -11.605200 -33.168900
Cl -11.289900 -11.941100 -30.416100
C -10.803900 -11.692600 -33.068700
H -10.330100 -11.566800 -35.022100
C -10.243700 -11.852500 -31.815000
C -9.964100 -11.664200 -34.173600
H -9.019100 -11.789300 -38.899400
C -8.868500 -11.954900 -31.636900
C -8.575200 -11.778600 -34.032300
H -8.507300 -12.049400 -30.784400
H -8.257100 -13.076600 -39.369700
C -8.230200 -12.117700 -39.336700
N -8.203100 -11.803500 -36.498800
H -8.189500 -11.768700 -40.230800
C -8.044800 -11.913700 -32.751200
C -7.713500 -11.753000 -35.220800
H -7.122800 -11.977700 -32.642400
C -7.089000 -11.733800 -37.244400
N -7.053400 -11.690500 -38.596400
N -6.393500 -11.659900 -35.141200
N -6.005600 -11.659200 -36.459500
H -5.850100 -11.382000 -40.153600
C -5.768200 -11.759400 -39.275900
H -5.492500 -12.676400 -39.346300
H -5.192400 -11.618000 -36.737300
H -5.114300 -11.265400 -38.775400
26
Fragment
H -6.970400 -13.614000 -43.123000
H -6.892300 -13.261400 -45.161100
H -6.592200 -12.203000 -42.552100
C -6.316500 -13.120000 -42.622500
H -6.234600 -13.497400 -41.744800
N -6.079000 -13.220200 -45.438900
N -5.691100 -13.219500 -46.757200
N -5.031200 -13.188900 -43.302000
C -4.995600 -13.145600 -44.654100
H -4.961800 -12.901700 -49.256000
C -4.371100 -13.126400 -46.677600
C -4.039900 -12.965700 -49.147200
H -3.895200 -13.110700 -41.667600
N -3.881600 -13.075900 -45.399600
C -3.854500 -12.761700 -42.561700
H -3.827600 -11.802800 -42.528700
H -3.577300 -12.830000 -51.114000
C -3.509400 -13.100800 -47.866100
C -3.216200 -12.924500 -50.261500
H -3.065600 -13.090100 -42.999000
C -2.120600 -13.215200 -47.724800
C -1.841000 -13.026900 -50.083500
H -1.754600 -13.312600 -46.876300
C -1.280800 -13.186800 -48.829700
Cl -0.794700 -12.938300 -51.482300
H -0.360300 -13.274200 -48.729600
52
Fragment
H -11.724300 -11.605200 -33.168900
Cl -11.289900 -11.941100 -30.416100
C -10.803900 -11.692600 -33.068700
H -10.330100 -11.566800 -35.022100
C -10.243700 -11.852500 -31.815000
C -9.964100 -11.664200 -34.173600
H -9.019100 -11.789300 -38.899400
C -8.868500 -11.954900 -31.636900
C -8.575200 -11.778600 -34.032300
H -8.507300 -12.049400 -30.784400
H -8.257100 -13.076600 -39.369700
C -8.230200 -12.117700 -39.336700
N -8.203100 -11.803500 -36.498800
H -8.189500 -11.768700 -40.230800
C -8.044800 -11.913700 -32.751200
C -7.713500 -11.753000 -35.220800
H -7.122800 -11.977700 -32.642400
C -7.089000 -11.733800 -37.244400
N -7.053400 -11.690500 -38.596400
N -6.393500 -11.659900 -35.141200
N -6.005600 -11.659200 -36.459500
H -5.850100 -11.382000 -40.153600
C -5.768200 -11.759400 -39.275900
H -5.492500 -12.676400 -39.346300
H -5.192400 -11.618000 -36.737300
H -5.114300 -11.265400 -38.775400
H -6.970400 -13.614000 -43.123000
H -6.892300 -13.261400 -45.161100
H -6.592200 -12.203000 -42.552100
C -6.316500 -13.120000 -42.622500
H -6.234600 -13.497400 -41.744800
N -6.079000 -13.220200 -45.438900
N -5.691100 -13.219500 -46.757200
N -5.031200 -13.188900 -43.302000
C -4.995600 -13.145600 -44.654100
H -4.961800 -12.901700 -49.256000
C -4.371100 -13.126400 -46.677600
C -4.039900 -12.965700 -49.147200
H -3.895200 -13.110700 -41.667600
N -3.881600 -13.075900 -45.399600
C -3.854500 -12.761700 -42.561700
H -3.827600 -11.802800 -42.528700
H -3.577300 -12.830000 -51.114000
C -3.509400 -13.100800 -47.866100
C -3.216200 -12.924500 -50.261500
H -3.065600 -13.090100 -42.999000
C -2.120600 -13.215200 -47.724800
C -1.841000 -13.026900 -50.083500
H -1.754600 -13.312600 -46.876300
C -1.280800 -13.186800 -48.829700
Cl -0.794700 -12.938300 -51.482300
H -0.360300 -13.274200 -48.729600
