26
Fragment
H -11.724300 -11.605200 -33.168900
Cl -11.289900 -11.941100 -30.416100
C -10.803900 -11.692600 -33.068700
H -10.330100 -11.566800 -35.022100
C -10.243700 -11.852500 -31.815000
C -9.964100 -11.664200 -34.173600
H -9.019100 -11.789300 -38.899400
C -8.868500 -11.954900 -31.636900
C -8.575200 -11.778600 -34.032300
H -8.507300 -12.049400 -30.784400
H -8.257100 -13.076600 -39.369700
C -8.230200 -12.117700 -39.336700
N -8.203100 -11.803500 -36.498800
H -8.189500 -11.768700 -40.230800
C -8.044800 -11.913700 -32.751200
C -7.713500 -11.753000 -35.220800
H -7.122800 -11.977700 -32.642400
C -7.089000 -11.733800 -37.244400
N -7.053400 -11.690500 -38.596400
N -6.393500 -11.659900 -35.141200
N -6.005600 -11.659200 -36.459500
H -5.850100 -11.382000 -40.153600
C -5.768200 -11.759400 -39.275900
H -5.492500 -12.676400 -39.346300
H -5.192400 -11.618000 -36.737300
H -5.114300 -11.265400 -38.775400
26
Fragment
H -20.299600 -11.265400 -19.723500
H -20.221400 -11.618000 -21.761600
H -19.921300 -12.676400 -19.152500
C -19.645600 -11.759400 -19.223000
H -19.563700 -11.382000 -18.345200
N -19.408200 -11.659200 -22.039300
N -19.020300 -11.659900 -23.357700
N -18.360400 -11.690500 -19.902500
C -18.324800 -11.733800 -21.254500
H -18.291000 -11.977700 -25.856500
C -17.700300 -11.753000 -23.278100
C -17.369000 -11.913700 -25.747700
H -17.224400 -11.768700 -18.268000
N -17.210700 -11.803500 -22.000000
C -17.183600 -12.117700 -19.162100
H -17.156800 -13.076600 -19.129100
H -16.906500 -12.049400 -27.714400
C -16.838600 -11.778600 -24.466600
C -16.545400 -11.954900 -26.862000
H -16.394800 -11.789300 -19.599500
C -15.449700 -11.664200 -24.325200
C -15.170200 -11.852500 -26.683900
H -15.083800 -11.566800 -23.476800
C -14.610000 -11.692600 -25.430200
Cl -14.123900 -11.941100 -28.082700
H -13.689500 -11.605200 -25.330000
52
Fragment
H -11.724300 -11.605200 -33.168900
Cl -11.289900 -11.941100 -30.416100
C -10.803900 -11.692600 -33.068700
H -10.330100 -11.566800 -35.022100
C -10.243700 -11.852500 -31.815000
C -9.964100 -11.664200 -34.173600
H -9.019100 -11.789300 -38.899400
C -8.868500 -11.954900 -31.636900
C -8.575200 -11.778600 -34.032300
H -8.507300 -12.049400 -30.784400
H -8.257100 -13.076600 -39.369700
C -8.230200 -12.117700 -39.336700
N -8.203100 -11.803500 -36.498800
H -8.189500 -11.768700 -40.230800
C -8.044800 -11.913700 -32.751200
C -7.713500 -11.753000 -35.220800
H -7.122800 -11.977700 -32.642400
C -7.089000 -11.733800 -37.244400
N -7.053400 -11.690500 -38.596400
N -6.393500 -11.659900 -35.141200
N -6.005600 -11.659200 -36.459500
H -5.850100 -11.382000 -40.153600
C -5.768200 -11.759400 -39.275900
H -5.492500 -12.676400 -39.346300
H -5.192400 -11.618000 -36.737300
H -5.114300 -11.265400 -38.775400
H -20.299600 -11.265400 -19.723500
H -20.221400 -11.618000 -21.761600
H -19.921300 -12.676400 -19.152500
C -19.645600 -11.759400 -19.223000
H -19.563700 -11.382000 -18.345200
N -19.408200 -11.659200 -22.039300
N -19.020300 -11.659900 -23.357700
N -18.360400 -11.690500 -19.902500
C -18.324800 -11.733800 -21.254500
H -18.291000 -11.977700 -25.856500
C -17.700300 -11.753000 -23.278100
C -17.369000 -11.913700 -25.747700
H -17.224400 -11.768700 -18.268000
N -17.210700 -11.803500 -22.000000
C -17.183600 -12.117700 -19.162100
H -17.156800 -13.076600 -19.129100
H -16.906500 -12.049400 -27.714400
C -16.838600 -11.778600 -24.466600
C -16.545400 -11.954900 -26.862000
H -16.394800 -11.789300 -19.599500
C -15.449700 -11.664200 -24.325200
C -15.170200 -11.852500 -26.683900
H -15.083800 -11.566800 -23.476800
C -14.610000 -11.692600 -25.430200
Cl -14.123900 -11.941100 -28.082700
H -13.689500 -11.605200 -25.330000
