26
Fragment
H -11.724300 -11.605200 -33.168900
Cl -11.289900 -11.941100 -30.416100
C -10.803900 -11.692600 -33.068700
H -10.330100 -11.566800 -35.022100
C -10.243700 -11.852500 -31.815000
C -9.964100 -11.664200 -34.173600
H -9.019100 -11.789300 -38.899400
C -8.868500 -11.954900 -31.636900
C -8.575200 -11.778600 -34.032300
H -8.507300 -12.049400 -30.784400
H -8.257100 -13.076600 -39.369700
C -8.230200 -12.117700 -39.336700
N -8.203100 -11.803500 -36.498800
H -8.189500 -11.768700 -40.230800
C -8.044800 -11.913700 -32.751200
C -7.713500 -11.753000 -35.220800
H -7.122800 -11.977700 -32.642400
C -7.089000 -11.733800 -37.244400
N -7.053400 -11.690500 -38.596400
N -6.393500 -11.659900 -35.141200
N -6.005600 -11.659200 -36.459500
H -5.850100 -11.382000 -40.153600
C -5.768200 -11.759400 -39.275900
H -5.492500 -12.676400 -39.346300
H -5.192400 -11.618000 -36.737300
H -5.114300 -11.265400 -38.775400
26
Fragment
H -17.090100 -10.059800 -31.423200
H -17.011900 -9.707200 -33.461400
H -16.711900 -8.648800 -30.852300
C -16.436200 -9.565800 -30.922700
H -16.354200 -9.943200 -30.045000
N -16.198700 -9.666000 -33.739100
N -15.810800 -9.665300 -35.057400
N -15.150900 -9.634700 -31.602300
C -15.115300 -9.591400 -32.954300
H -15.081500 -9.347500 -37.556300
C -14.490800 -9.572200 -34.977900
C -14.159500 -9.411500 -37.447500
H -14.014900 -9.556500 -29.967800
N -14.001300 -9.521700 -33.699800
C -13.974200 -9.207500 -30.861900
H -13.947300 -8.248600 -30.828900
H -13.697000 -9.275800 -39.414200
C -13.629100 -9.546600 -36.166300
C -13.335900 -9.370300 -38.561700
H -13.185300 -9.535900 -31.299200
C -12.240200 -9.661000 -36.025000
C -11.960700 -9.472700 -38.383700
H -11.874300 -9.758400 -35.176500
C -11.400500 -9.632600 -37.129900
Cl -10.914400 -9.384100 -39.782500
H -10.480000 -9.720000 -37.029800
52
Fragment
H -11.724300 -11.605200 -33.168900
Cl -11.289900 -11.941100 -30.416100
C -10.803900 -11.692600 -33.068700
H -10.330100 -11.566800 -35.022100
C -10.243700 -11.852500 -31.815000
C -9.964100 -11.664200 -34.173600
H -9.019100 -11.789300 -38.899400
C -8.868500 -11.954900 -31.636900
C -8.575200 -11.778600 -34.032300
H -8.507300 -12.049400 -30.784400
H -8.257100 -13.076600 -39.369700
C -8.230200 -12.117700 -39.336700
N -8.203100 -11.803500 -36.498800
H -8.189500 -11.768700 -40.230800
C -8.044800 -11.913700 -32.751200
C -7.713500 -11.753000 -35.220800
H -7.122800 -11.977700 -32.642400
C -7.089000 -11.733800 -37.244400
N -7.053400 -11.690500 -38.596400
N -6.393500 -11.659900 -35.141200
N -6.005600 -11.659200 -36.459500
H -5.850100 -11.382000 -40.153600
C -5.768200 -11.759400 -39.275900
H -5.492500 -12.676400 -39.346300
H -5.192400 -11.618000 -36.737300
H -5.114300 -11.265400 -38.775400
H -17.090100 -10.059800 -31.423200
H -17.011900 -9.707200 -33.461400
H -16.711900 -8.648800 -30.852300
C -16.436200 -9.565800 -30.922700
H -16.354200 -9.943200 -30.045000
N -16.198700 -9.666000 -33.739100
N -15.810800 -9.665300 -35.057400
N -15.150900 -9.634700 -31.602300
C -15.115300 -9.591400 -32.954300
H -15.081500 -9.347500 -37.556300
C -14.490800 -9.572200 -34.977900
C -14.159500 -9.411500 -37.447500
H -14.014900 -9.556500 -29.967800
N -14.001300 -9.521700 -33.699800
C -13.974200 -9.207500 -30.861900
H -13.947300 -8.248600 -30.828900
H -13.697000 -9.275800 -39.414200
C -13.629100 -9.546600 -36.166300
C -13.335900 -9.370300 -38.561700
H -13.185300 -9.535900 -31.299200
C -12.240200 -9.661000 -36.025000
C -11.960700 -9.472700 -38.383700
H -11.874300 -9.758400 -35.176500
C -11.400500 -9.632600 -37.129900
Cl -10.914400 -9.384100 -39.782500
H -10.480000 -9.720000 -37.029800
