20
Fragment
N -13.636300 -16.566900 -8.051200
C -13.553400 -15.432500 -7.966400
N -13.503100 -13.062500 -5.453900
C -13.486000 -13.486000 -6.517400
C -13.483700 -14.008100 -7.850400
H -13.463300 -14.726200 -10.393200
C -13.452300 -13.721100 -10.291300
H -13.452000 -13.294200 -12.229600
C -13.441500 -13.180800 -8.952200
C -13.423400 -12.917200 -11.364900
C -13.393900 -11.749300 -8.816000
C -13.375800 -11.485700 -11.228700
H -13.365400 -11.372200 -7.951300
C -13.365000 -10.945300 -9.889700
H -13.354000 -9.940200 -9.787700
C -13.333600 -10.658400 -12.330500
C -13.331300 -11.180400 -13.663500
N -13.314200 -11.604000 -14.727000
C -13.264000 -9.233900 -12.214500
N -13.181000 -8.099500 -12.129700
20
Fragment
N -12.817700 -8.172800 -8.051200
C -12.734800 -7.038300 -7.966400
N -12.684500 -4.668300 -5.453900
C -12.667400 -5.091900 -6.517400
C -12.665100 -5.613900 -7.850400
H -12.644700 -6.332000 -10.393200
C -12.633700 -5.326900 -10.291300
H -12.633400 -4.900000 -12.229600
C -12.622900 -4.786600 -8.952200
C -12.604800 -4.523000 -11.364900
C -12.575300 -3.355100 -8.816000
C -12.557200 -3.091500 -11.228700
H -12.546700 -2.978100 -7.951300
C -12.546400 -2.551200 -9.889700
H -12.535400 -1.546000 -9.787700
C -12.515000 -2.264200 -12.330500
C -12.512700 -2.786200 -13.663500
N -12.495600 -3.209800 -14.727000
C -12.445300 -0.839700 -12.214500
N -12.362400 0.294700 -12.129700
40
Fragment
N -13.636300 -16.566900 -8.051200
C -13.553400 -15.432500 -7.966400
N -13.503100 -13.062500 -5.453900
C -13.486000 -13.486000 -6.517400
C -13.483700 -14.008100 -7.850400
H -13.463300 -14.726200 -10.393200
C -13.452300 -13.721100 -10.291300
H -13.452000 -13.294200 -12.229600
C -13.441500 -13.180800 -8.952200
C -13.423400 -12.917200 -11.364900
C -13.393900 -11.749300 -8.816000
C -13.375800 -11.485700 -11.228700
H -13.365400 -11.372200 -7.951300
C -13.365000 -10.945300 -9.889700
H -13.354000 -9.940200 -9.787700
C -13.333600 -10.658400 -12.330500
C -13.331300 -11.180400 -13.663500
N -13.314200 -11.604000 -14.727000
C -13.264000 -9.233900 -12.214500
N -13.181000 -8.099500 -12.129700
N -12.817700 -8.172800 -8.051200
C -12.734800 -7.038300 -7.966400
N -12.684500 -4.668300 -5.453900
C -12.667400 -5.091900 -6.517400
C -12.665100 -5.613900 -7.850400
H -12.644700 -6.332000 -10.393200
C -12.633700 -5.326900 -10.291300
H -12.633400 -4.900000 -12.229600
C -12.622900 -4.786600 -8.952200
C -12.604800 -4.523000 -11.364900
C -12.575300 -3.355100 -8.816000
C -12.557200 -3.091500 -11.228700
H -12.546700 -2.978100 -7.951300
C -12.546400 -2.551200 -9.889700
H -12.535400 -1.546000 -9.787700
C -12.515000 -2.264200 -12.330500
C -12.512700 -2.786200 -13.663500
N -12.495600 -3.209800 -14.727000
C -12.445300 -0.839700 -12.214500
N -12.362400 0.294700 -12.129700
