20
Fragment
N -13.636300 -16.566900 -8.051200
C -13.553400 -15.432500 -7.966400
N -13.503100 -13.062500 -5.453900
C -13.486000 -13.486000 -6.517400
C -13.483700 -14.008100 -7.850400
H -13.463300 -14.726200 -10.393200
C -13.452300 -13.721100 -10.291300
H -13.452000 -13.294200 -12.229600
C -13.441500 -13.180800 -8.952200
C -13.423400 -12.917200 -11.364900
C -13.393900 -11.749300 -8.816000
C -13.375800 -11.485700 -11.228700
H -13.365400 -11.372200 -7.951300
C -13.365000 -10.945300 -9.889700
H -13.354000 -9.940200 -9.787700
C -13.333600 -10.658400 -12.330500
C -13.331300 -11.180400 -13.663500
N -13.314200 -11.604000 -14.727000
C -13.264000 -9.233900 -12.214500
N -13.181000 -8.099500 -12.129700
20
Fragment
N -11.832400 -21.022100 2.039300
C -11.749400 -19.887700 2.124000
N -11.699200 -17.517600 4.636600
C -11.682100 -17.941200 3.573000
C -11.679800 -18.463200 2.240100
H -11.659400 -19.181300 -0.302700
C -11.648400 -18.176200 -0.200800
H -11.648000 -17.749300 -2.139200
C -11.637600 -17.635900 1.138200
C -11.619500 -17.372300 -1.274400
C -11.590000 -16.204400 1.274400
C -11.571900 -15.940800 -1.138200
H -11.561400 -15.827400 2.139200
C -11.561100 -15.400500 0.200800
H -11.550100 -14.395400 0.302700
C -11.529700 -15.113500 -2.240100
C -11.527400 -15.635500 -3.573000
N -11.510300 -16.059100 -4.636600
C -11.460000 -13.689000 -2.124000
N -11.377100 -12.554600 -2.039300
40
Fragment
N -13.636300 -16.566900 -8.051200
C -13.553400 -15.432500 -7.966400
N -13.503100 -13.062500 -5.453900
C -13.486000 -13.486000 -6.517400
C -13.483700 -14.008100 -7.850400
H -13.463300 -14.726200 -10.393200
C -13.452300 -13.721100 -10.291300
H -13.452000 -13.294200 -12.229600
C -13.441500 -13.180800 -8.952200
C -13.423400 -12.917200 -11.364900
C -13.393900 -11.749300 -8.816000
C -13.375800 -11.485700 -11.228700
H -13.365400 -11.372200 -7.951300
C -13.365000 -10.945300 -9.889700
H -13.354000 -9.940200 -9.787700
C -13.333600 -10.658400 -12.330500
C -13.331300 -11.180400 -13.663500
N -13.314200 -11.604000 -14.727000
C -13.264000 -9.233900 -12.214500
N -13.181000 -8.099500 -12.129700
N -11.832400 -21.022100 2.039300
C -11.749400 -19.887700 2.124000
N -11.699200 -17.517600 4.636600
C -11.682100 -17.941200 3.573000
C -11.679800 -18.463200 2.240100
H -11.659400 -19.181300 -0.302700
C -11.648400 -18.176200 -0.200800
H -11.648000 -17.749300 -2.139200
C -11.637600 -17.635900 1.138200
C -11.619500 -17.372300 -1.274400
C -11.590000 -16.204400 1.274400
C -11.571900 -15.940800 -1.138200
H -11.561400 -15.827400 2.139200
C -11.561100 -15.400500 0.200800
H -11.550100 -14.395400 0.302700
C -11.529700 -15.113500 -2.240100
C -11.527400 -15.635500 -3.573000
N -11.510300 -16.059100 -4.636600
C -11.460000 -13.689000 -2.124000
N -11.377100 -12.554600 -2.039300
