17
Fragment
H -10.909600 -24.403500 -28.932600
N -10.770200 -25.535800 -27.357500
C -10.654500 -24.403200 -28.037600
H -10.460200 -26.289000 -25.588500
C -10.398900 -25.503600 -26.082200
C -10.178300 -23.223000 -27.498100
H -10.103000 -22.459100 -28.022600
C -9.928500 -24.375500 -25.448500
C -9.816900 -23.199800 -26.170800
H -9.689600 -24.402800 -24.549600
O -9.482700 -21.874400 -24.229400
C -9.366300 -21.964700 -25.445500
H -9.158500 -19.389300 -25.136700
N -8.852900 -20.983300 -26.191900
H -8.798600 -21.086600 -27.044200
N -8.395900 -19.774900 -25.609700
H -7.701400 -20.100600 -24.915500
13
Fragment
F -10.208200 -26.959100 -33.318800
H -9.783400 -25.333000 -31.414500
H -9.717600 -26.701400 -35.657500
C -9.643600 -25.723900 -33.340600
C -9.493900 -25.004600 -32.235400
N -9.336000 -25.932000 -35.692800
C -9.186100 -25.220100 -34.593600
H -9.051900 -25.626300 -36.445000
N -8.910600 -23.781900 -32.322000
H -8.824900 -23.307000 -31.610200
N -8.592200 -24.022000 -34.647900
C -8.452600 -23.281300 -33.521000
O -7.921000 -22.161200 -33.543000
30
Fragment
H -10.909600 -24.403500 -28.932600
N -10.770200 -25.535800 -27.357500
C -10.654500 -24.403200 -28.037600
H -10.460200 -26.289000 -25.588500
C -10.398900 -25.503600 -26.082200
C -10.178300 -23.223000 -27.498100
H -10.103000 -22.459100 -28.022600
C -9.928500 -24.375500 -25.448500
C -9.816900 -23.199800 -26.170800
H -9.689600 -24.402800 -24.549600
O -9.482700 -21.874400 -24.229400
C -9.366300 -21.964700 -25.445500
H -9.158500 -19.389300 -25.136700
N -8.852900 -20.983300 -26.191900
H -8.798600 -21.086600 -27.044200
N -8.395900 -19.774900 -25.609700
H -7.701400 -20.100600 -24.915500
F -10.208200 -26.959100 -33.318800
H -9.783400 -25.333000 -31.414500
H -9.717600 -26.701400 -35.657500
C -9.643600 -25.723900 -33.340600
C -9.493900 -25.004600 -32.235400
N -9.336000 -25.932000 -35.692800
C -9.186100 -25.220100 -34.593600
H -9.051900 -25.626300 -36.445000
N -8.910600 -23.781900 -32.322000
H -8.824900 -23.307000 -31.610200
N -8.592200 -24.022000 -34.647900
C -8.452600 -23.281300 -33.521000
O -7.921000 -22.161200 -33.543000
