17
Fragment
H -10.909600 -24.403500 -28.932600
N -10.770200 -25.535800 -27.357500
C -10.654500 -24.403200 -28.037600
H -10.460200 -26.289000 -25.588500
C -10.398900 -25.503600 -26.082200
C -10.178300 -23.223000 -27.498100
H -10.103000 -22.459100 -28.022600
C -9.928500 -24.375500 -25.448500
C -9.816900 -23.199800 -26.170800
H -9.689600 -24.402800 -24.549600
O -9.482700 -21.874400 -24.229400
C -9.366300 -21.964700 -25.445500
H -9.158500 -19.389300 -25.136700
N -8.852900 -20.983300 -26.191900
H -8.798600 -21.086600 -27.044200
N -8.395900 -19.774900 -25.609700
H -7.701400 -20.100600 -24.915500
13
Fragment
O -8.537000 -22.239200 -30.094200
C -8.005400 -21.119200 -30.116100
N -7.865800 -20.378500 -28.989300
H -7.633000 -21.093400 -32.027000
N -7.547300 -20.618600 -31.315200
H -7.406000 -18.774200 -27.192200
C -7.271800 -19.180400 -29.043500
N -7.121900 -18.468500 -27.944400
C -6.964000 -19.395900 -31.401800
C -6.814300 -18.676600 -30.296500
H -6.740300 -17.699100 -27.979700
H -6.674600 -19.067500 -32.222700
F -6.249800 -17.441400 -30.318300
30
Fragment
H -10.909600 -24.403500 -28.932600
N -10.770200 -25.535800 -27.357500
C -10.654500 -24.403200 -28.037600
H -10.460200 -26.289000 -25.588500
C -10.398900 -25.503600 -26.082200
C -10.178300 -23.223000 -27.498100
H -10.103000 -22.459100 -28.022600
C -9.928500 -24.375500 -25.448500
C -9.816900 -23.199800 -26.170800
H -9.689600 -24.402800 -24.549600
O -9.482700 -21.874400 -24.229400
C -9.366300 -21.964700 -25.445500
H -9.158500 -19.389300 -25.136700
N -8.852900 -20.983300 -26.191900
H -8.798600 -21.086600 -27.044200
N -8.395900 -19.774900 -25.609700
H -7.701400 -20.100600 -24.915500
O -8.537000 -22.239200 -30.094200
C -8.005400 -21.119200 -30.116100
N -7.865800 -20.378500 -28.989300
H -7.633000 -21.093400 -32.027000
N -7.547300 -20.618600 -31.315200
H -7.406000 -18.774200 -27.192200
C -7.271800 -19.180400 -29.043500
N -7.121900 -18.468500 -27.944400
C -6.964000 -19.395900 -31.401800
C -6.814300 -18.676600 -30.296500
H -6.740300 -17.699100 -27.979700
H -6.674600 -19.067500 -32.222700
F -6.249800 -17.441400 -30.318300
