17
Fragment
H -10.909600 -24.403500 -28.932600
N -10.770200 -25.535800 -27.357500
C -10.654500 -24.403200 -28.037600
H -10.460200 -26.289000 -25.588500
C -10.398900 -25.503600 -26.082200
C -10.178300 -23.223000 -27.498100
H -10.103000 -22.459100 -28.022600
C -9.928500 -24.375500 -25.448500
C -9.816900 -23.199800 -26.170800
H -9.689600 -24.402800 -24.549600
O -9.482700 -21.874400 -24.229400
C -9.366300 -21.964700 -25.445500
H -9.158500 -19.389300 -25.136700
N -8.852900 -20.983300 -26.191900
H -8.798600 -21.086600 -27.044200
N -8.395900 -19.774900 -25.609700
H -7.701400 -20.100600 -24.915500
17
Fragment
H -13.540400 -29.950200 -22.812300
N -12.846000 -30.275900 -22.118200
H -12.443200 -28.964200 -20.683700
N -12.389000 -29.067500 -21.535900
H -12.083300 -30.661400 -22.591200
C -11.875600 -28.086100 -22.282400
O -11.759200 -28.176400 -23.498500
H -11.552200 -25.648000 -23.178200
C -11.425000 -26.851000 -21.557100
C -11.313400 -25.675300 -22.279400
H -11.138800 -27.591600 -19.705200
C -11.063600 -26.827800 -20.229800
C -10.842900 -24.547200 -21.645700
H -10.781600 -23.761800 -22.139400
C -10.587400 -25.647600 -19.690300
N -10.471600 -24.515000 -20.370400
H -10.332300 -25.647300 -18.795200
34
Fragment
H -10.909600 -24.403500 -28.932600
N -10.770200 -25.535800 -27.357500
C -10.654500 -24.403200 -28.037600
H -10.460200 -26.289000 -25.588500
C -10.398900 -25.503600 -26.082200
C -10.178300 -23.223000 -27.498100
H -10.103000 -22.459100 -28.022600
C -9.928500 -24.375500 -25.448500
C -9.816900 -23.199800 -26.170800
H -9.689600 -24.402800 -24.549600
O -9.482700 -21.874400 -24.229400
C -9.366300 -21.964700 -25.445500
H -9.158500 -19.389300 -25.136700
N -8.852900 -20.983300 -26.191900
H -8.798600 -21.086600 -27.044200
N -8.395900 -19.774900 -25.609700
H -7.701400 -20.100600 -24.915500
H -13.540400 -29.950200 -22.812300
N -12.846000 -30.275900 -22.118200
H -12.443200 -28.964200 -20.683700
N -12.389000 -29.067500 -21.535900
H -12.083300 -30.661400 -22.591200
C -11.875600 -28.086100 -22.282400
O -11.759200 -28.176400 -23.498500
H -11.552200 -25.648000 -23.178200
C -11.425000 -26.851000 -21.557100
C -11.313400 -25.675300 -22.279400
H -11.138800 -27.591600 -19.705200
C -11.063600 -26.827800 -20.229800
C -10.842900 -24.547200 -21.645700
H -10.781600 -23.761800 -22.139400
C -10.587400 -25.647600 -19.690300
N -10.471600 -24.515000 -20.370400
H -10.332300 -25.647300 -18.795200
