24
Fragment
H -13.739400 -19.404100 -11.232900
N -12.988700 -19.276000 -10.920700
O -12.939300 -19.757700 -13.560100
N -12.767100 -18.932200 -9.663400
N -11.867800 -19.528300 -13.038900
C -11.857300 -19.218800 -11.640400
O -11.645000 -18.081800 -7.413300
C -11.464200 -18.664400 -9.612900
N -10.890800 -18.257300 -8.353600
O -10.826000 -16.171400 -12.164000
C -10.818600 -18.816100 -10.840800
O -10.792100 -19.550700 -13.607900
O -9.677600 -18.111300 -8.325000
N -9.621600 -16.230200 -12.327200
C -9.431100 -18.512000 -11.208300
O -9.135400 -21.025600 -9.937400
C -8.941700 -17.389200 -11.831800
O -8.939900 -15.391700 -12.889000
C -8.254500 -19.251800 -11.017600
N -8.135800 -20.549300 -10.439400
N -7.612300 -17.496400 -11.955700
N -7.165800 -18.636600 -11.462800
H -7.155300 -16.872900 -12.324700
O -7.051500 -21.107000 -10.500200
24
Fragment
H -19.290200 -26.365400 -11.232900
N -18.539500 -26.237300 -10.920700
O -18.490200 -26.719100 -13.560100
N -18.318000 -25.893600 -9.663400
N -17.418700 -26.489600 -13.038900
C -17.408100 -26.180100 -11.640400
O -17.195800 -25.043200 -7.413300
C -17.015000 -25.625700 -9.612900
N -16.441600 -25.218600 -8.353600
O -16.376900 -23.132700 -12.164000
C -16.369400 -25.777500 -10.840800
O -16.343000 -26.512000 -13.607900
O -15.228400 -25.072700 -8.325000
N -15.172400 -23.191600 -12.327200
C -14.982000 -25.473400 -11.208300
O -14.686200 -27.987000 -9.937400
C -14.492600 -24.350500 -11.831800
O -14.490700 -22.353000 -12.889000
C -13.805300 -26.213100 -11.017600
N -13.686700 -27.510700 -10.439400
N -13.163200 -24.457700 -11.955700
N -12.716600 -25.598000 -11.462800
H -12.706200 -23.834300 -12.324700
O -12.602300 -28.068300 -10.500200
48
Fragment
H -13.739400 -19.404100 -11.232900
N -12.988700 -19.276000 -10.920700
O -12.939300 -19.757700 -13.560100
N -12.767100 -18.932200 -9.663400
N -11.867800 -19.528300 -13.038900
C -11.857300 -19.218800 -11.640400
O -11.645000 -18.081800 -7.413300
C -11.464200 -18.664400 -9.612900
N -10.890800 -18.257300 -8.353600
O -10.826000 -16.171400 -12.164000
C -10.818600 -18.816100 -10.840800
O -10.792100 -19.550700 -13.607900
O -9.677600 -18.111300 -8.325000
N -9.621600 -16.230200 -12.327200
C -9.431100 -18.512000 -11.208300
O -9.135400 -21.025600 -9.937400
C -8.941700 -17.389200 -11.831800
O -8.939900 -15.391700 -12.889000
C -8.254500 -19.251800 -11.017600
N -8.135800 -20.549300 -10.439400
N -7.612300 -17.496400 -11.955700
N -7.165800 -18.636600 -11.462800
H -7.155300 -16.872900 -12.324700
O -7.051500 -21.107000 -10.500200
H -19.290200 -26.365400 -11.232900
N -18.539500 -26.237300 -10.920700
O -18.490200 -26.719100 -13.560100
N -18.318000 -25.893600 -9.663400
N -17.418700 -26.489600 -13.038900
C -17.408100 -26.180100 -11.640400
O -17.195800 -25.043200 -7.413300
C -17.015000 -25.625700 -9.612900
N -16.441600 -25.218600 -8.353600
O -16.376900 -23.132700 -12.164000
C -16.369400 -25.777500 -10.840800
O -16.343000 -26.512000 -13.607900
O -15.228400 -25.072700 -8.325000
N -15.172400 -23.191600 -12.327200
C -14.982000 -25.473400 -11.208300
O -14.686200 -27.987000 -9.937400
C -14.492600 -24.350500 -11.831800
O -14.490700 -22.353000 -12.889000
C -13.805300 -26.213100 -11.017600
N -13.686700 -27.510700 -10.439400
N -13.163200 -24.457700 -11.955700
N -12.716600 -25.598000 -11.462800
H -12.706200 -23.834300 -12.324700
O -12.602300 -28.068300 -10.500200
