24
Fragment
H -13.739400 -19.404100 -11.232900
N -12.988700 -19.276000 -10.920700
O -12.939300 -19.757700 -13.560100
N -12.767100 -18.932200 -9.663400
N -11.867800 -19.528300 -13.038900
C -11.857300 -19.218800 -11.640400
O -11.645000 -18.081800 -7.413300
C -11.464200 -18.664400 -9.612900
N -10.890800 -18.257300 -8.353600
O -10.826000 -16.171400 -12.164000
C -10.818600 -18.816100 -10.840800
O -10.792100 -19.550700 -13.607900
O -9.677600 -18.111300 -8.325000
N -9.621600 -16.230200 -12.327200
C -9.431100 -18.512000 -11.208300
O -9.135400 -21.025600 -9.937400
C -8.941700 -17.389200 -11.831800
O -8.939900 -15.391700 -12.889000
C -8.254500 -19.251800 -11.017600
N -8.135800 -20.549300 -10.439400
N -7.612300 -17.496400 -11.955700
N -7.165800 -18.636600 -11.462800
H -7.155300 -16.872900 -12.324700
O -7.051500 -21.107000 -10.500200
3
Fragment
H -5.094900 -19.380400 -11.694200
H -4.395300 -20.104400 -12.578400
O -4.306200 -19.569500 -11.954100
27
Fragment
H -13.739400 -19.404100 -11.232900
N -12.988700 -19.276000 -10.920700
O -12.939300 -19.757700 -13.560100
N -12.767100 -18.932200 -9.663400
N -11.867800 -19.528300 -13.038900
C -11.857300 -19.218800 -11.640400
O -11.645000 -18.081800 -7.413300
C -11.464200 -18.664400 -9.612900
N -10.890800 -18.257300 -8.353600
O -10.826000 -16.171400 -12.164000
C -10.818600 -18.816100 -10.840800
O -10.792100 -19.550700 -13.607900
O -9.677600 -18.111300 -8.325000
N -9.621600 -16.230200 -12.327200
C -9.431100 -18.512000 -11.208300
O -9.135400 -21.025600 -9.937400
C -8.941700 -17.389200 -11.831800
O -8.939900 -15.391700 -12.889000
C -8.254500 -19.251800 -11.017600
N -8.135800 -20.549300 -10.439400
N -7.612300 -17.496400 -11.955700
N -7.165800 -18.636600 -11.462800
H -7.155300 -16.872900 -12.324700
O -7.051500 -21.107000 -10.500200
H -5.094900 -19.380400 -11.694200
H -4.395300 -20.104400 -12.578400
O -4.306200 -19.569500 -11.954100
