24
Fragment
H -13.739400 -19.404100 -11.232900
N -12.988700 -19.276000 -10.920700
O -12.939300 -19.757700 -13.560100
N -12.767100 -18.932200 -9.663400
N -11.867800 -19.528300 -13.038900
C -11.857300 -19.218800 -11.640400
O -11.645000 -18.081800 -7.413300
C -11.464200 -18.664400 -9.612900
N -10.890800 -18.257300 -8.353600
O -10.826000 -16.171400 -12.164000
C -10.818600 -18.816100 -10.840800
O -10.792100 -19.550700 -13.607900
O -9.677600 -18.111300 -8.325000
N -9.621600 -16.230200 -12.327200
C -9.431100 -18.512000 -11.208300
O -9.135400 -21.025600 -9.937400
C -8.941700 -17.389200 -11.831800
O -8.939900 -15.391700 -12.889000
C -8.254500 -19.251800 -11.017600
N -8.135800 -20.549300 -10.439400
N -7.612300 -17.496400 -11.955700
N -7.165800 -18.636600 -11.462800
H -7.155300 -16.872900 -12.324700
O -7.051500 -21.107000 -10.500200
24
Fragment
H -17.841200 -15.402700 -15.077100
N -17.090400 -15.530800 -14.765000
O -17.041100 -15.049000 -17.404300
N -16.868900 -15.874500 -13.507700
N -15.969600 -15.278500 -16.883200
C -15.959000 -15.588000 -15.484600
O -15.746700 -16.724900 -11.257500
C -15.565900 -16.142400 -13.457200
N -14.992500 -16.549500 -12.197800
O -14.927800 -18.635400 -16.008200
C -14.920300 -15.990600 -14.685000
O -14.893900 -15.256100 -17.452100
O -13.779300 -16.695400 -12.169300
N -13.723300 -18.576500 -16.171500
C -13.532900 -16.294700 -15.052500
O -13.237100 -13.781100 -13.781600
C -13.043500 -17.417600 -15.676100
O -13.041600 -19.415100 -16.733200
C -12.356200 -15.555000 -14.861900
N -12.237600 -14.257400 -14.283700
N -11.714100 -17.310400 -15.799900
N -11.267600 -16.170100 -15.307000
H -11.257100 -17.933800 -16.168900
O -11.153300 -13.699800 -14.344400
48
Fragment
H -13.739400 -19.404100 -11.232900
N -12.988700 -19.276000 -10.920700
O -12.939300 -19.757700 -13.560100
N -12.767100 -18.932200 -9.663400
N -11.867800 -19.528300 -13.038900
C -11.857300 -19.218800 -11.640400
O -11.645000 -18.081800 -7.413300
C -11.464200 -18.664400 -9.612900
N -10.890800 -18.257300 -8.353600
O -10.826000 -16.171400 -12.164000
C -10.818600 -18.816100 -10.840800
O -10.792100 -19.550700 -13.607900
O -9.677600 -18.111300 -8.325000
N -9.621600 -16.230200 -12.327200
C -9.431100 -18.512000 -11.208300
O -9.135400 -21.025600 -9.937400
C -8.941700 -17.389200 -11.831800
O -8.939900 -15.391700 -12.889000
C -8.254500 -19.251800 -11.017600
N -8.135800 -20.549300 -10.439400
N -7.612300 -17.496400 -11.955700
N -7.165800 -18.636600 -11.462800
H -7.155300 -16.872900 -12.324700
O -7.051500 -21.107000 -10.500200
H -17.841200 -15.402700 -15.077100
N -17.090400 -15.530800 -14.765000
O -17.041100 -15.049000 -17.404300
N -16.868900 -15.874500 -13.507700
N -15.969600 -15.278500 -16.883200
C -15.959000 -15.588000 -15.484600
O -15.746700 -16.724900 -11.257500
C -15.565900 -16.142400 -13.457200
N -14.992500 -16.549500 -12.197800
O -14.927800 -18.635400 -16.008200
C -14.920300 -15.990600 -14.685000
O -14.893900 -15.256100 -17.452100
O -13.779300 -16.695400 -12.169300
N -13.723300 -18.576500 -16.171500
C -13.532900 -16.294700 -15.052500
O -13.237100 -13.781100 -13.781600
C -13.043500 -17.417600 -15.676100
O -13.041600 -19.415100 -16.733200
C -12.356200 -15.555000 -14.861900
N -12.237600 -14.257400 -14.283700
N -11.714100 -17.310400 -15.799900
N -11.267600 -16.170100 -15.307000
H -11.257100 -17.933800 -16.168900
O -11.153300 -13.699800 -14.344400
