24
Fragment
H -13.739400 -19.404100 -11.232900
N -12.988700 -19.276000 -10.920700
O -12.939300 -19.757700 -13.560100
N -12.767100 -18.932200 -9.663400
N -11.867800 -19.528300 -13.038900
C -11.857300 -19.218800 -11.640400
O -11.645000 -18.081800 -7.413300
C -11.464200 -18.664400 -9.612900
N -10.890800 -18.257300 -8.353600
O -10.826000 -16.171400 -12.164000
C -10.818600 -18.816100 -10.840800
O -10.792100 -19.550700 -13.607900
O -9.677600 -18.111300 -8.325000
N -9.621600 -16.230200 -12.327200
C -9.431100 -18.512000 -11.208300
O -9.135400 -21.025600 -9.937400
C -8.941700 -17.389200 -11.831800
O -8.939900 -15.391700 -12.889000
C -8.254500 -19.251800 -11.017600
N -8.135800 -20.549300 -10.439400
N -7.612300 -17.496400 -11.955700
N -7.165800 -18.636600 -11.462800
H -7.155300 -16.872900 -12.324700
O -7.051500 -21.107000 -10.500200
24
Fragment
H -16.637600 -19.404100 -3.544400
N -15.886900 -19.276000 -3.232200
O -15.837500 -19.757700 -5.871600
N -15.665300 -18.932200 -1.974900
N -14.766000 -19.528300 -5.350400
C -14.755400 -19.218800 -3.951900
O -14.543200 -18.081800 0.275200
C -14.362300 -18.664400 -1.924400
N -13.789000 -18.257300 -0.665100
O -13.724200 -16.171400 -4.475500
C -13.716800 -18.816100 -3.152300
O -13.690300 -19.550700 -5.919400
O -12.575800 -18.111300 -0.636500
N -12.519800 -16.230200 -4.638700
C -12.329300 -18.512000 -3.519800
O -12.033600 -21.025600 -2.248900
C -11.839900 -17.389200 -4.143300
O -11.838100 -15.391700 -5.200500
C -11.152700 -19.251800 -3.329100
N -11.034000 -20.549300 -2.750900
N -10.510500 -17.496400 -4.267200
N -10.064000 -18.636600 -3.774300
H -10.053500 -16.872900 -4.636200
O -9.949700 -21.107000 -2.811700
48
Fragment
H -13.739400 -19.404100 -11.232900
N -12.988700 -19.276000 -10.920700
O -12.939300 -19.757700 -13.560100
N -12.767100 -18.932200 -9.663400
N -11.867800 -19.528300 -13.038900
C -11.857300 -19.218800 -11.640400
O -11.645000 -18.081800 -7.413300
C -11.464200 -18.664400 -9.612900
N -10.890800 -18.257300 -8.353600
O -10.826000 -16.171400 -12.164000
C -10.818600 -18.816100 -10.840800
O -10.792100 -19.550700 -13.607900
O -9.677600 -18.111300 -8.325000
N -9.621600 -16.230200 -12.327200
C -9.431100 -18.512000 -11.208300
O -9.135400 -21.025600 -9.937400
C -8.941700 -17.389200 -11.831800
O -8.939900 -15.391700 -12.889000
C -8.254500 -19.251800 -11.017600
N -8.135800 -20.549300 -10.439400
N -7.612300 -17.496400 -11.955700
N -7.165800 -18.636600 -11.462800
H -7.155300 -16.872900 -12.324700
O -7.051500 -21.107000 -10.500200
H -16.637600 -19.404100 -3.544400
N -15.886900 -19.276000 -3.232200
O -15.837500 -19.757700 -5.871600
N -15.665300 -18.932200 -1.974900
N -14.766000 -19.528300 -5.350400
C -14.755400 -19.218800 -3.951900
O -14.543200 -18.081800 0.275200
C -14.362300 -18.664400 -1.924400
N -13.789000 -18.257300 -0.665100
O -13.724200 -16.171400 -4.475500
C -13.716800 -18.816100 -3.152300
O -13.690300 -19.550700 -5.919400
O -12.575800 -18.111300 -0.636500
N -12.519800 -16.230200 -4.638700
C -12.329300 -18.512000 -3.519800
O -12.033600 -21.025600 -2.248900
C -11.839900 -17.389200 -4.143300
O -11.838100 -15.391700 -5.200500
C -11.152700 -19.251800 -3.329100
N -11.034000 -20.549300 -2.750900
N -10.510500 -17.496400 -4.267200
N -10.064000 -18.636600 -3.774300
H -10.053500 -16.872900 -4.636200
O -9.949700 -21.107000 -2.811700
