24
Fragment
H -13.739400 -19.404100 -11.232900
N -12.988700 -19.276000 -10.920700
O -12.939300 -19.757700 -13.560100
N -12.767100 -18.932200 -9.663400
N -11.867800 -19.528300 -13.038900
C -11.857300 -19.218800 -11.640400
O -11.645000 -18.081800 -7.413300
C -11.464200 -18.664400 -9.612900
N -10.890800 -18.257300 -8.353600
O -10.826000 -16.171400 -12.164000
C -10.818600 -18.816100 -10.840800
O -10.792100 -19.550700 -13.607900
O -9.677600 -18.111300 -8.325000
N -9.621600 -16.230200 -12.327200
C -9.431100 -18.512000 -11.208300
O -9.135400 -21.025600 -9.937400
C -8.941700 -17.389200 -11.831800
O -8.939900 -15.391700 -12.889000
C -8.254500 -19.251800 -11.017600
N -8.135800 -20.549300 -10.439400
N -7.612300 -17.496400 -11.955700
N -7.165800 -18.636600 -11.462800
H -7.155300 -16.872900 -12.324700
O -7.051500 -21.107000 -10.500200
24
Fragment
H -10.841200 -19.404100 -18.921400
N -10.090500 -19.276000 -18.609200
O -10.041100 -19.757700 -21.248600
N -9.868900 -18.932200 -17.351900
N -8.969700 -19.528300 -20.727400
C -8.959100 -19.218800 -19.328900
O -8.746800 -18.081800 -15.101700
C -8.566000 -18.664400 -17.301400
N -7.992600 -18.257300 -16.042100
O -7.927900 -16.171400 -19.852500
C -7.920400 -18.816100 -18.529300
O -7.893900 -19.550700 -21.296400
O -6.779400 -18.111300 -16.013500
N -6.723400 -16.230200 -20.015700
C -6.532900 -18.512000 -18.896800
O -6.237200 -21.025600 -17.625900
C -6.043500 -17.389200 -19.520300
O -6.041700 -15.391700 -20.577500
C -5.356300 -19.251800 -18.706100
N -5.237600 -20.549300 -18.127900
N -4.714200 -17.496400 -19.644200
N -4.267600 -18.636600 -19.151300
H -4.257100 -16.872900 -20.013200
O -4.153300 -21.107000 -18.188700
48
Fragment
H -13.739400 -19.404100 -11.232900
N -12.988700 -19.276000 -10.920700
O -12.939300 -19.757700 -13.560100
N -12.767100 -18.932200 -9.663400
N -11.867800 -19.528300 -13.038900
C -11.857300 -19.218800 -11.640400
O -11.645000 -18.081800 -7.413300
C -11.464200 -18.664400 -9.612900
N -10.890800 -18.257300 -8.353600
O -10.826000 -16.171400 -12.164000
C -10.818600 -18.816100 -10.840800
O -10.792100 -19.550700 -13.607900
O -9.677600 -18.111300 -8.325000
N -9.621600 -16.230200 -12.327200
C -9.431100 -18.512000 -11.208300
O -9.135400 -21.025600 -9.937400
C -8.941700 -17.389200 -11.831800
O -8.939900 -15.391700 -12.889000
C -8.254500 -19.251800 -11.017600
N -8.135800 -20.549300 -10.439400
N -7.612300 -17.496400 -11.955700
N -7.165800 -18.636600 -11.462800
H -7.155300 -16.872900 -12.324700
O -7.051500 -21.107000 -10.500200
H -10.841200 -19.404100 -18.921400
N -10.090500 -19.276000 -18.609200
O -10.041100 -19.757700 -21.248600
N -9.868900 -18.932200 -17.351900
N -8.969700 -19.528300 -20.727400
C -8.959100 -19.218800 -19.328900
O -8.746800 -18.081800 -15.101700
C -8.566000 -18.664400 -17.301400
N -7.992600 -18.257300 -16.042100
O -7.927900 -16.171400 -19.852500
C -7.920400 -18.816100 -18.529300
O -7.893900 -19.550700 -21.296400
O -6.779400 -18.111300 -16.013500
N -6.723400 -16.230200 -20.015700
C -6.532900 -18.512000 -18.896800
O -6.237200 -21.025600 -17.625900
C -6.043500 -17.389200 -19.520300
O -6.041700 -15.391700 -20.577500
C -5.356300 -19.251800 -18.706100
N -5.237600 -20.549300 -18.127900
N -4.714200 -17.496400 -19.644200
N -4.267600 -18.636600 -19.151300
H -4.257100 -16.872900 -20.013200
O -4.153300 -21.107000 -18.188700
