31
Fragment
H -39.269000 -12.068600 -11.160700
H -39.028000 -12.883100 -9.018800
C -38.668900 -11.675900 -10.567900
C -38.525400 -12.149100 -9.289000
C -37.895500 -10.597900 -10.949600
N -37.777300 -9.942200 -12.187800
C -37.662400 -11.569600 -8.402400
H -37.592000 -11.918800 -7.543200
H -37.063400 -7.344900 -13.496800
C -37.009000 -10.016500 -10.049800
H -37.006500 -8.533800 -15.818400
C -36.891400 -10.480100 -8.747300
C -36.854400 -9.019700 -12.010700
H -36.376600 -10.075400 -18.096700
N -36.370200 -9.027700 -10.756800
C -36.347000 -8.157700 -13.116400
N -36.323800 -9.027700 -15.476000
H -36.317500 -10.075400 -8.136100
C -35.839700 -9.019700 -14.222100
C -35.802600 -10.480100 -17.485500
H -35.687500 -8.533800 -10.414400
C -35.685000 -10.016500 -16.183000
H -35.630600 -7.344900 -12.736000
H -35.102000 -11.918800 -18.689600
C -35.031700 -11.569600 -17.830400
N -34.916700 -9.942200 -14.045000
C -34.798600 -10.597900 -15.283200
C -34.168600 -12.149100 -16.943800
C -34.025100 -11.675900 -15.664900
H -33.666000 -12.883100 -17.214000
H -33.425100 -12.068600 -15.072100
30
Fragment
O -33.795100 -12.252000 -24.072500
H -33.510400 -15.644400 -19.780800
N -33.226800 -13.645600 -21.689300
H -33.139300 -10.094300 -25.537600
C -32.897400 -11.851300 -23.344600
C -32.862500 -15.004200 -19.597200
C -32.610100 -13.957700 -20.474700
C -32.599600 -12.548700 -22.081500
N -32.354100 -10.014300 -24.873900
H -32.282300 -15.735900 -17.842200
C -32.116400 -15.054000 -18.452200
C -32.094400 -10.685900 -23.722300
H -31.741000 -7.905700 -26.634200
N -31.638600 -12.145100 -21.218400
C -31.613500 -13.034500 -20.169100
C -31.427600 -9.006000 -24.940800
C -31.212000 -7.989700 -25.873400
H -31.188900 -11.466100 -21.379700
C -31.125800 -14.133700 -18.161000
N -31.078800 -10.196000 -23.040300
C -30.851500 -13.087100 -19.013500
H -30.635700 -14.223400 -17.376600
C -30.633500 -9.127700 -23.794500
H -30.196500 -12.454400 -18.824700
C -30.184200 -7.123200 -25.616300
H -30.016800 -6.429200 -26.213100
C -29.589400 -8.240600 -23.566200
C -29.384500 -7.251800 -24.493600
H -29.050000 -8.314300 -22.812000
H -28.688200 -6.649900 -24.363700
61
Fragment
H -39.269000 -12.068600 -11.160700
H -39.028000 -12.883100 -9.018800
C -38.668900 -11.675900 -10.567900
C -38.525400 -12.149100 -9.289000
C -37.895500 -10.597900 -10.949600
N -37.777300 -9.942200 -12.187800
C -37.662400 -11.569600 -8.402400
H -37.592000 -11.918800 -7.543200
H -37.063400 -7.344900 -13.496800
C -37.009000 -10.016500 -10.049800
H -37.006500 -8.533800 -15.818400
C -36.891400 -10.480100 -8.747300
C -36.854400 -9.019700 -12.010700
H -36.376600 -10.075400 -18.096700
N -36.370200 -9.027700 -10.756800
C -36.347000 -8.157700 -13.116400
N -36.323800 -9.027700 -15.476000
H -36.317500 -10.075400 -8.136100
C -35.839700 -9.019700 -14.222100
C -35.802600 -10.480100 -17.485500
H -35.687500 -8.533800 -10.414400
C -35.685000 -10.016500 -16.183000
H -35.630600 -7.344900 -12.736000
H -35.102000 -11.918800 -18.689600
C -35.031700 -11.569600 -17.830400
N -34.916700 -9.942200 -14.045000
C -34.798600 -10.597900 -15.283200
C -34.168600 -12.149100 -16.943800
C -34.025100 -11.675900 -15.664900
H -33.666000 -12.883100 -17.214000
H -33.425100 -12.068600 -15.072100
O -33.795100 -12.252000 -24.072500
H -33.510400 -15.644400 -19.780800
N -33.226800 -13.645600 -21.689300
H -33.139300 -10.094300 -25.537600
C -32.897400 -11.851300 -23.344600
C -32.862500 -15.004200 -19.597200
C -32.610100 -13.957700 -20.474700
C -32.599600 -12.548700 -22.081500
N -32.354100 -10.014300 -24.873900
H -32.282300 -15.735900 -17.842200
C -32.116400 -15.054000 -18.452200
C -32.094400 -10.685900 -23.722300
H -31.741000 -7.905700 -26.634200
N -31.638600 -12.145100 -21.218400
C -31.613500 -13.034500 -20.169100
C -31.427600 -9.006000 -24.940800
C -31.212000 -7.989700 -25.873400
H -31.188900 -11.466100 -21.379700
C -31.125800 -14.133700 -18.161000
N -31.078800 -10.196000 -23.040300
C -30.851500 -13.087100 -19.013500
H -30.635700 -14.223400 -17.376600
C -30.633500 -9.127700 -23.794500
H -30.196500 -12.454400 -18.824700
C -30.184200 -7.123200 -25.616300
H -30.016800 -6.429200 -26.213100
C -29.589400 -8.240600 -23.566200
C -29.384500 -7.251800 -24.493600
H -29.050000 -8.314300 -22.812000
H -28.688200 -6.649900 -24.363700
