31
Fragment
H -39.269000 -12.068600 -11.160700
H -39.028000 -12.883100 -9.018800
C -38.668900 -11.675900 -10.567900
C -38.525400 -12.149100 -9.289000
C -37.895500 -10.597900 -10.949600
N -37.777300 -9.942200 -12.187800
C -37.662400 -11.569600 -8.402400
H -37.592000 -11.918800 -7.543200
H -37.063400 -7.344900 -13.496800
C -37.009000 -10.016500 -10.049800
H -37.006500 -8.533800 -15.818400
C -36.891400 -10.480100 -8.747300
C -36.854400 -9.019700 -12.010700
H -36.376600 -10.075400 -18.096700
N -36.370200 -9.027700 -10.756800
C -36.347000 -8.157700 -13.116400
N -36.323800 -9.027700 -15.476000
H -36.317500 -10.075400 -8.136100
C -35.839700 -9.019700 -14.222100
C -35.802600 -10.480100 -17.485500
H -35.687500 -8.533800 -10.414400
C -35.685000 -10.016500 -16.183000
H -35.630600 -7.344900 -12.736000
H -35.102000 -11.918800 -18.689600
C -35.031700 -11.569600 -17.830400
N -34.916700 -9.942200 -14.045000
C -34.798600 -10.597900 -15.283200
C -34.168600 -12.149100 -16.943800
C -34.025100 -11.675900 -15.664900
H -33.666000 -12.883100 -17.214000
H -33.425100 -12.068600 -15.072100
30
Fragment
O -34.691600 -17.967900 -10.956100
H -34.406900 -21.360300 -6.664400
N -34.123300 -19.361500 -8.572900
H -34.035800 -15.810200 -12.421200
C -33.793900 -17.567200 -10.228200
C -33.759000 -20.720100 -6.480800
C -33.506600 -19.673600 -7.358300
C -33.496100 -18.264600 -8.965100
N -33.250600 -15.730200 -11.757500
H -33.178800 -21.451800 -4.725800
C -33.012900 -20.769900 -5.335800
C -32.990900 -16.401800 -10.605900
H -32.637400 -13.621600 -13.517800
N -32.535100 -17.861000 -8.102000
C -32.510000 -18.750400 -7.052700
C -32.324100 -14.721900 -11.824400
C -32.108400 -13.705600 -12.757000
H -32.085300 -17.182000 -8.263300
C -32.022300 -19.849600 -5.044600
N -31.975300 -15.911900 -9.923900
C -31.748000 -18.803000 -5.897100
H -31.532200 -19.939300 -4.260200
C -31.530000 -14.843600 -10.678100
H -31.093000 -18.170300 -5.708300
C -31.080700 -12.839100 -12.499900
H -30.913300 -12.145100 -13.096700
C -30.485900 -13.956500 -10.449800
C -30.281000 -12.967700 -11.377200
H -29.946500 -14.030200 -9.695600
H -29.584700 -12.365800 -11.247300
61
Fragment
H -39.269000 -12.068600 -11.160700
H -39.028000 -12.883100 -9.018800
C -38.668900 -11.675900 -10.567900
C -38.525400 -12.149100 -9.289000
C -37.895500 -10.597900 -10.949600
N -37.777300 -9.942200 -12.187800
C -37.662400 -11.569600 -8.402400
H -37.592000 -11.918800 -7.543200
H -37.063400 -7.344900 -13.496800
C -37.009000 -10.016500 -10.049800
H -37.006500 -8.533800 -15.818400
C -36.891400 -10.480100 -8.747300
C -36.854400 -9.019700 -12.010700
H -36.376600 -10.075400 -18.096700
N -36.370200 -9.027700 -10.756800
C -36.347000 -8.157700 -13.116400
N -36.323800 -9.027700 -15.476000
H -36.317500 -10.075400 -8.136100
C -35.839700 -9.019700 -14.222100
C -35.802600 -10.480100 -17.485500
H -35.687500 -8.533800 -10.414400
C -35.685000 -10.016500 -16.183000
H -35.630600 -7.344900 -12.736000
H -35.102000 -11.918800 -18.689600
C -35.031700 -11.569600 -17.830400
N -34.916700 -9.942200 -14.045000
C -34.798600 -10.597900 -15.283200
C -34.168600 -12.149100 -16.943800
C -34.025100 -11.675900 -15.664900
H -33.666000 -12.883100 -17.214000
H -33.425100 -12.068600 -15.072100
O -34.691600 -17.967900 -10.956100
H -34.406900 -21.360300 -6.664400
N -34.123300 -19.361500 -8.572900
H -34.035800 -15.810200 -12.421200
C -33.793900 -17.567200 -10.228200
C -33.759000 -20.720100 -6.480800
C -33.506600 -19.673600 -7.358300
C -33.496100 -18.264600 -8.965100
N -33.250600 -15.730200 -11.757500
H -33.178800 -21.451800 -4.725800
C -33.012900 -20.769900 -5.335800
C -32.990900 -16.401800 -10.605900
H -32.637400 -13.621600 -13.517800
N -32.535100 -17.861000 -8.102000
C -32.510000 -18.750400 -7.052700
C -32.324100 -14.721900 -11.824400
C -32.108400 -13.705600 -12.757000
H -32.085300 -17.182000 -8.263300
C -32.022300 -19.849600 -5.044600
N -31.975300 -15.911900 -9.923900
C -31.748000 -18.803000 -5.897100
H -31.532200 -19.939300 -4.260200
C -31.530000 -14.843600 -10.678100
H -31.093000 -18.170300 -5.708300
C -31.080700 -12.839100 -12.499900
H -30.913300 -12.145100 -13.096700
C -30.485900 -13.956500 -10.449800
C -30.281000 -12.967700 -11.377200
H -29.946500 -14.030200 -9.695600
H -29.584700 -12.365800 -11.247300
