31
Fragment
H -39.269000 -12.068600 -11.160700
H -39.028000 -12.883100 -9.018800
C -38.668900 -11.675900 -10.567900
C -38.525400 -12.149100 -9.289000
C -37.895500 -10.597900 -10.949600
N -37.777300 -9.942200 -12.187800
C -37.662400 -11.569600 -8.402400
H -37.592000 -11.918800 -7.543200
H -37.063400 -7.344900 -13.496800
C -37.009000 -10.016500 -10.049800
H -37.006500 -8.533800 -15.818400
C -36.891400 -10.480100 -8.747300
C -36.854400 -9.019700 -12.010700
H -36.376600 -10.075400 -18.096700
N -36.370200 -9.027700 -10.756800
C -36.347000 -8.157700 -13.116400
N -36.323800 -9.027700 -15.476000
H -36.317500 -10.075400 -8.136100
C -35.839700 -9.019700 -14.222100
C -35.802600 -10.480100 -17.485500
H -35.687500 -8.533800 -10.414400
C -35.685000 -10.016500 -16.183000
H -35.630600 -7.344900 -12.736000
H -35.102000 -11.918800 -18.689600
C -35.031700 -11.569600 -17.830400
N -34.916700 -9.942200 -14.045000
C -34.798600 -10.597900 -15.283200
C -34.168600 -12.149100 -16.943800
C -34.025100 -11.675900 -15.664900
H -33.666000 -12.883100 -17.214000
H -33.425100 -12.068600 -15.072100
31
Fragment
H -38.372500 -12.068600 -24.277100
H -38.131600 -12.883100 -22.135200
C -37.772400 -11.675900 -23.684300
C -37.628900 -12.149100 -22.405400
C -36.999000 -10.597900 -24.066000
N -36.880800 -9.942200 -25.304200
C -36.765900 -11.569600 -21.518800
H -36.695500 -11.918800 -20.659600
H -36.166900 -7.344900 -26.613200
C -36.112500 -10.016500 -23.166200
H -36.110000 -8.533800 -28.934800
C -35.995000 -10.480100 -21.863700
C -35.957900 -9.019700 -25.127100
H -35.480100 -10.075400 -31.213100
N -35.473800 -9.027700 -23.873200
C -35.450500 -8.157700 -26.232800
N -35.427300 -9.027700 -28.592400
H -35.421000 -10.075400 -21.252500
C -34.943200 -9.019700 -27.338500
C -34.906100 -10.480100 -30.601900
H -34.791000 -8.533800 -23.530800
C -34.788500 -10.016500 -29.299400
H -34.734100 -7.344900 -25.852400
H -34.205600 -11.918800 -31.806000
C -34.135200 -11.569600 -30.946800
N -34.020200 -9.942200 -27.161400
C -33.902100 -10.597900 -28.399600
C -33.272100 -12.149100 -30.060200
C -33.128600 -11.675900 -28.781300
H -32.769500 -12.883100 -30.330400
H -32.528600 -12.068600 -28.188500
62
Fragment
H -39.269000 -12.068600 -11.160700
H -39.028000 -12.883100 -9.018800
C -38.668900 -11.675900 -10.567900
C -38.525400 -12.149100 -9.289000
C -37.895500 -10.597900 -10.949600
N -37.777300 -9.942200 -12.187800
C -37.662400 -11.569600 -8.402400
H -37.592000 -11.918800 -7.543200
H -37.063400 -7.344900 -13.496800
C -37.009000 -10.016500 -10.049800
H -37.006500 -8.533800 -15.818400
C -36.891400 -10.480100 -8.747300
C -36.854400 -9.019700 -12.010700
H -36.376600 -10.075400 -18.096700
N -36.370200 -9.027700 -10.756800
C -36.347000 -8.157700 -13.116400
N -36.323800 -9.027700 -15.476000
H -36.317500 -10.075400 -8.136100
C -35.839700 -9.019700 -14.222100
C -35.802600 -10.480100 -17.485500
H -35.687500 -8.533800 -10.414400
C -35.685000 -10.016500 -16.183000
H -35.630600 -7.344900 -12.736000
H -35.102000 -11.918800 -18.689600
C -35.031700 -11.569600 -17.830400
N -34.916700 -9.942200 -14.045000
C -34.798600 -10.597900 -15.283200
C -34.168600 -12.149100 -16.943800
C -34.025100 -11.675900 -15.664900
H -33.666000 -12.883100 -17.214000
H -33.425100 -12.068600 -15.072100
H -38.372500 -12.068600 -24.277100
H -38.131600 -12.883100 -22.135200
C -37.772400 -11.675900 -23.684300
C -37.628900 -12.149100 -22.405400
C -36.999000 -10.597900 -24.066000
N -36.880800 -9.942200 -25.304200
C -36.765900 -11.569600 -21.518800
H -36.695500 -11.918800 -20.659600
H -36.166900 -7.344900 -26.613200
C -36.112500 -10.016500 -23.166200
H -36.110000 -8.533800 -28.934800
C -35.995000 -10.480100 -21.863700
C -35.957900 -9.019700 -25.127100
H -35.480100 -10.075400 -31.213100
N -35.473800 -9.027700 -23.873200
C -35.450500 -8.157700 -26.232800
N -35.427300 -9.027700 -28.592400
H -35.421000 -10.075400 -21.252500
C -34.943200 -9.019700 -27.338500
C -34.906100 -10.480100 -30.601900
H -34.791000 -8.533800 -23.530800
C -34.788500 -10.016500 -29.299400
H -34.734100 -7.344900 -25.852400
H -34.205600 -11.918800 -31.806000
C -34.135200 -11.569600 -30.946800
N -34.020200 -9.942200 -27.161400
C -33.902100 -10.597900 -28.399600
C -33.272100 -12.149100 -30.060200
C -33.128600 -11.675900 -28.781300
H -32.769500 -12.883100 -30.330400
H -32.528600 -12.068600 -28.188500
