31
Fragment
H -39.269000 -12.068600 -11.160700
H -39.028000 -12.883100 -9.018800
C -38.668900 -11.675900 -10.567900
C -38.525400 -12.149100 -9.289000
C -37.895500 -10.597900 -10.949600
N -37.777300 -9.942200 -12.187800
C -37.662400 -11.569600 -8.402400
H -37.592000 -11.918800 -7.543200
H -37.063400 -7.344900 -13.496800
C -37.009000 -10.016500 -10.049800
H -37.006500 -8.533800 -15.818400
C -36.891400 -10.480100 -8.747300
C -36.854400 -9.019700 -12.010700
H -36.376600 -10.075400 -18.096700
N -36.370200 -9.027700 -10.756800
C -36.347000 -8.157700 -13.116400
N -36.323800 -9.027700 -15.476000
H -36.317500 -10.075400 -8.136100
C -35.839700 -9.019700 -14.222100
C -35.802600 -10.480100 -17.485500
H -35.687500 -8.533800 -10.414400
C -35.685000 -10.016500 -16.183000
H -35.630600 -7.344900 -12.736000
H -35.102000 -11.918800 -18.689600
C -35.031700 -11.569600 -17.830400
N -34.916700 -9.942200 -14.045000
C -34.798600 -10.597900 -15.283200
C -34.168600 -12.149100 -16.943800
C -34.025100 -11.675900 -15.664900
H -33.666000 -12.883100 -17.214000
H -33.425100 -12.068600 -15.072100
31
Fragment
H -40.165500 -12.068600 1.955700
H -39.924500 -12.883100 4.097600
C -39.565400 -11.675900 2.548500
C -39.421900 -12.149100 3.827400
C -38.792000 -10.597900 2.166800
N -38.673800 -9.942200 0.928600
C -38.558900 -11.569600 4.714000
H -38.488500 -11.918800 5.573200
H -37.959900 -7.344900 -0.380400
C -37.905500 -10.016500 3.066600
H -37.903000 -8.533800 -2.702000
C -37.787900 -10.480100 4.369100
C -37.750900 -9.019700 1.105700
H -37.273100 -10.075400 -4.980300
N -37.266700 -9.027700 2.359600
C -37.243500 -8.157700 0.000000
N -37.220300 -9.027700 -2.359600
H -37.213900 -10.075400 4.980300
C -36.736100 -9.019700 -1.105700
C -36.699100 -10.480100 -4.369100
H -36.584000 -8.533800 2.702000
C -36.581500 -10.016500 -3.066600
H -36.527100 -7.344900 0.380400
H -35.998500 -11.918800 -5.573200
C -35.928100 -11.569600 -4.714000
N -35.813200 -9.942200 -0.928600
C -35.695000 -10.597900 -2.166800
C -35.065100 -12.149100 -3.827400
C -34.921600 -11.675900 -2.548500
H -34.562500 -12.883100 -4.097600
H -34.321500 -12.068600 -1.955700
62
Fragment
H -39.269000 -12.068600 -11.160700
H -39.028000 -12.883100 -9.018800
C -38.668900 -11.675900 -10.567900
C -38.525400 -12.149100 -9.289000
C -37.895500 -10.597900 -10.949600
N -37.777300 -9.942200 -12.187800
C -37.662400 -11.569600 -8.402400
H -37.592000 -11.918800 -7.543200
H -37.063400 -7.344900 -13.496800
C -37.009000 -10.016500 -10.049800
H -37.006500 -8.533800 -15.818400
C -36.891400 -10.480100 -8.747300
C -36.854400 -9.019700 -12.010700
H -36.376600 -10.075400 -18.096700
N -36.370200 -9.027700 -10.756800
C -36.347000 -8.157700 -13.116400
N -36.323800 -9.027700 -15.476000
H -36.317500 -10.075400 -8.136100
C -35.839700 -9.019700 -14.222100
C -35.802600 -10.480100 -17.485500
H -35.687500 -8.533800 -10.414400
C -35.685000 -10.016500 -16.183000
H -35.630600 -7.344900 -12.736000
H -35.102000 -11.918800 -18.689600
C -35.031700 -11.569600 -17.830400
N -34.916700 -9.942200 -14.045000
C -34.798600 -10.597900 -15.283200
C -34.168600 -12.149100 -16.943800
C -34.025100 -11.675900 -15.664900
H -33.666000 -12.883100 -17.214000
H -33.425100 -12.068600 -15.072100
H -40.165500 -12.068600 1.955700
H -39.924500 -12.883100 4.097600
C -39.565400 -11.675900 2.548500
C -39.421900 -12.149100 3.827400
C -38.792000 -10.597900 2.166800
N -38.673800 -9.942200 0.928600
C -38.558900 -11.569600 4.714000
H -38.488500 -11.918800 5.573200
H -37.959900 -7.344900 -0.380400
C -37.905500 -10.016500 3.066600
H -37.903000 -8.533800 -2.702000
C -37.787900 -10.480100 4.369100
C -37.750900 -9.019700 1.105700
H -37.273100 -10.075400 -4.980300
N -37.266700 -9.027700 2.359600
C -37.243500 -8.157700 0.000000
N -37.220300 -9.027700 -2.359600
H -37.213900 -10.075400 4.980300
C -36.736100 -9.019700 -1.105700
C -36.699100 -10.480100 -4.369100
H -36.584000 -8.533800 2.702000
C -36.581500 -10.016500 -3.066600
H -36.527100 -7.344900 0.380400
H -35.998500 -11.918800 -5.573200
C -35.928100 -11.569600 -4.714000
N -35.813200 -9.942200 -0.928600
C -35.695000 -10.597900 -2.166800
C -35.065100 -12.149100 -3.827400
C -34.921600 -11.675900 -2.548500
H -34.562500 -12.883100 -4.097600
H -34.321500 -12.068600 -1.955700
