22
Fragment
F -18.376700 -7.160700 -25.353500
F -18.100500 -6.510000 -23.325300
C -17.553200 -6.521800 -24.535900
F -17.469700 -5.261100 -24.933000
C -16.225200 -7.214200 -24.537600
N -15.985400 -8.362700 -25.144800
N -15.112600 -6.768500 -23.897500
N -14.991700 -5.619900 -23.166600
N -14.678700 -8.687000 -24.895900
H -14.262700 -3.765300 -21.884100
C -14.181500 -7.721200 -24.141800
C -13.777800 -5.445000 -22.646200
N -13.635000 -4.329100 -21.933400
H -12.893500 -4.222100 -21.501200
C -12.851700 -7.554800 -23.617600
C -12.671700 -6.386700 -22.859600
H -12.221800 -9.170200 -24.390800
N -11.981600 -8.497800 -23.911900
N -11.377200 -6.122400 -22.321000
O -11.206500 -5.213400 -21.512800
H -11.172800 -8.440900 -23.625100
O -10.423100 -6.832400 -22.672900
12
Fragment
H -17.009100 -6.429200 -19.339000
H -16.870500 -6.906600 -20.825900
C -16.457700 -6.397100 -20.124300
H -16.357000 -5.485600 -20.407600
O -15.282700 -8.592400 -21.405200
N -15.151600 -6.958400 -19.822600
H -14.865800 -6.317500 -17.964600
C -14.702900 -8.020100 -20.483000
C -14.369800 -6.315600 -18.786700
H -14.180600 -5.410500 -19.044200
H -13.877200 -8.361600 -20.225300
H -13.546400 -6.793100 -18.664800
34
Fragment
F -18.376700 -7.160700 -25.353500
F -18.100500 -6.510000 -23.325300
C -17.553200 -6.521800 -24.535900
F -17.469700 -5.261100 -24.933000
C -16.225200 -7.214200 -24.537600
N -15.985400 -8.362700 -25.144800
N -15.112600 -6.768500 -23.897500
N -14.991700 -5.619900 -23.166600
N -14.678700 -8.687000 -24.895900
H -14.262700 -3.765300 -21.884100
C -14.181500 -7.721200 -24.141800
C -13.777800 -5.445000 -22.646200
N -13.635000 -4.329100 -21.933400
H -12.893500 -4.222100 -21.501200
C -12.851700 -7.554800 -23.617600
C -12.671700 -6.386700 -22.859600
H -12.221800 -9.170200 -24.390800
N -11.981600 -8.497800 -23.911900
N -11.377200 -6.122400 -22.321000
O -11.206500 -5.213400 -21.512800
H -11.172800 -8.440900 -23.625100
O -10.423100 -6.832400 -22.672900
H -17.009100 -6.429200 -19.339000
H -16.870500 -6.906600 -20.825900
C -16.457700 -6.397100 -20.124300
H -16.357000 -5.485600 -20.407600
O -15.282700 -8.592400 -21.405200
N -15.151600 -6.958400 -19.822600
H -14.865800 -6.317500 -17.964600
C -14.702900 -8.020100 -20.483000
C -14.369800 -6.315600 -18.786700
H -14.180600 -5.410500 -19.044200
H -13.877200 -8.361600 -20.225300
H -13.546400 -6.793100 -18.664800
