22
Fragment
F -18.376700 -7.160700 -25.353500
F -18.100500 -6.510000 -23.325300
C -17.553200 -6.521800 -24.535900
F -17.469700 -5.261100 -24.933000
C -16.225200 -7.214200 -24.537600
N -15.985400 -8.362700 -25.144800
N -15.112600 -6.768500 -23.897500
N -14.991700 -5.619900 -23.166600
N -14.678700 -8.687000 -24.895900
H -14.262700 -3.765300 -21.884100
C -14.181500 -7.721200 -24.141800
C -13.777800 -5.445000 -22.646200
N -13.635000 -4.329100 -21.933400
H -12.893500 -4.222100 -21.501200
C -12.851700 -7.554800 -23.617600
C -12.671700 -6.386700 -22.859600
H -12.221800 -9.170200 -24.390800
N -11.981600 -8.497800 -23.911900
N -11.377200 -6.122400 -22.321000
O -11.206500 -5.213400 -21.512800
H -11.172800 -8.440900 -23.625100
O -10.423100 -6.832400 -22.672900
12
Fragment
H -21.160200 -3.530200 -23.313300
H -20.829400 -5.098800 -21.752900
H -20.525900 -2.147700 -22.934000
C -20.336800 -3.052700 -23.191400
C -20.003600 -4.757200 -21.495200
H -19.840700 -3.054700 -24.013500
N -19.554900 -3.695500 -22.155600
O -19.423900 -5.329500 -20.573000
H -18.349500 -2.222800 -21.570600
C -18.248900 -3.134300 -21.853800
H -17.836000 -3.643800 -21.152300
H -17.697500 -3.166300 -22.639200
34
Fragment
F -18.376700 -7.160700 -25.353500
F -18.100500 -6.510000 -23.325300
C -17.553200 -6.521800 -24.535900
F -17.469700 -5.261100 -24.933000
C -16.225200 -7.214200 -24.537600
N -15.985400 -8.362700 -25.144800
N -15.112600 -6.768500 -23.897500
N -14.991700 -5.619900 -23.166600
N -14.678700 -8.687000 -24.895900
H -14.262700 -3.765300 -21.884100
C -14.181500 -7.721200 -24.141800
C -13.777800 -5.445000 -22.646200
N -13.635000 -4.329100 -21.933400
H -12.893500 -4.222100 -21.501200
C -12.851700 -7.554800 -23.617600
C -12.671700 -6.386700 -22.859600
H -12.221800 -9.170200 -24.390800
N -11.981600 -8.497800 -23.911900
N -11.377200 -6.122400 -22.321000
O -11.206500 -5.213400 -21.512800
H -11.172800 -8.440900 -23.625100
O -10.423100 -6.832400 -22.672900
H -21.160200 -3.530200 -23.313300
H -20.829400 -5.098800 -21.752900
H -20.525900 -2.147700 -22.934000
C -20.336800 -3.052700 -23.191400
C -20.003600 -4.757200 -21.495200
H -19.840700 -3.054700 -24.013500
N -19.554900 -3.695500 -22.155600
O -19.423900 -5.329500 -20.573000
H -18.349500 -2.222800 -21.570600
C -18.248900 -3.134300 -21.853800
H -17.836000 -3.643800 -21.152300
H -17.697500 -3.166300 -22.639200
