22
Fragment
F -18.376700 -7.160700 -25.353500
F -18.100500 -6.510000 -23.325300
C -17.553200 -6.521800 -24.535900
F -17.469700 -5.261100 -24.933000
C -16.225200 -7.214200 -24.537600
N -15.985400 -8.362700 -25.144800
N -15.112600 -6.768500 -23.897500
N -14.991700 -5.619900 -23.166600
N -14.678700 -8.687000 -24.895900
H -14.262700 -3.765300 -21.884100
C -14.181500 -7.721200 -24.141800
C -13.777800 -5.445000 -22.646200
N -13.635000 -4.329100 -21.933400
H -12.893500 -4.222100 -21.501200
C -12.851700 -7.554800 -23.617600
C -12.671700 -6.386700 -22.859600
H -12.221800 -9.170200 -24.390800
N -11.981600 -8.497800 -23.911900
N -11.377200 -6.122400 -22.321000
O -11.206500 -5.213400 -21.512800
H -11.172800 -8.440900 -23.625100
O -10.423100 -6.832400 -22.672900
22
Fragment
O -11.911600 -3.569600 -19.305300
H -11.162000 -5.178000 -18.353000
O -11.128200 -1.950500 -20.465400
N -10.957600 -2.859600 -19.657200
N -10.353200 -5.234900 -18.066200
H -10.113000 -5.907400 -17.587300
C -9.663000 -3.123900 -19.118500
C -9.483100 -4.292000 -18.360600
H -9.441200 -0.959300 -20.477000
N -8.699800 -1.066300 -20.044700
C -8.557000 -2.182200 -19.332000
C -8.153300 -4.458400 -17.836400
H -8.072100 -0.502500 -20.094100
N -7.656100 -5.424200 -17.082300
N -7.343100 -2.357100 -18.811600
N -7.222200 -3.505600 -18.080700
N -6.349300 -5.099800 -16.833400
C -6.109600 -3.951300 -17.440600
F -4.865000 -1.998200 -17.045200
C -4.781500 -3.258900 -17.442300
F -4.234200 -3.247200 -18.652900
F -3.958000 -3.897800 -16.624700
44
Fragment
F -18.376700 -7.160700 -25.353500
F -18.100500 -6.510000 -23.325300
C -17.553200 -6.521800 -24.535900
F -17.469700 -5.261100 -24.933000
C -16.225200 -7.214200 -24.537600
N -15.985400 -8.362700 -25.144800
N -15.112600 -6.768500 -23.897500
N -14.991700 -5.619900 -23.166600
N -14.678700 -8.687000 -24.895900
H -14.262700 -3.765300 -21.884100
C -14.181500 -7.721200 -24.141800
C -13.777800 -5.445000 -22.646200
N -13.635000 -4.329100 -21.933400
H -12.893500 -4.222100 -21.501200
C -12.851700 -7.554800 -23.617600
C -12.671700 -6.386700 -22.859600
H -12.221800 -9.170200 -24.390800
N -11.981600 -8.497800 -23.911900
N -11.377200 -6.122400 -22.321000
O -11.206500 -5.213400 -21.512800
H -11.172800 -8.440900 -23.625100
O -10.423100 -6.832400 -22.672900
O -11.911600 -3.569600 -19.305300
H -11.162000 -5.178000 -18.353000
O -11.128200 -1.950500 -20.465400
N -10.957600 -2.859600 -19.657200
N -10.353200 -5.234900 -18.066200
H -10.113000 -5.907400 -17.587300
C -9.663000 -3.123900 -19.118500
C -9.483100 -4.292000 -18.360600
H -9.441200 -0.959300 -20.477000
N -8.699800 -1.066300 -20.044700
C -8.557000 -2.182200 -19.332000
C -8.153300 -4.458400 -17.836400
H -8.072100 -0.502500 -20.094100
N -7.656100 -5.424200 -17.082300
N -7.343100 -2.357100 -18.811600
N -7.222200 -3.505600 -18.080700
N -6.349300 -5.099800 -16.833400
C -6.109600 -3.951300 -17.440600
F -4.865000 -1.998200 -17.045200
C -4.781500 -3.258900 -17.442300
F -4.234200 -3.247200 -18.652900
F -3.958000 -3.897800 -16.624700
