22
Fragment
F -18.376700 -7.160700 -25.353500
F -18.100500 -6.510000 -23.325300
C -17.553200 -6.521800 -24.535900
F -17.469700 -5.261100 -24.933000
C -16.225200 -7.214200 -24.537600
N -15.985400 -8.362700 -25.144800
N -15.112600 -6.768500 -23.897500
N -14.991700 -5.619900 -23.166600
N -14.678700 -8.687000 -24.895900
H -14.262700 -3.765300 -21.884100
C -14.181500 -7.721200 -24.141800
C -13.777800 -5.445000 -22.646200
N -13.635000 -4.329100 -21.933400
H -12.893500 -4.222100 -21.501200
C -12.851700 -7.554800 -23.617600
C -12.671700 -6.386700 -22.859600
H -12.221800 -9.170200 -24.390800
N -11.981600 -8.497800 -23.911900
N -11.377200 -6.122400 -22.321000
O -11.206500 -5.213400 -21.512800
H -11.172800 -8.440900 -23.625100
O -10.423100 -6.832400 -22.672900
22
Fragment
O -16.378600 -6.219000 -27.700900
H -15.628900 -4.610500 -26.748700
O -15.595200 -7.838000 -28.861000
N -15.424500 -6.929000 -28.052800
N -14.820200 -4.553600 -26.461900
H -14.580000 -3.881200 -25.983000
C -14.130000 -6.664700 -27.514200
C -13.950000 -5.496600 -26.756200
H -13.908200 -8.829300 -28.872600
N -13.166800 -8.722300 -28.440400
C -13.023900 -7.606400 -27.727600
C -12.620300 -5.330200 -26.232000
H -12.539000 -9.286100 -28.489700
N -12.123000 -4.364400 -25.477900
N -11.810000 -7.431500 -27.207200
N -11.689100 -6.282900 -26.476300
N -10.816300 -4.688700 -25.229100
C -10.576600 -5.837200 -25.836200
F -9.332000 -7.790300 -25.440800
C -9.248500 -6.529600 -25.837900
F -8.701200 -6.541400 -27.048600
F -8.425000 -5.890700 -25.020300
44
Fragment
F -18.376700 -7.160700 -25.353500
F -18.100500 -6.510000 -23.325300
C -17.553200 -6.521800 -24.535900
F -17.469700 -5.261100 -24.933000
C -16.225200 -7.214200 -24.537600
N -15.985400 -8.362700 -25.144800
N -15.112600 -6.768500 -23.897500
N -14.991700 -5.619900 -23.166600
N -14.678700 -8.687000 -24.895900
H -14.262700 -3.765300 -21.884100
C -14.181500 -7.721200 -24.141800
C -13.777800 -5.445000 -22.646200
N -13.635000 -4.329100 -21.933400
H -12.893500 -4.222100 -21.501200
C -12.851700 -7.554800 -23.617600
C -12.671700 -6.386700 -22.859600
H -12.221800 -9.170200 -24.390800
N -11.981600 -8.497800 -23.911900
N -11.377200 -6.122400 -22.321000
O -11.206500 -5.213400 -21.512800
H -11.172800 -8.440900 -23.625100
O -10.423100 -6.832400 -22.672900
O -16.378600 -6.219000 -27.700900
H -15.628900 -4.610500 -26.748700
O -15.595200 -7.838000 -28.861000
N -15.424500 -6.929000 -28.052800
N -14.820200 -4.553600 -26.461900
H -14.580000 -3.881200 -25.983000
C -14.130000 -6.664700 -27.514200
C -13.950000 -5.496600 -26.756200
H -13.908200 -8.829300 -28.872600
N -13.166800 -8.722300 -28.440400
C -13.023900 -7.606400 -27.727600
C -12.620300 -5.330200 -26.232000
H -12.539000 -9.286100 -28.489700
N -12.123000 -4.364400 -25.477900
N -11.810000 -7.431500 -27.207200
N -11.689100 -6.282900 -26.476300
N -10.816300 -4.688700 -25.229100
C -10.576600 -5.837200 -25.836200
F -9.332000 -7.790300 -25.440800
C -9.248500 -6.529600 -25.837900
F -8.701200 -6.541400 -27.048600
F -8.425000 -5.890700 -25.020300
