24
Fragment
F -18.532000 -17.452000 -13.218400
F -18.337700 -15.859300 -14.630100
N -17.867600 -19.260300 -15.131300
C -17.771800 -16.970400 -14.172500
C -17.545100 -17.986400 -15.235300
N -17.467300 -19.891900 -16.281200
N -16.959700 -17.749400 -16.434800
C -16.915300 -18.963900 -17.033600
H -16.653000 -21.057000 -18.430600
F -16.622700 -16.592800 -13.608400
N -16.487700 -16.542900 -16.898200
C -16.319000 -19.076800 -18.355300
N -16.289000 -20.287000 -18.877900
H -16.159400 -14.012500 -17.536200
C -15.936400 -16.625100 -18.107000
H -15.910700 -20.385300 -19.619300
C -15.855800 -17.869300 -18.880200
N -15.411500 -15.478800 -18.549500
N -15.336100 -17.857200 -20.203900
N -15.316600 -14.329700 -17.735100
O -15.162500 -16.795500 -20.796300
H -15.122100 -15.439400 -19.358300
O -15.062800 -18.941500 -20.744100
H -14.997300 -14.561400 -16.947700
12
Fragment
H -23.547600 -18.431000 -10.639200
H -23.062000 -19.154200 -11.942500
C -22.803200 -18.563900 -11.231400
H -22.532200 -17.719400 -11.598500
O -22.469900 -18.424100 -8.487400
N -21.709300 -19.142800 -10.501700
C -21.651900 -19.018000 -9.193000
H -21.027100 -20.549800 -11.738800
H -20.929700 -19.414200 -8.761900
C -20.652500 -19.819500 -11.239600
H -20.235900 -19.200500 -11.843900
H -19.997000 -20.156200 -10.624300
36
Fragment
F -18.532000 -17.452000 -13.218400
F -18.337700 -15.859300 -14.630100
N -17.867600 -19.260300 -15.131300
C -17.771800 -16.970400 -14.172500
C -17.545100 -17.986400 -15.235300
N -17.467300 -19.891900 -16.281200
N -16.959700 -17.749400 -16.434800
C -16.915300 -18.963900 -17.033600
H -16.653000 -21.057000 -18.430600
F -16.622700 -16.592800 -13.608400
N -16.487700 -16.542900 -16.898200
C -16.319000 -19.076800 -18.355300
N -16.289000 -20.287000 -18.877900
H -16.159400 -14.012500 -17.536200
C -15.936400 -16.625100 -18.107000
H -15.910700 -20.385300 -19.619300
C -15.855800 -17.869300 -18.880200
N -15.411500 -15.478800 -18.549500
N -15.336100 -17.857200 -20.203900
N -15.316600 -14.329700 -17.735100
O -15.162500 -16.795500 -20.796300
H -15.122100 -15.439400 -19.358300
O -15.062800 -18.941500 -20.744100
H -14.997300 -14.561400 -16.947700
H -23.547600 -18.431000 -10.639200
H -23.062000 -19.154200 -11.942500
C -22.803200 -18.563900 -11.231400
H -22.532200 -17.719400 -11.598500
O -22.469900 -18.424100 -8.487400
N -21.709300 -19.142800 -10.501700
C -21.651900 -19.018000 -9.193000
H -21.027100 -20.549800 -11.738800
H -20.929700 -19.414200 -8.761900
C -20.652500 -19.819500 -11.239600
H -20.235900 -19.200500 -11.843900
H -19.997000 -20.156200 -10.624300
