23
Fragment
O -8.880800 -8.595200 -10.357500
H -8.514700 -10.498100 -10.888300
N -8.181900 -7.848700 -11.065400
O -8.119900 -6.644800 -10.831000
N -8.051900 -10.728000 -11.575700
H -7.970900 -11.559200 -11.781000
C -7.474300 -8.410200 -12.153300
C -7.468400 -9.809300 -12.312200
H -7.096400 -5.851800 -12.253600
C -6.763200 -10.270000 -13.478900
C -6.762600 -7.552200 -13.105000
N -6.722200 -6.218800 -12.935700
N -6.615200 -11.490400 -13.956100
H -6.452600 -5.511300 -14.603600
N -6.208600 -9.357800 -14.315800
N -6.136900 -7.997200 -14.179500
O -6.066100 -5.447000 -13.883300
F -5.990300 -8.795400 -17.250400
N -5.954700 -11.369500 -15.140800
C -5.721100 -10.091100 -15.344500
C -5.104400 -9.519500 -16.577600
F -4.676000 -10.477000 -17.359800
F -4.094600 -8.706400 -16.307300
23
Fragment
O -7.767300 -6.258200 -18.850100
H -7.401200 -8.161100 -19.380900
N -7.068400 -5.511700 -19.558000
O -7.006400 -4.307800 -19.323600
N -6.938400 -8.391000 -20.068300
H -6.857400 -9.222200 -20.273600
C -6.360700 -6.073200 -20.645900
C -6.354800 -7.472300 -20.804900
H -5.982900 -3.514800 -20.746300
C -5.649700 -7.933000 -21.971500
C -5.649100 -5.215200 -21.597600
N -5.608700 -3.881800 -21.428300
N -5.501700 -9.153400 -22.448700
H -5.339100 -3.174300 -23.096200
N -5.095100 -7.020800 -22.808400
N -5.023400 -5.660200 -22.672100
O -4.952600 -3.110000 -22.375900
F -4.876800 -6.458400 -25.743100
N -4.841100 -9.032500 -23.633400
C -4.607600 -7.754100 -23.837100
C -3.990900 -7.182500 -25.070200
F -3.562500 -8.140000 -25.852400
F -2.981100 -6.369300 -24.799900
46
Fragment
O -8.880800 -8.595200 -10.357500
H -8.514700 -10.498100 -10.888300
N -8.181900 -7.848700 -11.065400
O -8.119900 -6.644800 -10.831000
N -8.051900 -10.728000 -11.575700
H -7.970900 -11.559200 -11.781000
C -7.474300 -8.410200 -12.153300
C -7.468400 -9.809300 -12.312200
H -7.096400 -5.851800 -12.253600
C -6.763200 -10.270000 -13.478900
C -6.762600 -7.552200 -13.105000
N -6.722200 -6.218800 -12.935700
N -6.615200 -11.490400 -13.956100
H -6.452600 -5.511300 -14.603600
N -6.208600 -9.357800 -14.315800
N -6.136900 -7.997200 -14.179500
O -6.066100 -5.447000 -13.883300
F -5.990300 -8.795400 -17.250400
N -5.954700 -11.369500 -15.140800
C -5.721100 -10.091100 -15.344500
C -5.104400 -9.519500 -16.577600
F -4.676000 -10.477000 -17.359800
F -4.094600 -8.706400 -16.307300
O -7.767300 -6.258200 -18.850100
H -7.401200 -8.161100 -19.380900
N -7.068400 -5.511700 -19.558000
O -7.006400 -4.307800 -19.323600
N -6.938400 -8.391000 -20.068300
H -6.857400 -9.222200 -20.273600
C -6.360700 -6.073200 -20.645900
C -6.354800 -7.472300 -20.804900
H -5.982900 -3.514800 -20.746300
C -5.649700 -7.933000 -21.971500
C -5.649100 -5.215200 -21.597600
N -5.608700 -3.881800 -21.428300
N -5.501700 -9.153400 -22.448700
H -5.339100 -3.174300 -23.096200
N -5.095100 -7.020800 -22.808400
N -5.023400 -5.660200 -22.672100
O -4.952600 -3.110000 -22.375900
F -4.876800 -6.458400 -25.743100
N -4.841100 -9.032500 -23.633400
C -4.607600 -7.754100 -23.837100
C -3.990900 -7.182500 -25.070200
F -3.562500 -8.140000 -25.852400
F -2.981100 -6.369300 -24.799900
