23
Fragment
O -8.880800 -8.595200 -10.357500
H -8.514700 -10.498100 -10.888300
N -8.181900 -7.848700 -11.065400
O -8.119900 -6.644800 -10.831000
N -8.051900 -10.728000 -11.575700
H -7.970900 -11.559200 -11.781000
C -7.474300 -8.410200 -12.153300
C -7.468400 -9.809300 -12.312200
H -7.096400 -5.851800 -12.253600
C -6.763200 -10.270000 -13.478900
C -6.762600 -7.552200 -13.105000
N -6.722200 -6.218800 -12.935700
N -6.615200 -11.490400 -13.956100
H -6.452600 -5.511300 -14.603600
N -6.208600 -9.357800 -14.315800
N -6.136900 -7.997200 -14.179500
O -6.066100 -5.447000 -13.883300
F -5.990300 -8.795400 -17.250400
N -5.954700 -11.369500 -15.140800
C -5.721100 -10.091100 -15.344500
C -5.104400 -9.519500 -16.577600
F -4.676000 -10.477000 -17.359800
F -4.094600 -8.706400 -16.307300
23
Fragment
O -4.437300 -14.302800 -18.850100
H -4.071300 -16.205800 -19.380900
N -3.738500 -13.556300 -19.558000
O -3.676500 -12.352400 -19.323600
N -3.608500 -16.435600 -20.068300
H -3.527500 -17.266900 -20.273600
C -3.030800 -14.117800 -20.645900
C -3.024900 -15.517000 -20.804900
H -2.653000 -11.559400 -20.746300
C -2.319800 -15.977600 -21.971500
C -2.319200 -13.259800 -21.597600
N -2.278700 -11.926400 -21.428300
N -2.171800 -17.198100 -22.448700
H -2.009200 -11.218900 -23.096200
N -1.765200 -15.065500 -22.808400
N -1.693500 -13.704900 -22.672100
O -1.622700 -11.154700 -22.375900
F -1.546900 -14.503000 -25.743100
N -1.511200 -17.077100 -23.633400
C -1.277700 -15.798700 -23.837100
C -0.661000 -15.227200 -25.070200
F -0.232600 -16.184700 -25.852400
F 0.348900 -14.414000 -24.799900
46
Fragment
O -8.880800 -8.595200 -10.357500
H -8.514700 -10.498100 -10.888300
N -8.181900 -7.848700 -11.065400
O -8.119900 -6.644800 -10.831000
N -8.051900 -10.728000 -11.575700
H -7.970900 -11.559200 -11.781000
C -7.474300 -8.410200 -12.153300
C -7.468400 -9.809300 -12.312200
H -7.096400 -5.851800 -12.253600
C -6.763200 -10.270000 -13.478900
C -6.762600 -7.552200 -13.105000
N -6.722200 -6.218800 -12.935700
N -6.615200 -11.490400 -13.956100
H -6.452600 -5.511300 -14.603600
N -6.208600 -9.357800 -14.315800
N -6.136900 -7.997200 -14.179500
O -6.066100 -5.447000 -13.883300
F -5.990300 -8.795400 -17.250400
N -5.954700 -11.369500 -15.140800
C -5.721100 -10.091100 -15.344500
C -5.104400 -9.519500 -16.577600
F -4.676000 -10.477000 -17.359800
F -4.094600 -8.706400 -16.307300
O -4.437300 -14.302800 -18.850100
H -4.071300 -16.205800 -19.380900
N -3.738500 -13.556300 -19.558000
O -3.676500 -12.352400 -19.323600
N -3.608500 -16.435600 -20.068300
H -3.527500 -17.266900 -20.273600
C -3.030800 -14.117800 -20.645900
C -3.024900 -15.517000 -20.804900
H -2.653000 -11.559400 -20.746300
C -2.319800 -15.977600 -21.971500
C -2.319200 -13.259800 -21.597600
N -2.278700 -11.926400 -21.428300
N -2.171800 -17.198100 -22.448700
H -2.009200 -11.218900 -23.096200
N -1.765200 -15.065500 -22.808400
N -1.693500 -13.704900 -22.672100
O -1.622700 -11.154700 -22.375900
F -1.546900 -14.503000 -25.743100
N -1.511200 -17.077100 -23.633400
C -1.277700 -15.798700 -23.837100
C -0.661000 -15.227200 -25.070200
F -0.232600 -16.184700 -25.852400
F 0.348900 -14.414000 -24.799900
