24
Fragment
F -18.532000 -17.452000 -13.218400
F -18.337700 -15.859300 -14.630100
N -17.867600 -19.260300 -15.131300
C -17.771800 -16.970400 -14.172500
C -17.545100 -17.986400 -15.235300
N -17.467300 -19.891900 -16.281200
N -16.959700 -17.749400 -16.434800
C -16.915300 -18.963900 -17.033600
H -16.653000 -21.057000 -18.430600
F -16.622700 -16.592800 -13.608400
N -16.487700 -16.542900 -16.898200
C -16.319000 -19.076800 -18.355300
N -16.289000 -20.287000 -18.877900
H -16.159400 -14.012500 -17.536200
C -15.936400 -16.625100 -18.107000
H -15.910700 -20.385300 -19.619300
C -15.855800 -17.869300 -18.880200
N -15.411500 -15.478800 -18.549500
N -15.336100 -17.857200 -20.203900
N -15.316600 -14.329700 -17.735100
O -15.162500 -16.795500 -20.796300
H -15.122100 -15.439400 -19.358300
O -15.062800 -18.941500 -20.744100
H -14.997300 -14.561400 -16.947700
24
Fragment
H -12.313100 -14.689600 -18.360000
O -12.247500 -10.309500 -14.563600
H -12.188200 -13.811500 -15.949500
O -12.147800 -12.455400 -14.511500
N -11.993800 -14.921200 -17.572700
N -11.974200 -11.393700 -15.103800
N -11.898800 -13.772100 -16.758200
C -11.454500 -11.381600 -16.427500
H -11.399600 -8.865600 -15.688400
C -11.373900 -12.625800 -17.200800
H -11.151000 -15.238400 -17.771600
N -11.021400 -8.963900 -16.429900
C -10.991300 -10.174100 -16.952400
N -10.822600 -12.708100 -18.409600
F -10.687600 -12.658200 -21.699300
H -10.657300 -8.193900 -16.877100
C -10.395000 -10.287000 -18.274100
N -10.350600 -11.501500 -18.872900
N -9.843100 -9.359000 -19.026500
C -9.765200 -11.264500 -20.072500
C -9.538500 -12.280600 -21.135200
N -9.442700 -9.990600 -20.176500
F -8.972600 -13.391600 -20.677600
F -8.778300 -11.798900 -22.089400
48
Fragment
F -18.532000 -17.452000 -13.218400
F -18.337700 -15.859300 -14.630100
N -17.867600 -19.260300 -15.131300
C -17.771800 -16.970400 -14.172500
C -17.545100 -17.986400 -15.235300
N -17.467300 -19.891900 -16.281200
N -16.959700 -17.749400 -16.434800
C -16.915300 -18.963900 -17.033600
H -16.653000 -21.057000 -18.430600
F -16.622700 -16.592800 -13.608400
N -16.487700 -16.542900 -16.898200
C -16.319000 -19.076800 -18.355300
N -16.289000 -20.287000 -18.877900
H -16.159400 -14.012500 -17.536200
C -15.936400 -16.625100 -18.107000
H -15.910700 -20.385300 -19.619300
C -15.855800 -17.869300 -18.880200
N -15.411500 -15.478800 -18.549500
N -15.336100 -17.857200 -20.203900
N -15.316600 -14.329700 -17.735100
O -15.162500 -16.795500 -20.796300
H -15.122100 -15.439400 -19.358300
O -15.062800 -18.941500 -20.744100
H -14.997300 -14.561400 -16.947700
H -12.313100 -14.689600 -18.360000
O -12.247500 -10.309500 -14.563600
H -12.188200 -13.811500 -15.949500
O -12.147800 -12.455400 -14.511500
N -11.993800 -14.921200 -17.572700
N -11.974200 -11.393700 -15.103800
N -11.898800 -13.772100 -16.758200
C -11.454500 -11.381600 -16.427500
H -11.399600 -8.865600 -15.688400
C -11.373900 -12.625800 -17.200800
H -11.151000 -15.238400 -17.771600
N -11.021400 -8.963900 -16.429900
C -10.991300 -10.174100 -16.952400
N -10.822600 -12.708100 -18.409600
F -10.687600 -12.658200 -21.699300
H -10.657300 -8.193900 -16.877100
C -10.395000 -10.287000 -18.274100
N -10.350600 -11.501500 -18.872900
N -9.843100 -9.359000 -19.026500
C -9.765200 -11.264500 -20.072500
C -9.538500 -12.280600 -21.135200
N -9.442700 -9.990600 -20.176500
F -8.972600 -13.391600 -20.677600
F -8.778300 -11.798900 -22.089400
