24
Fragment
F -18.532000 -17.452000 -13.218400
F -18.337700 -15.859300 -14.630100
N -17.867600 -19.260300 -15.131300
C -17.771800 -16.970400 -14.172500
C -17.545100 -17.986400 -15.235300
N -17.467300 -19.891900 -16.281200
N -16.959700 -17.749400 -16.434800
C -16.915300 -18.963900 -17.033600
H -16.653000 -21.057000 -18.430600
F -16.622700 -16.592800 -13.608400
N -16.487700 -16.542900 -16.898200
C -16.319000 -19.076800 -18.355300
N -16.289000 -20.287000 -18.877900
H -16.159400 -14.012500 -17.536200
C -15.936400 -16.625100 -18.107000
H -15.910700 -20.385300 -19.619300
C -15.855800 -17.869300 -18.880200
N -15.411500 -15.478800 -18.549500
N -15.336100 -17.857200 -20.203900
N -15.316600 -14.329700 -17.735100
O -15.162500 -16.795500 -20.796300
H -15.122100 -15.439400 -19.358300
O -15.062800 -18.941500 -20.744100
H -14.997300 -14.561400 -16.947700
24
Fragment
H -21.506600 -18.720200 -6.590800
O -21.441100 -14.340100 -2.794400
H -21.381700 -17.842200 -4.180200
O -21.341400 -16.486000 -2.742200
N -21.187300 -18.951800 -5.803400
N -21.167700 -15.424300 -3.334600
N -21.092300 -17.802700 -4.989000
C -20.648100 -15.412300 -4.658300
H -20.593100 -12.896300 -3.919200
C -20.567400 -16.656500 -5.431500
H -20.344500 -19.269000 -6.002300
N -20.214900 -12.994600 -4.660600
C -20.184800 -14.204700 -5.183200
N -20.016100 -16.738700 -6.640300
F -19.881100 -16.688800 -9.930100
H -19.850800 -12.224600 -5.107900
C -19.588500 -14.317700 -6.504900
N -19.544200 -15.532100 -7.103700
N -19.036600 -13.389700 -7.257300
C -18.958700 -15.295100 -8.303200
C -18.732000 -16.311200 -9.366000
N -18.636200 -14.021200 -8.407200
F -18.166200 -17.422300 -8.908400
F -17.971800 -15.829600 -10.320100
48
Fragment
F -18.532000 -17.452000 -13.218400
F -18.337700 -15.859300 -14.630100
N -17.867600 -19.260300 -15.131300
C -17.771800 -16.970400 -14.172500
C -17.545100 -17.986400 -15.235300
N -17.467300 -19.891900 -16.281200
N -16.959700 -17.749400 -16.434800
C -16.915300 -18.963900 -17.033600
H -16.653000 -21.057000 -18.430600
F -16.622700 -16.592800 -13.608400
N -16.487700 -16.542900 -16.898200
C -16.319000 -19.076800 -18.355300
N -16.289000 -20.287000 -18.877900
H -16.159400 -14.012500 -17.536200
C -15.936400 -16.625100 -18.107000
H -15.910700 -20.385300 -19.619300
C -15.855800 -17.869300 -18.880200
N -15.411500 -15.478800 -18.549500
N -15.336100 -17.857200 -20.203900
N -15.316600 -14.329700 -17.735100
O -15.162500 -16.795500 -20.796300
H -15.122100 -15.439400 -19.358300
O -15.062800 -18.941500 -20.744100
H -14.997300 -14.561400 -16.947700
H -21.506600 -18.720200 -6.590800
O -21.441100 -14.340100 -2.794400
H -21.381700 -17.842200 -4.180200
O -21.341400 -16.486000 -2.742200
N -21.187300 -18.951800 -5.803400
N -21.167700 -15.424300 -3.334600
N -21.092300 -17.802700 -4.989000
C -20.648100 -15.412300 -4.658300
H -20.593100 -12.896300 -3.919200
C -20.567400 -16.656500 -5.431500
H -20.344500 -19.269000 -6.002300
N -20.214900 -12.994600 -4.660600
C -20.184800 -14.204700 -5.183200
N -20.016100 -16.738700 -6.640300
F -19.881100 -16.688800 -9.930100
H -19.850800 -12.224600 -5.107900
C -19.588500 -14.317700 -6.504900
N -19.544200 -15.532100 -7.103700
N -19.036600 -13.389700 -7.257300
C -18.958700 -15.295100 -8.303200
C -18.732000 -16.311200 -9.366000
N -18.636200 -14.021200 -8.407200
F -18.166200 -17.422300 -8.908400
F -17.971800 -15.829600 -10.320100
