23
Fragment
O -8.880800 -8.595200 -10.357500
H -8.514700 -10.498100 -10.888300
N -8.181900 -7.848700 -11.065400
O -8.119900 -6.644800 -10.831000
N -8.051900 -10.728000 -11.575700
H -7.970900 -11.559200 -11.781000
C -7.474300 -8.410200 -12.153300
C -7.468400 -9.809300 -12.312200
H -7.096400 -5.851800 -12.253600
C -6.763200 -10.270000 -13.478900
C -6.762600 -7.552200 -13.105000
N -6.722200 -6.218800 -12.935700
N -6.615200 -11.490400 -13.956100
H -6.452600 -5.511300 -14.603600
N -6.208600 -9.357800 -14.315800
N -6.136900 -7.997200 -14.179500
O -6.066100 -5.447000 -13.883300
F -5.990300 -8.795400 -17.250400
N -5.954700 -11.369500 -15.140800
C -5.721100 -10.091100 -15.344500
C -5.104400 -9.519500 -16.577600
F -4.676000 -10.477000 -17.359800
F -4.094600 -8.706400 -16.307300
23
Fragment
F -9.493700 -0.371900 -9.170600
F -8.912300 1.398700 -8.118000
C -8.483900 0.441200 -8.900300
C -7.867200 1.012800 -10.133300
N -7.633600 2.291200 -10.337000
F -7.598000 -0.282900 -8.227400
O -7.522200 -3.631300 -11.594500
N -7.451400 -1.081100 -11.298300
N -7.379700 0.279500 -11.162000
H -7.135700 -3.567000 -10.874200
N -6.973100 2.412100 -11.521800
N -6.866100 -2.859500 -12.542100
C -6.825700 -1.526100 -12.372800
C -6.825100 1.191700 -11.999000
H -6.491900 -3.226500 -13.224200
C -6.119900 0.731000 -13.165600
C -6.114000 -0.668100 -13.324600
H -5.617400 2.480900 -13.696800
N -5.536400 1.649700 -13.902100
O -5.468400 -2.433500 -14.646900
N -5.406400 -1.229600 -14.412500
H -5.073600 1.419800 -14.589500
O -4.707500 -0.483100 -15.120300
46
Fragment
O -8.880800 -8.595200 -10.357500
H -8.514700 -10.498100 -10.888300
N -8.181900 -7.848700 -11.065400
O -8.119900 -6.644800 -10.831000
N -8.051900 -10.728000 -11.575700
H -7.970900 -11.559200 -11.781000
C -7.474300 -8.410200 -12.153300
C -7.468400 -9.809300 -12.312200
H -7.096400 -5.851800 -12.253600
C -6.763200 -10.270000 -13.478900
C -6.762600 -7.552200 -13.105000
N -6.722200 -6.218800 -12.935700
N -6.615200 -11.490400 -13.956100
H -6.452600 -5.511300 -14.603600
N -6.208600 -9.357800 -14.315800
N -6.136900 -7.997200 -14.179500
O -6.066100 -5.447000 -13.883300
F -5.990300 -8.795400 -17.250400
N -5.954700 -11.369500 -15.140800
C -5.721100 -10.091100 -15.344500
C -5.104400 -9.519500 -16.577600
F -4.676000 -10.477000 -17.359800
F -4.094600 -8.706400 -16.307300
F -9.493700 -0.371900 -9.170600
F -8.912300 1.398700 -8.118000
C -8.483900 0.441200 -8.900300
C -7.867200 1.012800 -10.133300
N -7.633600 2.291200 -10.337000
F -7.598000 -0.282900 -8.227400
O -7.522200 -3.631300 -11.594500
N -7.451400 -1.081100 -11.298300
N -7.379700 0.279500 -11.162000
H -7.135700 -3.567000 -10.874200
N -6.973100 2.412100 -11.521800
N -6.866100 -2.859500 -12.542100
C -6.825700 -1.526100 -12.372800
C -6.825100 1.191700 -11.999000
H -6.491900 -3.226500 -13.224200
C -6.119900 0.731000 -13.165600
C -6.114000 -0.668100 -13.324600
H -5.617400 2.480900 -13.696800
N -5.536400 1.649700 -13.902100
O -5.468400 -2.433500 -14.646900
N -5.406400 -1.229600 -14.412500
H -5.073600 1.419800 -14.589500
O -4.707500 -0.483100 -15.120300
