24
Fragment
F -18.532000 -17.452000 -13.218400
F -18.337700 -15.859300 -14.630100
N -17.867600 -19.260300 -15.131300
C -17.771800 -16.970400 -14.172500
C -17.545100 -17.986400 -15.235300
N -17.467300 -19.891900 -16.281200
N -16.959700 -17.749400 -16.434800
C -16.915300 -18.963900 -17.033600
H -16.653000 -21.057000 -18.430600
F -16.622700 -16.592800 -13.608400
N -16.487700 -16.542900 -16.898200
C -16.319000 -19.076800 -18.355300
N -16.289000 -20.287000 -18.877900
H -16.159400 -14.012500 -17.536200
C -15.936400 -16.625100 -18.107000
H -15.910700 -20.385300 -19.619300
C -15.855800 -17.869300 -18.880200
N -15.411500 -15.478800 -18.549500
N -15.336100 -17.857200 -20.203900
N -15.316600 -14.329700 -17.735100
O -15.162500 -16.795500 -20.796300
H -15.122100 -15.439400 -19.358300
O -15.062800 -18.941500 -20.744100
H -14.997300 -14.561400 -16.947700
12
Fragment
H -16.543800 -22.668900 -22.408400
H -16.058200 -23.392100 -23.711700
C -15.799400 -22.801800 -23.000600
H -15.528400 -21.957400 -23.367700
O -15.466100 -22.662100 -20.256600
N -14.705500 -23.380800 -22.271000
C -14.648100 -23.256000 -20.962200
H -14.023300 -24.787700 -23.508000
H -13.925900 -23.652200 -20.531100
C -13.648700 -24.057400 -23.008900
H -13.232100 -23.438400 -23.613100
H -12.993200 -24.394100 -22.393600
36
Fragment
F -18.532000 -17.452000 -13.218400
F -18.337700 -15.859300 -14.630100
N -17.867600 -19.260300 -15.131300
C -17.771800 -16.970400 -14.172500
C -17.545100 -17.986400 -15.235300
N -17.467300 -19.891900 -16.281200
N -16.959700 -17.749400 -16.434800
C -16.915300 -18.963900 -17.033600
H -16.653000 -21.057000 -18.430600
F -16.622700 -16.592800 -13.608400
N -16.487700 -16.542900 -16.898200
C -16.319000 -19.076800 -18.355300
N -16.289000 -20.287000 -18.877900
H -16.159400 -14.012500 -17.536200
C -15.936400 -16.625100 -18.107000
H -15.910700 -20.385300 -19.619300
C -15.855800 -17.869300 -18.880200
N -15.411500 -15.478800 -18.549500
N -15.336100 -17.857200 -20.203900
N -15.316600 -14.329700 -17.735100
O -15.162500 -16.795500 -20.796300
H -15.122100 -15.439400 -19.358300
O -15.062800 -18.941500 -20.744100
H -14.997300 -14.561400 -16.947700
H -16.543800 -22.668900 -22.408400
H -16.058200 -23.392100 -23.711700
C -15.799400 -22.801800 -23.000600
H -15.528400 -21.957400 -23.367700
O -15.466100 -22.662100 -20.256600
N -14.705500 -23.380800 -22.271000
C -14.648100 -23.256000 -20.962200
H -14.023300 -24.787700 -23.508000
H -13.925900 -23.652200 -20.531100
C -13.648700 -24.057400 -23.008900
H -13.232100 -23.438400 -23.613100
H -12.993200 -24.394100 -22.393600
