24
Fragment
F -18.532000 -17.452000 -13.218400
F -18.337700 -15.859300 -14.630100
N -17.867600 -19.260300 -15.131300
C -17.771800 -16.970400 -14.172500
C -17.545100 -17.986400 -15.235300
N -17.467300 -19.891900 -16.281200
N -16.959700 -17.749400 -16.434800
C -16.915300 -18.963900 -17.033600
H -16.653000 -21.057000 -18.430600
F -16.622700 -16.592800 -13.608400
N -16.487700 -16.542900 -16.898200
C -16.319000 -19.076800 -18.355300
N -16.289000 -20.287000 -18.877900
H -16.159400 -14.012500 -17.536200
C -15.936400 -16.625100 -18.107000
H -15.910700 -20.385300 -19.619300
C -15.855800 -17.869300 -18.880200
N -15.411500 -15.478800 -18.549500
N -15.336100 -17.857200 -20.203900
N -15.316600 -14.329700 -17.735100
O -15.162500 -16.795500 -20.796300
H -15.122100 -15.439400 -19.358300
O -15.062800 -18.941500 -20.744100
H -14.997300 -14.561400 -16.947700
12
Fragment
H -16.506900 -13.125400 -12.914200
H -16.268000 -14.081100 -11.694600
C -15.851400 -13.462000 -12.298900
H -15.574200 -13.867300 -14.776600
H -15.476700 -12.731800 -11.799700
C -14.851900 -14.263500 -14.345500
N -14.794600 -14.138700 -13.036800
O -14.033900 -14.857400 -15.051100
H -13.971600 -15.562100 -11.940000
C -13.700600 -14.717700 -12.307100
H -13.441800 -14.127300 -11.596000
H -12.956300 -14.850600 -12.899300
36
Fragment
F -18.532000 -17.452000 -13.218400
F -18.337700 -15.859300 -14.630100
N -17.867600 -19.260300 -15.131300
C -17.771800 -16.970400 -14.172500
C -17.545100 -17.986400 -15.235300
N -17.467300 -19.891900 -16.281200
N -16.959700 -17.749400 -16.434800
C -16.915300 -18.963900 -17.033600
H -16.653000 -21.057000 -18.430600
F -16.622700 -16.592800 -13.608400
N -16.487700 -16.542900 -16.898200
C -16.319000 -19.076800 -18.355300
N -16.289000 -20.287000 -18.877900
H -16.159400 -14.012500 -17.536200
C -15.936400 -16.625100 -18.107000
H -15.910700 -20.385300 -19.619300
C -15.855800 -17.869300 -18.880200
N -15.411500 -15.478800 -18.549500
N -15.336100 -17.857200 -20.203900
N -15.316600 -14.329700 -17.735100
O -15.162500 -16.795500 -20.796300
H -15.122100 -15.439400 -19.358300
O -15.062800 -18.941500 -20.744100
H -14.997300 -14.561400 -16.947700
H -16.506900 -13.125400 -12.914200
H -16.268000 -14.081100 -11.694600
C -15.851400 -13.462000 -12.298900
H -15.574200 -13.867300 -14.776600
H -15.476700 -12.731800 -11.799700
C -14.851900 -14.263500 -14.345500
N -14.794600 -14.138700 -13.036800
O -14.033900 -14.857400 -15.051100
H -13.971600 -15.562100 -11.940000
C -13.700600 -14.717700 -12.307100
H -13.441800 -14.127300 -11.596000
H -12.956300 -14.850600 -12.899300
