10
Fragment
H -5.445000 -17.994800 -29.105000
N -4.911700 -17.741200 -29.784400
H -4.304200 -18.414500 -29.865800
N -4.192800 -16.588200 -29.396800
H -4.166300 -15.503200 -31.117500
C -3.904500 -15.558300 -30.226800
H -3.682000 -16.791900 -27.433200
C -3.639400 -16.268100 -28.200500
N -3.202700 -14.649200 -29.592300
N -3.034300 -15.105400 -28.290700
10
Fragment
H -9.286900 -17.994800 -29.105000
N -8.753600 -17.741200 -29.784400
H -8.146100 -18.414500 -29.865800
N -8.034700 -16.588200 -29.396800
H -8.008200 -15.503200 -31.117500
C -7.746400 -15.558300 -30.226800
H -7.523900 -16.791900 -27.433200
C -7.481300 -16.268100 -28.200500
N -7.044600 -14.649200 -29.592300
N -6.876200 -15.105400 -28.290700
20
Fragment
H -5.445000 -17.994800 -29.105000
N -4.911700 -17.741200 -29.784400
H -4.304200 -18.414500 -29.865800
N -4.192800 -16.588200 -29.396800
H -4.166300 -15.503200 -31.117500
C -3.904500 -15.558300 -30.226800
H -3.682000 -16.791900 -27.433200
C -3.639400 -16.268100 -28.200500
N -3.202700 -14.649200 -29.592300
N -3.034300 -15.105400 -28.290700
H -9.286900 -17.994800 -29.105000
N -8.753600 -17.741200 -29.784400
H -8.146100 -18.414500 -29.865800
N -8.034700 -16.588200 -29.396800
H -8.008200 -15.503200 -31.117500
C -7.746400 -15.558300 -30.226800
H -7.523900 -16.791900 -27.433200
C -7.481300 -16.268100 -28.200500
N -7.044600 -14.649200 -29.592300
N -6.876200 -15.105400 -28.290700
