10
Fragment
H -5.445000 -17.994800 -29.105000
N -4.911700 -17.741200 -29.784400
H -4.304200 -18.414500 -29.865800
N -4.192800 -16.588200 -29.396800
H -4.166300 -15.503200 -31.117500
C -3.904500 -15.558300 -30.226800
H -3.682000 -16.791900 -27.433200
C -3.639400 -16.268100 -28.200500
N -3.202700 -14.649200 -29.592300
N -3.034300 -15.105400 -28.290700
10
Fragment
N -3.363500 -9.683000 -31.684200
N -3.195100 -9.226800 -30.382600
C -2.758300 -10.845700 -31.774300
H -2.715700 -11.369500 -32.541700
C -2.493200 -10.135900 -29.748100
H -2.231500 -10.080800 -28.857300
N -2.205000 -11.165800 -30.578100
H -2.093500 -12.992100 -30.109100
N -1.486100 -12.318800 -30.190500
H -0.952700 -12.572400 -30.869900
20
Fragment
H -5.445000 -17.994800 -29.105000
N -4.911700 -17.741200 -29.784400
H -4.304200 -18.414500 -29.865800
N -4.192800 -16.588200 -29.396800
H -4.166300 -15.503200 -31.117500
C -3.904500 -15.558300 -30.226800
H -3.682000 -16.791900 -27.433200
C -3.639400 -16.268100 -28.200500
N -3.202700 -14.649200 -29.592300
N -3.034300 -15.105400 -28.290700
N -3.363500 -9.683000 -31.684200
N -3.195100 -9.226800 -30.382600
C -2.758300 -10.845700 -31.774300
H -2.715700 -11.369500 -32.541700
C -2.493200 -10.135900 -29.748100
H -2.231500 -10.080800 -28.857300
N -2.205000 -11.165800 -30.578100
H -2.093500 -12.992100 -30.109100
N -1.486100 -12.318800 -30.190500
H -0.952700 -12.572400 -30.869900
