10
Fragment
H -5.445000 -17.994800 -29.105000
N -4.911700 -17.741200 -29.784400
H -4.304200 -18.414500 -29.865800
N -4.192800 -16.588200 -29.396800
H -4.166300 -15.503200 -31.117500
C -3.904500 -15.558300 -30.226800
H -3.682000 -16.791900 -27.433200
C -3.639400 -16.268100 -28.200500
N -3.202700 -14.649200 -29.592300
N -3.034300 -15.105400 -28.290700
9
Fragment
H -7.215200 -21.388100 -24.240000
N -6.724300 -20.695100 -24.104200
N -6.632200 -20.153700 -26.426600
H -6.485800 -20.486900 -23.304700
C -6.330200 -19.937700 -25.141600
N -6.070600 -19.114200 -27.108000
N -5.606600 -18.807300 -25.060600
N -5.454500 -18.306800 -26.310800
H -5.293800 -18.460700 -24.338300
19
Fragment
H -5.445000 -17.994800 -29.105000
N -4.911700 -17.741200 -29.784400
H -4.304200 -18.414500 -29.865800
N -4.192800 -16.588200 -29.396800
H -4.166300 -15.503200 -31.117500
C -3.904500 -15.558300 -30.226800
H -3.682000 -16.791900 -27.433200
C -3.639400 -16.268100 -28.200500
N -3.202700 -14.649200 -29.592300
N -3.034300 -15.105400 -28.290700
H -7.215200 -21.388100 -24.240000
N -6.724300 -20.695100 -24.104200
N -6.632200 -20.153700 -26.426600
H -6.485800 -20.486900 -23.304700
C -6.330200 -19.937700 -25.141600
N -6.070600 -19.114200 -27.108000
N -5.606600 -18.807300 -25.060600
N -5.454500 -18.306800 -26.310800
H -5.293800 -18.460700 -24.338300
