28
Fragment
H -16.084900 -7.598300 -15.304900
N -15.319700 -7.230200 -15.072100
H -15.313000 -6.444700 -14.675700
H -15.068500 -10.849900 -17.171100
H -15.024600 -12.731500 -18.664900
H -14.610700 -12.186500 -16.409800
C -14.352500 -11.531500 -17.107000
N -14.246100 -9.051100 -15.925300
C -14.191100 -12.241200 -18.449700
C -14.166900 -7.865500 -15.321300
H -14.042000 -11.568700 -19.160700
H -13.238300 -13.949700 -17.804100
N -13.079800 -10.885600 -16.738200
C -13.075000 -9.662100 -16.148000
C -13.035900 -13.208100 -18.428300
N -13.029500 -7.246200 -14.942500
H -12.910000 -13.592900 -19.331800
H -12.052300 -12.438500 -15.970600
C -11.935400 -11.787300 -16.706800
C -11.923100 -7.930800 -15.269700
N -11.873200 -9.134600 -15.847300
C -11.778300 -12.522700 -17.997900
H -11.501300 -11.884400 -18.701400
H -11.112500 -11.265800 -16.525600
H -11.060200 -13.197500 -17.901000
N -10.741200 -7.352400 -14.968900
H -10.723900 -6.560000 -14.587600
H -9.988100 -7.768400 -15.155100
28
Fragment
H -13.482500 -13.669600 -22.437600
N -12.719500 -14.077900 -22.598700
H -12.717600 -14.886300 -22.946000
H -12.422300 -8.343700 -19.399800
H -12.392900 -10.223000 -20.920000
H -11.808800 -9.656800 -18.719000
C -11.659500 -8.972900 -19.418700
N -11.613800 -12.237400 -21.787000
C -11.592300 -9.654500 -20.794100
H -11.591500 -8.964500 -21.503900
C -11.572100 -13.473800 -22.318100
C -10.434500 -11.692400 -21.510200
N -10.425900 -14.150000 -22.608800
H -10.410500 -7.851900 -18.203000
N -10.389200 -10.475700 -20.911200
C -10.374900 -8.218500 -19.121700
H -10.279400 -7.462500 -19.752200
C -9.299100 -13.498100 -22.324400
H -9.264100 -9.847300 -18.568000
N -9.216500 -12.263200 -21.768100
C -9.205000 -9.133800 -19.252600
C -9.164600 -9.762300 -20.636800
H -9.035300 -9.054100 -21.317600
H -8.397700 -10.386900 -20.694700
H -8.369800 -8.626800 -19.095300
N -8.151800 -14.106000 -22.571000
H -8.147400 -14.916600 -22.912000
H -7.391600 -13.700000 -22.393600
56
Fragment
H -16.084900 -7.598300 -15.304900
N -15.319700 -7.230200 -15.072100
H -15.313000 -6.444700 -14.675700
H -15.068500 -10.849900 -17.171100
H -15.024600 -12.731500 -18.664900
H -14.610700 -12.186500 -16.409800
C -14.352500 -11.531500 -17.107000
N -14.246100 -9.051100 -15.925300
C -14.191100 -12.241200 -18.449700
C -14.166900 -7.865500 -15.321300
H -14.042000 -11.568700 -19.160700
H -13.238300 -13.949700 -17.804100
N -13.079800 -10.885600 -16.738200
C -13.075000 -9.662100 -16.148000
C -13.035900 -13.208100 -18.428300
N -13.029500 -7.246200 -14.942500
H -12.910000 -13.592900 -19.331800
H -12.052300 -12.438500 -15.970600
C -11.935400 -11.787300 -16.706800
C -11.923100 -7.930800 -15.269700
N -11.873200 -9.134600 -15.847300
C -11.778300 -12.522700 -17.997900
H -11.501300 -11.884400 -18.701400
H -11.112500 -11.265800 -16.525600
H -11.060200 -13.197500 -17.901000
N -10.741200 -7.352400 -14.968900
H -10.723900 -6.560000 -14.587600
H -9.988100 -7.768400 -15.155100
H -13.482500 -13.669600 -22.437600
N -12.719500 -14.077900 -22.598700
H -12.717600 -14.886300 -22.946000
H -12.422300 -8.343700 -19.399800
H -12.392900 -10.223000 -20.920000
H -11.808800 -9.656800 -18.719000
C -11.659500 -8.972900 -19.418700
N -11.613800 -12.237400 -21.787000
C -11.592300 -9.654500 -20.794100
H -11.591500 -8.964500 -21.503900
C -11.572100 -13.473800 -22.318100
C -10.434500 -11.692400 -21.510200
N -10.425900 -14.150000 -22.608800
H -10.410500 -7.851900 -18.203000
N -10.389200 -10.475700 -20.911200
C -10.374900 -8.218500 -19.121700
H -10.279400 -7.462500 -19.752200
C -9.299100 -13.498100 -22.324400
H -9.264100 -9.847300 -18.568000
N -9.216500 -12.263200 -21.768100
C -9.205000 -9.133800 -19.252600
C -9.164600 -9.762300 -20.636800
H -9.035300 -9.054100 -21.317600
H -8.397700 -10.386900 -20.694700
H -8.369800 -8.626800 -19.095300
N -8.151800 -14.106000 -22.571000
H -8.147400 -14.916600 -22.912000
H -7.391600 -13.700000 -22.393600
