28
Fragment
H -16.084900 -7.598300 -15.304900
N -15.319700 -7.230200 -15.072100
H -15.313000 -6.444700 -14.675700
H -15.068500 -10.849900 -17.171100
H -15.024600 -12.731500 -18.664900
H -14.610700 -12.186500 -16.409800
C -14.352500 -11.531500 -17.107000
N -14.246100 -9.051100 -15.925300
C -14.191100 -12.241200 -18.449700
C -14.166900 -7.865500 -15.321300
H -14.042000 -11.568700 -19.160700
H -13.238300 -13.949700 -17.804100
N -13.079800 -10.885600 -16.738200
C -13.075000 -9.662100 -16.148000
C -13.035900 -13.208100 -18.428300
N -13.029500 -7.246200 -14.942500
H -12.910000 -13.592900 -19.331800
H -12.052300 -12.438500 -15.970600
C -11.935400 -11.787300 -16.706800
C -11.923100 -7.930800 -15.269700
N -11.873200 -9.134600 -15.847300
C -11.778300 -12.522700 -17.997900
H -11.501300 -11.884400 -18.701400
H -11.112500 -11.265800 -16.525600
H -11.060200 -13.197500 -17.901000
N -10.741200 -7.352400 -14.968900
H -10.723900 -6.560000 -14.587600
H -9.988100 -7.768400 -15.155100
28
Fragment
H -16.084900 -15.188300 -15.304900
N -15.319700 -14.820200 -15.072100
H -15.313000 -14.034700 -14.675700
H -15.068500 -18.439900 -17.171100
H -15.024600 -20.321500 -18.664900
H -14.610700 -19.776500 -16.409800
C -14.352500 -19.121500 -17.107000
N -14.246100 -16.641100 -15.925300
C -14.191100 -19.831200 -18.449700
C -14.166900 -15.455500 -15.321300
H -14.042000 -19.158700 -19.160700
H -13.238300 -21.539700 -17.804100
N -13.079800 -18.475600 -16.738200
C -13.075000 -17.252100 -16.148000
C -13.035900 -20.798100 -18.428300
N -13.029500 -14.836200 -14.942500
H -12.910000 -21.182900 -19.331800
H -12.052300 -20.028500 -15.970600
C -11.935400 -19.377300 -16.706800
C -11.923100 -15.520800 -15.269700
N -11.873200 -16.724600 -15.847300
C -11.778300 -20.112700 -17.997900
H -11.501300 -19.474400 -18.701400
H -11.112500 -18.855800 -16.525600
H -11.060200 -20.787500 -17.901000
N -10.741200 -14.942400 -14.968900
H -10.723900 -14.150000 -14.587600
H -9.988100 -15.358400 -15.155100
56
Fragment
H -16.084900 -7.598300 -15.304900
N -15.319700 -7.230200 -15.072100
H -15.313000 -6.444700 -14.675700
H -15.068500 -10.849900 -17.171100
H -15.024600 -12.731500 -18.664900
H -14.610700 -12.186500 -16.409800
C -14.352500 -11.531500 -17.107000
N -14.246100 -9.051100 -15.925300
C -14.191100 -12.241200 -18.449700
C -14.166900 -7.865500 -15.321300
H -14.042000 -11.568700 -19.160700
H -13.238300 -13.949700 -17.804100
N -13.079800 -10.885600 -16.738200
C -13.075000 -9.662100 -16.148000
C -13.035900 -13.208100 -18.428300
N -13.029500 -7.246200 -14.942500
H -12.910000 -13.592900 -19.331800
H -12.052300 -12.438500 -15.970600
C -11.935400 -11.787300 -16.706800
C -11.923100 -7.930800 -15.269700
N -11.873200 -9.134600 -15.847300
C -11.778300 -12.522700 -17.997900
H -11.501300 -11.884400 -18.701400
H -11.112500 -11.265800 -16.525600
H -11.060200 -13.197500 -17.901000
N -10.741200 -7.352400 -14.968900
H -10.723900 -6.560000 -14.587600
H -9.988100 -7.768400 -15.155100
H -16.084900 -15.188300 -15.304900
N -15.319700 -14.820200 -15.072100
H -15.313000 -14.034700 -14.675700
H -15.068500 -18.439900 -17.171100
H -15.024600 -20.321500 -18.664900
H -14.610700 -19.776500 -16.409800
C -14.352500 -19.121500 -17.107000
N -14.246100 -16.641100 -15.925300
C -14.191100 -19.831200 -18.449700
C -14.166900 -15.455500 -15.321300
H -14.042000 -19.158700 -19.160700
H -13.238300 -21.539700 -17.804100
N -13.079800 -18.475600 -16.738200
C -13.075000 -17.252100 -16.148000
C -13.035900 -20.798100 -18.428300
N -13.029500 -14.836200 -14.942500
H -12.910000 -21.182900 -19.331800
H -12.052300 -20.028500 -15.970600
C -11.935400 -19.377300 -16.706800
C -11.923100 -15.520800 -15.269700
N -11.873200 -16.724600 -15.847300
C -11.778300 -20.112700 -17.997900
H -11.501300 -19.474400 -18.701400
H -11.112500 -18.855800 -16.525600
H -11.060200 -20.787500 -17.901000
N -10.741200 -14.942400 -14.968900
H -10.723900 -14.150000 -14.587600
H -9.988100 -15.358400 -15.155100
