28
Fragment
H -16.084900 -7.598300 -15.304900
N -15.319700 -7.230200 -15.072100
H -15.313000 -6.444700 -14.675700
H -15.068500 -10.849900 -17.171100
H -15.024600 -12.731500 -18.664900
H -14.610700 -12.186500 -16.409800
C -14.352500 -11.531500 -17.107000
N -14.246100 -9.051100 -15.925300
C -14.191100 -12.241200 -18.449700
C -14.166900 -7.865500 -15.321300
H -14.042000 -11.568700 -19.160700
H -13.238300 -13.949700 -17.804100
N -13.079800 -10.885600 -16.738200
C -13.075000 -9.662100 -16.148000
C -13.035900 -13.208100 -18.428300
N -13.029500 -7.246200 -14.942500
H -12.910000 -13.592900 -19.331800
H -12.052300 -12.438500 -15.970600
C -11.935400 -11.787300 -16.706800
C -11.923100 -7.930800 -15.269700
N -11.873200 -9.134600 -15.847300
C -11.778300 -12.522700 -17.997900
H -11.501300 -11.884400 -18.701400
H -11.112500 -11.265800 -16.525600
H -11.060200 -13.197500 -17.901000
N -10.741200 -7.352400 -14.968900
H -10.723900 -6.560000 -14.587600
H -9.988100 -7.768400 -15.155100
28
Fragment
H -13.482500 -21.259600 -22.437600
N -12.719500 -21.667900 -22.598700
H -12.717600 -22.476300 -22.946000
H -12.422300 -15.933700 -19.399800
H -12.392900 -17.813000 -20.920000
H -11.808800 -17.246800 -18.719000
C -11.659500 -16.562900 -19.418700
N -11.613800 -19.827400 -21.787000
C -11.592300 -17.244500 -20.794100
H -11.591500 -16.554500 -21.503900
C -11.572100 -21.063800 -22.318100
C -10.434500 -19.282400 -21.510200
N -10.425900 -21.740000 -22.608800
H -10.410500 -15.441900 -18.203000
N -10.389200 -18.065700 -20.911200
C -10.374900 -15.808500 -19.121700
H -10.279400 -15.052500 -19.752200
C -9.299100 -21.088100 -22.324400
H -9.264100 -17.437300 -18.568000
N -9.216500 -19.853200 -21.768100
C -9.205000 -16.723800 -19.252600
C -9.164600 -17.352300 -20.636800
H -9.035300 -16.644100 -21.317600
H -8.397700 -17.976900 -20.694700
H -8.369800 -16.216800 -19.095300
N -8.151800 -21.696000 -22.571000
H -8.147400 -22.506600 -22.912000
H -7.391600 -21.289900 -22.393600
56
Fragment
H -16.084900 -7.598300 -15.304900
N -15.319700 -7.230200 -15.072100
H -15.313000 -6.444700 -14.675700
H -15.068500 -10.849900 -17.171100
H -15.024600 -12.731500 -18.664900
H -14.610700 -12.186500 -16.409800
C -14.352500 -11.531500 -17.107000
N -14.246100 -9.051100 -15.925300
C -14.191100 -12.241200 -18.449700
C -14.166900 -7.865500 -15.321300
H -14.042000 -11.568700 -19.160700
H -13.238300 -13.949700 -17.804100
N -13.079800 -10.885600 -16.738200
C -13.075000 -9.662100 -16.148000
C -13.035900 -13.208100 -18.428300
N -13.029500 -7.246200 -14.942500
H -12.910000 -13.592900 -19.331800
H -12.052300 -12.438500 -15.970600
C -11.935400 -11.787300 -16.706800
C -11.923100 -7.930800 -15.269700
N -11.873200 -9.134600 -15.847300
C -11.778300 -12.522700 -17.997900
H -11.501300 -11.884400 -18.701400
H -11.112500 -11.265800 -16.525600
H -11.060200 -13.197500 -17.901000
N -10.741200 -7.352400 -14.968900
H -10.723900 -6.560000 -14.587600
H -9.988100 -7.768400 -15.155100
H -13.482500 -21.259600 -22.437600
N -12.719500 -21.667900 -22.598700
H -12.717600 -22.476300 -22.946000
H -12.422300 -15.933700 -19.399800
H -12.392900 -17.813000 -20.920000
H -11.808800 -17.246800 -18.719000
C -11.659500 -16.562900 -19.418700
N -11.613800 -19.827400 -21.787000
C -11.592300 -17.244500 -20.794100
H -11.591500 -16.554500 -21.503900
C -11.572100 -21.063800 -22.318100
C -10.434500 -19.282400 -21.510200
N -10.425900 -21.740000 -22.608800
H -10.410500 -15.441900 -18.203000
N -10.389200 -18.065700 -20.911200
C -10.374900 -15.808500 -19.121700
H -10.279400 -15.052500 -19.752200
C -9.299100 -21.088100 -22.324400
H -9.264100 -17.437300 -18.568000
N -9.216500 -19.853200 -21.768100
C -9.205000 -16.723800 -19.252600
C -9.164600 -17.352300 -20.636800
H -9.035300 -16.644100 -21.317600
H -8.397700 -17.976900 -20.694700
H -8.369800 -16.216800 -19.095300
N -8.151800 -21.696000 -22.571000
H -8.147400 -22.506600 -22.912000
H -7.391600 -21.289900 -22.393600
