28
Fragment
H -16.084900 -7.598300 -15.304900
N -15.319700 -7.230200 -15.072100
H -15.313000 -6.444700 -14.675700
H -15.068500 -10.849900 -17.171100
H -15.024600 -12.731500 -18.664900
H -14.610700 -12.186500 -16.409800
C -14.352500 -11.531500 -17.107000
N -14.246100 -9.051100 -15.925300
C -14.191100 -12.241200 -18.449700
C -14.166900 -7.865500 -15.321300
H -14.042000 -11.568700 -19.160700
H -13.238300 -13.949700 -17.804100
N -13.079800 -10.885600 -16.738200
C -13.075000 -9.662100 -16.148000
C -13.035900 -13.208100 -18.428300
N -13.029500 -7.246200 -14.942500
H -12.910000 -13.592900 -19.331800
H -12.052300 -12.438500 -15.970600
C -11.935400 -11.787300 -16.706800
C -11.923100 -7.930800 -15.269700
N -11.873200 -9.134600 -15.847300
C -11.778300 -12.522700 -17.997900
H -11.501300 -11.884400 -18.701400
H -11.112500 -11.265800 -16.525600
H -11.060200 -13.197500 -17.901000
N -10.741200 -7.352400 -14.968900
H -10.723900 -6.560000 -14.587600
H -9.988100 -7.768400 -15.155100
28
Fragment
H -19.684300 -3.973400 -22.597400
H -18.948400 -2.765000 -23.165000
N -18.931100 -3.557400 -22.783700
H -18.612200 -9.402500 -19.851600
H -18.559900 -7.470800 -21.227000
H -18.171000 -8.089400 -19.051200
C -17.894100 -8.727700 -19.754700
N -17.799100 -5.339600 -21.905300
C -17.749200 -4.135800 -22.482900
C -17.736900 -7.992300 -21.045800
H -17.620100 -8.643500 -21.782000
H -16.762300 -9.797900 -18.420700
N -16.642900 -3.451200 -22.810100
C -16.636400 -9.413100 -19.324300
C -16.597300 -5.867100 -21.604500
N -16.592500 -7.090600 -21.014300
H -16.434000 -10.154700 -19.948500
H -15.630300 -7.773700 -18.591900
C -15.505400 -4.070500 -22.431300
C -15.481200 -8.446200 -19.302900
N -15.426300 -5.256100 -21.827300
C -15.319900 -7.736500 -20.645600
H -15.061600 -8.391500 -21.342800
H -14.647800 -8.936500 -19.087700
H -14.603800 -7.054900 -20.581500
H -14.359400 -2.649700 -23.076900
N -14.352600 -3.435200 -22.680500
H -13.587400 -3.803300 -22.447700
56
Fragment
H -16.084900 -7.598300 -15.304900
N -15.319700 -7.230200 -15.072100
H -15.313000 -6.444700 -14.675700
H -15.068500 -10.849900 -17.171100
H -15.024600 -12.731500 -18.664900
H -14.610700 -12.186500 -16.409800
C -14.352500 -11.531500 -17.107000
N -14.246100 -9.051100 -15.925300
C -14.191100 -12.241200 -18.449700
C -14.166900 -7.865500 -15.321300
H -14.042000 -11.568700 -19.160700
H -13.238300 -13.949700 -17.804100
N -13.079800 -10.885600 -16.738200
C -13.075000 -9.662100 -16.148000
C -13.035900 -13.208100 -18.428300
N -13.029500 -7.246200 -14.942500
H -12.910000 -13.592900 -19.331800
H -12.052300 -12.438500 -15.970600
C -11.935400 -11.787300 -16.706800
C -11.923100 -7.930800 -15.269700
N -11.873200 -9.134600 -15.847300
C -11.778300 -12.522700 -17.997900
H -11.501300 -11.884400 -18.701400
H -11.112500 -11.265800 -16.525600
H -11.060200 -13.197500 -17.901000
N -10.741200 -7.352400 -14.968900
H -10.723900 -6.560000 -14.587600
H -9.988100 -7.768400 -15.155100
H -19.684300 -3.973400 -22.597400
H -18.948400 -2.765000 -23.165000
N -18.931100 -3.557400 -22.783700
H -18.612200 -9.402500 -19.851600
H -18.559900 -7.470800 -21.227000
H -18.171000 -8.089400 -19.051200
C -17.894100 -8.727700 -19.754700
N -17.799100 -5.339600 -21.905300
C -17.749200 -4.135800 -22.482900
C -17.736900 -7.992300 -21.045800
H -17.620100 -8.643500 -21.782000
H -16.762300 -9.797900 -18.420700
N -16.642900 -3.451200 -22.810100
C -16.636400 -9.413100 -19.324300
C -16.597300 -5.867100 -21.604500
N -16.592500 -7.090600 -21.014300
H -16.434000 -10.154700 -19.948500
H -15.630300 -7.773700 -18.591900
C -15.505400 -4.070500 -22.431300
C -15.481200 -8.446200 -19.302900
N -15.426300 -5.256100 -21.827300
C -15.319900 -7.736500 -20.645600
H -15.061600 -8.391500 -21.342800
H -14.647800 -8.936500 -19.087700
H -14.603800 -7.054900 -20.581500
H -14.359400 -2.649700 -23.076900
N -14.352600 -3.435200 -22.680500
H -13.587400 -3.803300 -22.447700
