28
Fragment
H -16.084900 -7.598300 -15.304900
N -15.319700 -7.230200 -15.072100
H -15.313000 -6.444700 -14.675700
H -15.068500 -10.849900 -17.171100
H -15.024600 -12.731500 -18.664900
H -14.610700 -12.186500 -16.409800
C -14.352500 -11.531500 -17.107000
N -14.246100 -9.051100 -15.925300
C -14.191100 -12.241200 -18.449700
C -14.166900 -7.865500 -15.321300
H -14.042000 -11.568700 -19.160700
H -13.238300 -13.949700 -17.804100
N -13.079800 -10.885600 -16.738200
C -13.075000 -9.662100 -16.148000
C -13.035900 -13.208100 -18.428300
N -13.029500 -7.246200 -14.942500
H -12.910000 -13.592900 -19.331800
H -12.052300 -12.438500 -15.970600
C -11.935400 -11.787300 -16.706800
C -11.923100 -7.930800 -15.269700
N -11.873200 -9.134600 -15.847300
C -11.778300 -12.522700 -17.997900
H -11.501300 -11.884400 -18.701400
H -11.112500 -11.265800 -16.525600
H -11.060200 -13.197500 -17.901000
N -10.741200 -7.352400 -14.968900
H -10.723900 -6.560000 -14.587600
H -9.988100 -7.768400 -15.155100
15
Fragment
O -21.486200 -5.256100 -13.669000
H -21.255800 -7.595300 -12.650900
H -20.599300 -6.757400 -11.457900
C -20.478000 -7.035900 -12.400500
C -20.463300 -5.817700 -13.265000
N -19.233300 -5.271300 -13.582100
H -19.230400 -4.530500 -14.056500
H -19.225600 -8.569900 -11.802700
C -19.218700 -7.873100 -12.506200
H -19.194700 -8.324700 -13.385800
C -18.006400 -5.795700 -13.214700
C -18.000200 -7.013200 -12.348900
H -17.928300 -6.731600 -11.402500
H -17.199200 -7.553600 -12.562800
O -16.975900 -5.213600 -13.603500
43
Fragment
H -16.084900 -7.598300 -15.304900
N -15.319700 -7.230200 -15.072100
H -15.313000 -6.444700 -14.675700
H -15.068500 -10.849900 -17.171100
H -15.024600 -12.731500 -18.664900
H -14.610700 -12.186500 -16.409800
C -14.352500 -11.531500 -17.107000
N -14.246100 -9.051100 -15.925300
C -14.191100 -12.241200 -18.449700
C -14.166900 -7.865500 -15.321300
H -14.042000 -11.568700 -19.160700
H -13.238300 -13.949700 -17.804100
N -13.079800 -10.885600 -16.738200
C -13.075000 -9.662100 -16.148000
C -13.035900 -13.208100 -18.428300
N -13.029500 -7.246200 -14.942500
H -12.910000 -13.592900 -19.331800
H -12.052300 -12.438500 -15.970600
C -11.935400 -11.787300 -16.706800
C -11.923100 -7.930800 -15.269700
N -11.873200 -9.134600 -15.847300
C -11.778300 -12.522700 -17.997900
H -11.501300 -11.884400 -18.701400
H -11.112500 -11.265800 -16.525600
H -11.060200 -13.197500 -17.901000
N -10.741200 -7.352400 -14.968900
H -10.723900 -6.560000 -14.587600
H -9.988100 -7.768400 -15.155100
O -21.486200 -5.256100 -13.669000
H -21.255800 -7.595300 -12.650900
H -20.599300 -6.757400 -11.457900
C -20.478000 -7.035900 -12.400500
C -20.463300 -5.817700 -13.265000
N -19.233300 -5.271300 -13.582100
H -19.230400 -4.530500 -14.056500
H -19.225600 -8.569900 -11.802700
C -19.218700 -7.873100 -12.506200
H -19.194700 -8.324700 -13.385800
C -18.006400 -5.795700 -13.214700
C -18.000200 -7.013200 -12.348900
H -17.928300 -6.731600 -11.402500
H -17.199200 -7.553600 -12.562800
O -16.975900 -5.213600 -13.603500
