13
Fragment
H -3.365100 -8.045600 -15.953300
H -3.314400 -7.302900 -18.089000
N -3.111500 -7.225400 -16.086800
C -3.054300 -6.754700 -17.357500
O -2.820300 -6.933900 -13.866200
C -2.751800 -6.450600 -15.015900
C -2.625400 -5.503800 -17.561100
F -2.549200 -4.970100 -18.808800
N -2.299000 -5.187800 -15.213800
C -2.218100 -4.696900 -16.459500
N -1.744900 -3.473400 -16.652500
H -1.682400 -3.165400 -17.480500
H -1.566500 -3.001900 -15.924500
8
Fragment
H -2.539000 -10.558700 -18.085600
N -1.739400 -10.223700 -17.651400
H -1.704800 -10.150200 -16.750500
C -0.576500 -10.348400 -18.328600
O -0.558400 -10.673700 -19.537800
N 0.565400 -10.051200 -17.663900
H 0.590500 -10.026600 -16.817700
H 1.387400 -10.334000 -18.143200
21
Fragment
H -3.365100 -8.045600 -15.953300
H -3.314400 -7.302900 -18.089000
N -3.111500 -7.225400 -16.086800
C -3.054300 -6.754700 -17.357500
O -2.820300 -6.933900 -13.866200
C -2.751800 -6.450600 -15.015900
C -2.625400 -5.503800 -17.561100
F -2.549200 -4.970100 -18.808800
N -2.299000 -5.187800 -15.213800
C -2.218100 -4.696900 -16.459500
N -1.744900 -3.473400 -16.652500
H -1.682400 -3.165400 -17.480500
H -1.566500 -3.001900 -15.924500
H -2.539000 -10.558700 -18.085600
N -1.739400 -10.223700 -17.651400
H -1.704800 -10.150200 -16.750500
C -0.576500 -10.348400 -18.328600
O -0.558400 -10.673700 -19.537800
N 0.565400 -10.051200 -17.663900
H 0.590500 -10.026600 -16.817700
H 1.387400 -10.334000 -18.143200
