25
Fragment
H -27.743500 -19.483000 -12.418600
H -27.717800 -21.638500 -13.180800
C -26.930900 -19.927300 -12.499200
C -26.915800 -21.224400 -12.955700
H -25.770200 -18.389400 -11.853700
C -25.760800 -19.268900 -12.156000
C -25.731500 -21.925900 -13.086300
H -25.720300 -22.800800 -13.400400
C -24.581500 -19.971500 -12.281000
C -24.566900 -21.276600 -12.732700
C -23.183600 -19.572600 -11.975300
C -23.161200 -21.756500 -12.711100
O -22.763400 -18.533400 -11.541100
O -22.729400 -22.852800 -12.986300
N -22.396300 -20.681700 -12.292200
C -20.958500 -20.747000 -12.077500
H -20.727700 -20.216300 -11.299300
H -20.704000 -21.665200 -11.898200
H -20.493700 -20.705200 -14.064000
H -20.364500 -19.295900 -13.383700
C -20.191900 -20.243500 -13.266300
C -18.712500 -20.466700 -13.087000
O -18.182300 -21.260100 -13.929900
O -18.102100 -19.908400 -12.182900
H -17.410600 -21.420700 -13.705400
25
Fragment
H -27.119900 -25.077200 -15.892700
H -27.094200 -22.921800 -16.655000
C -26.307300 -24.632900 -15.973300
C -26.292200 -23.335800 -16.429800
H -25.146700 -26.170900 -15.327900
C -25.137200 -25.291400 -15.630100
C -25.107900 -22.634300 -16.560500
H -25.096700 -21.759400 -16.874500
C -23.957900 -24.588700 -15.755200
C -23.943300 -23.283600 -16.206800
C -22.560000 -24.987600 -15.449400
C -22.537600 -22.803800 -16.185300
O -22.139800 -26.026900 -15.015200
O -22.105800 -21.707500 -16.460400
N -21.772700 -23.878600 -15.766300
C -20.334900 -23.813300 -15.551600
H -20.104100 -24.343900 -14.773400
H -20.080400 -22.895100 -15.372300
H -19.870200 -23.855000 -17.538100
H -19.740900 -25.264400 -16.857900
C -19.568300 -24.316800 -16.740400
C -18.088900 -24.093600 -16.561200
O -17.558700 -23.300200 -17.404000
O -17.478500 -24.651900 -15.657100
H -16.787000 -23.139500 -17.179600
50
Fragment
H -27.743500 -19.483000 -12.418600
H -27.717800 -21.638500 -13.180800
C -26.930900 -19.927300 -12.499200
C -26.915800 -21.224400 -12.955700
H -25.770200 -18.389400 -11.853700
C -25.760800 -19.268900 -12.156000
C -25.731500 -21.925900 -13.086300
H -25.720300 -22.800800 -13.400400
C -24.581500 -19.971500 -12.281000
C -24.566900 -21.276600 -12.732700
C -23.183600 -19.572600 -11.975300
C -23.161200 -21.756500 -12.711100
O -22.763400 -18.533400 -11.541100
O -22.729400 -22.852800 -12.986300
N -22.396300 -20.681700 -12.292200
C -20.958500 -20.747000 -12.077500
H -20.727700 -20.216300 -11.299300
H -20.704000 -21.665200 -11.898200
H -20.493700 -20.705200 -14.064000
H -20.364500 -19.295900 -13.383700
C -20.191900 -20.243500 -13.266300
C -18.712500 -20.466700 -13.087000
O -18.182300 -21.260100 -13.929900
O -18.102100 -19.908400 -12.182900
H -17.410600 -21.420700 -13.705400
H -27.119900 -25.077200 -15.892700
H -27.094200 -22.921800 -16.655000
C -26.307300 -24.632900 -15.973300
C -26.292200 -23.335800 -16.429800
H -25.146700 -26.170900 -15.327900
C -25.137200 -25.291400 -15.630100
C -25.107900 -22.634300 -16.560500
H -25.096700 -21.759400 -16.874500
C -23.957900 -24.588700 -15.755200
C -23.943300 -23.283600 -16.206800
C -22.560000 -24.987600 -15.449400
C -22.537600 -22.803800 -16.185300
O -22.139800 -26.026900 -15.015200
O -22.105800 -21.707500 -16.460400
N -21.772700 -23.878600 -15.766300
C -20.334900 -23.813300 -15.551600
H -20.104100 -24.343900 -14.773400
H -20.080400 -22.895100 -15.372300
H -19.870200 -23.855000 -17.538100
H -19.740900 -25.264400 -16.857900
C -19.568300 -24.316800 -16.740400
C -18.088900 -24.093600 -16.561200
O -17.558700 -23.300200 -17.404000
O -17.478500 -24.651900 -15.657100
H -16.787000 -23.139500 -17.179600
