25
Fragment
H -27.743500 -19.483000 -12.418600
H -27.717800 -21.638500 -13.180800
C -26.930900 -19.927300 -12.499200
C -26.915800 -21.224400 -12.955700
H -25.770200 -18.389400 -11.853700
C -25.760800 -19.268900 -12.156000
C -25.731500 -21.925900 -13.086300
H -25.720300 -22.800800 -13.400400
C -24.581500 -19.971500 -12.281000
C -24.566900 -21.276600 -12.732700
C -23.183600 -19.572600 -11.975300
C -23.161200 -21.756500 -12.711100
O -22.763400 -18.533400 -11.541100
O -22.729400 -22.852800 -12.986300
N -22.396300 -20.681700 -12.292200
C -20.958500 -20.747000 -12.077500
H -20.727700 -20.216300 -11.299300
H -20.704000 -21.665200 -11.898200
H -20.493700 -20.705200 -14.064000
H -20.364500 -19.295900 -13.383700
C -20.191900 -20.243500 -13.266300
C -18.712500 -20.466700 -13.087000
O -18.182300 -21.260100 -13.929900
O -18.102100 -19.908400 -12.182900
H -17.410600 -21.420700 -13.705400
25
Fragment
H -28.367100 -25.077200 -8.944500
H -28.341400 -22.921800 -9.706700
C -27.554500 -24.632900 -9.025100
C -27.539400 -23.335800 -9.481600
H -26.393800 -26.170900 -8.379600
C -26.384400 -25.291400 -8.681800
C -26.355100 -22.634300 -9.612200
H -26.343900 -21.759400 -9.926300
C -25.205100 -24.588700 -8.806900
C -25.190500 -23.283600 -9.258500
C -23.807200 -24.987600 -8.501200
C -23.784700 -22.803800 -9.237000
O -23.386900 -26.026900 -8.066900
O -23.353000 -21.707500 -9.512200
N -23.019900 -23.878600 -8.818000
C -21.582100 -23.813300 -8.603300
H -21.351300 -24.343900 -7.825100
H -21.327600 -22.895100 -8.424100
H -21.117300 -23.855000 -10.589800
H -20.988100 -25.264400 -9.909600
C -20.815500 -24.316800 -9.792200
C -19.336000 -24.093600 -9.612900
O -18.805900 -23.300200 -10.455700
O -18.725700 -24.651900 -8.708800
H -18.034200 -23.139500 -10.231300
50
Fragment
H -27.743500 -19.483000 -12.418600
H -27.717800 -21.638500 -13.180800
C -26.930900 -19.927300 -12.499200
C -26.915800 -21.224400 -12.955700
H -25.770200 -18.389400 -11.853700
C -25.760800 -19.268900 -12.156000
C -25.731500 -21.925900 -13.086300
H -25.720300 -22.800800 -13.400400
C -24.581500 -19.971500 -12.281000
C -24.566900 -21.276600 -12.732700
C -23.183600 -19.572600 -11.975300
C -23.161200 -21.756500 -12.711100
O -22.763400 -18.533400 -11.541100
O -22.729400 -22.852800 -12.986300
N -22.396300 -20.681700 -12.292200
C -20.958500 -20.747000 -12.077500
H -20.727700 -20.216300 -11.299300
H -20.704000 -21.665200 -11.898200
H -20.493700 -20.705200 -14.064000
H -20.364500 -19.295900 -13.383700
C -20.191900 -20.243500 -13.266300
C -18.712500 -20.466700 -13.087000
O -18.182300 -21.260100 -13.929900
O -18.102100 -19.908400 -12.182900
H -17.410600 -21.420700 -13.705400
H -28.367100 -25.077200 -8.944500
H -28.341400 -22.921800 -9.706700
C -27.554500 -24.632900 -9.025100
C -27.539400 -23.335800 -9.481600
H -26.393800 -26.170900 -8.379600
C -26.384400 -25.291400 -8.681800
C -26.355100 -22.634300 -9.612200
H -26.343900 -21.759400 -9.926300
C -25.205100 -24.588700 -8.806900
C -25.190500 -23.283600 -9.258500
C -23.807200 -24.987600 -8.501200
C -23.784700 -22.803800 -9.237000
O -23.386900 -26.026900 -8.066900
O -23.353000 -21.707500 -9.512200
N -23.019900 -23.878600 -8.818000
C -21.582100 -23.813300 -8.603300
H -21.351300 -24.343900 -7.825100
H -21.327600 -22.895100 -8.424100
H -21.117300 -23.855000 -10.589800
H -20.988100 -25.264400 -9.909600
C -20.815500 -24.316800 -9.792200
C -19.336000 -24.093600 -9.612900
O -18.805900 -23.300200 -10.455700
O -18.725700 -24.651900 -8.708800
H -18.034200 -23.139500 -10.231300
