25
Fragment
H -27.743500 -19.483000 -12.418600
H -27.717800 -21.638500 -13.180800
C -26.930900 -19.927300 -12.499200
C -26.915800 -21.224400 -12.955700
H -25.770200 -18.389400 -11.853700
C -25.760800 -19.268900 -12.156000
C -25.731500 -21.925900 -13.086300
H -25.720300 -22.800800 -13.400400
C -24.581500 -19.971500 -12.281000
C -24.566900 -21.276600 -12.732700
C -23.183600 -19.572600 -11.975300
C -23.161200 -21.756500 -12.711100
O -22.763400 -18.533400 -11.541100
O -22.729400 -22.852800 -12.986300
N -22.396300 -20.681700 -12.292200
C -20.958500 -20.747000 -12.077500
H -20.727700 -20.216300 -11.299300
H -20.704000 -21.665200 -11.898200
H -20.493700 -20.705200 -14.064000
H -20.364500 -19.295900 -13.383700
C -20.191900 -20.243500 -13.266300
C -18.712500 -20.466700 -13.087000
O -18.182300 -21.260100 -13.929900
O -18.102100 -19.908400 -12.182900
H -17.410600 -21.420700 -13.705400
15
Fragment
H -21.166900 -17.526200 -9.735200
H -20.614100 -15.310900 -9.395400
C -20.364300 -17.312300 -9.318300
C -20.042800 -15.995700 -9.128600
H -19.782200 -19.220700 -9.047300
C -19.523200 -18.339000 -8.904900
C -18.822300 -15.731000 -8.519300
H -18.482000 -13.764000 -8.324700
C -18.322100 -18.088200 -8.292000
N -18.187200 -14.560000 -8.186500
C -17.969800 -16.754800 -8.108600
H -17.767800 -18.779000 -8.011300
C -17.034600 -14.883600 -7.611800
N -16.849000 -16.177400 -7.535400
H -16.424200 -14.256700 -7.297100
40
Fragment
H -27.743500 -19.483000 -12.418600
H -27.717800 -21.638500 -13.180800
C -26.930900 -19.927300 -12.499200
C -26.915800 -21.224400 -12.955700
H -25.770200 -18.389400 -11.853700
C -25.760800 -19.268900 -12.156000
C -25.731500 -21.925900 -13.086300
H -25.720300 -22.800800 -13.400400
C -24.581500 -19.971500 -12.281000
C -24.566900 -21.276600 -12.732700
C -23.183600 -19.572600 -11.975300
C -23.161200 -21.756500 -12.711100
O -22.763400 -18.533400 -11.541100
O -22.729400 -22.852800 -12.986300
N -22.396300 -20.681700 -12.292200
C -20.958500 -20.747000 -12.077500
H -20.727700 -20.216300 -11.299300
H -20.704000 -21.665200 -11.898200
H -20.493700 -20.705200 -14.064000
H -20.364500 -19.295900 -13.383700
C -20.191900 -20.243500 -13.266300
C -18.712500 -20.466700 -13.087000
O -18.182300 -21.260100 -13.929900
O -18.102100 -19.908400 -12.182900
H -17.410600 -21.420700 -13.705400
H -21.166900 -17.526200 -9.735200
H -20.614100 -15.310900 -9.395400
C -20.364300 -17.312300 -9.318300
C -20.042800 -15.995700 -9.128600
H -19.782200 -19.220700 -9.047300
C -19.523200 -18.339000 -8.904900
C -18.822300 -15.731000 -8.519300
H -18.482000 -13.764000 -8.324700
C -18.322100 -18.088200 -8.292000
N -18.187200 -14.560000 -8.186500
C -17.969800 -16.754800 -8.108600
H -17.767800 -18.779000 -8.011300
C -17.034600 -14.883600 -7.611800
N -16.849000 -16.177400 -7.535400
H -16.424200 -14.256700 -7.297100
