25
Fragment
H -27.743500 -19.483000 -12.418600
H -27.717800 -21.638500 -13.180800
C -26.930900 -19.927300 -12.499200
C -26.915800 -21.224400 -12.955700
H -25.770200 -18.389400 -11.853700
C -25.760800 -19.268900 -12.156000
C -25.731500 -21.925900 -13.086300
H -25.720300 -22.800800 -13.400400
C -24.581500 -19.971500 -12.281000
C -24.566900 -21.276600 -12.732700
C -23.183600 -19.572600 -11.975300
C -23.161200 -21.756500 -12.711100
O -22.763400 -18.533400 -11.541100
O -22.729400 -22.852800 -12.986300
N -22.396300 -20.681700 -12.292200
C -20.958500 -20.747000 -12.077500
H -20.727700 -20.216300 -11.299300
H -20.704000 -21.665200 -11.898200
H -20.493700 -20.705200 -14.064000
H -20.364500 -19.295900 -13.383700
C -20.191900 -20.243500 -13.266300
C -18.712500 -20.466700 -13.087000
O -18.182300 -21.260100 -13.929900
O -18.102100 -19.908400 -12.182900
H -17.410600 -21.420700 -13.705400
25
Fragment
H -32.869000 -27.786500 -10.613500
O -32.177500 -26.274100 -12.136000
O -32.097300 -27.625800 -10.389000
C -31.567100 -26.832400 -11.231900
C -30.087600 -26.609200 -11.052600
H -29.915100 -25.661600 -10.935200
H -29.785800 -27.071000 -10.254900
H -29.575600 -28.030900 -12.420700
H -29.551900 -26.582100 -13.019600
C -29.321000 -27.112700 -12.241400
N -27.883300 -27.047400 -12.026700
O -27.550100 -29.218500 -11.332600
O -27.516200 -24.899100 -12.777800
C -27.118400 -28.122200 -11.607800
C -27.096000 -25.938400 -12.343600
C -25.712600 -27.642400 -11.586200
C -25.698000 -26.337300 -12.037900
H -24.559200 -29.166600 -10.918500
C -24.548000 -28.291700 -11.232500
C -24.518800 -25.634600 -12.162900
H -24.509300 -24.755100 -12.465200
C -23.363800 -27.590200 -11.363200
C -23.348700 -26.293100 -11.819700
H -22.561700 -28.004200 -11.138100
H -22.536000 -25.848800 -11.900300
50
Fragment
H -27.743500 -19.483000 -12.418600
H -27.717800 -21.638500 -13.180800
C -26.930900 -19.927300 -12.499200
C -26.915800 -21.224400 -12.955700
H -25.770200 -18.389400 -11.853700
C -25.760800 -19.268900 -12.156000
C -25.731500 -21.925900 -13.086300
H -25.720300 -22.800800 -13.400400
C -24.581500 -19.971500 -12.281000
C -24.566900 -21.276600 -12.732700
C -23.183600 -19.572600 -11.975300
C -23.161200 -21.756500 -12.711100
O -22.763400 -18.533400 -11.541100
O -22.729400 -22.852800 -12.986300
N -22.396300 -20.681700 -12.292200
C -20.958500 -20.747000 -12.077500
H -20.727700 -20.216300 -11.299300
H -20.704000 -21.665200 -11.898200
H -20.493700 -20.705200 -14.064000
H -20.364500 -19.295900 -13.383700
C -20.191900 -20.243500 -13.266300
C -18.712500 -20.466700 -13.087000
O -18.182300 -21.260100 -13.929900
O -18.102100 -19.908400 -12.182900
H -17.410600 -21.420700 -13.705400
H -32.869000 -27.786500 -10.613500
O -32.177500 -26.274100 -12.136000
O -32.097300 -27.625800 -10.389000
C -31.567100 -26.832400 -11.231900
C -30.087600 -26.609200 -11.052600
H -29.915100 -25.661600 -10.935200
H -29.785800 -27.071000 -10.254900
H -29.575600 -28.030900 -12.420700
H -29.551900 -26.582100 -13.019600
C -29.321000 -27.112700 -12.241400
N -27.883300 -27.047400 -12.026700
O -27.550100 -29.218500 -11.332600
O -27.516200 -24.899100 -12.777800
C -27.118400 -28.122200 -11.607800
C -27.096000 -25.938400 -12.343600
C -25.712600 -27.642400 -11.586200
C -25.698000 -26.337300 -12.037900
H -24.559200 -29.166600 -10.918500
C -24.548000 -28.291700 -11.232500
C -24.518800 -25.634600 -12.162900
H -24.509300 -24.755100 -12.465200
C -23.363800 -27.590200 -11.363200
C -23.348700 -26.293100 -11.819700
H -22.561700 -28.004200 -11.138100
H -22.536000 -25.848800 -11.900300
