25
Fragment
H -27.743500 -19.483000 -12.418600
H -27.717800 -21.638500 -13.180800
C -26.930900 -19.927300 -12.499200
C -26.915800 -21.224400 -12.955700
H -25.770200 -18.389400 -11.853700
C -25.760800 -19.268900 -12.156000
C -25.731500 -21.925900 -13.086300
H -25.720300 -22.800800 -13.400400
C -24.581500 -19.971500 -12.281000
C -24.566900 -21.276600 -12.732700
C -23.183600 -19.572600 -11.975300
C -23.161200 -21.756500 -12.711100
O -22.763400 -18.533400 -11.541100
O -22.729400 -22.852800 -12.986300
N -22.396300 -20.681700 -12.292200
C -20.958500 -20.747000 -12.077500
H -20.727700 -20.216300 -11.299300
H -20.704000 -21.665200 -11.898200
H -20.493700 -20.705200 -14.064000
H -20.364500 -19.295900 -13.383700
C -20.191900 -20.243500 -13.266300
C -18.712500 -20.466700 -13.087000
O -18.182300 -21.260100 -13.929900
O -18.102100 -19.908400 -12.182900
H -17.410600 -21.420700 -13.705400
15
Fragment
H -20.543300 -14.302600 -13.209300
H -19.990500 -16.517800 -12.869600
C -19.740700 -14.516500 -12.792400
C -19.419200 -15.833000 -12.602700
H -19.158600 -12.608000 -12.521500
C -18.899700 -13.489800 -12.379000
C -18.198700 -16.097700 -11.993400
H -17.858400 -18.064700 -11.798800
C -17.698500 -13.740600 -11.766200
N -17.563600 -17.268800 -11.660600
C -17.346200 -15.074000 -11.582700
H -17.144200 -13.049800 -11.485500
C -16.411000 -16.945100 -11.085900
N -16.225400 -15.651300 -11.009500
H -15.800600 -17.572000 -10.771200
40
Fragment
H -27.743500 -19.483000 -12.418600
H -27.717800 -21.638500 -13.180800
C -26.930900 -19.927300 -12.499200
C -26.915800 -21.224400 -12.955700
H -25.770200 -18.389400 -11.853700
C -25.760800 -19.268900 -12.156000
C -25.731500 -21.925900 -13.086300
H -25.720300 -22.800800 -13.400400
C -24.581500 -19.971500 -12.281000
C -24.566900 -21.276600 -12.732700
C -23.183600 -19.572600 -11.975300
C -23.161200 -21.756500 -12.711100
O -22.763400 -18.533400 -11.541100
O -22.729400 -22.852800 -12.986300
N -22.396300 -20.681700 -12.292200
C -20.958500 -20.747000 -12.077500
H -20.727700 -20.216300 -11.299300
H -20.704000 -21.665200 -11.898200
H -20.493700 -20.705200 -14.064000
H -20.364500 -19.295900 -13.383700
C -20.191900 -20.243500 -13.266300
C -18.712500 -20.466700 -13.087000
O -18.182300 -21.260100 -13.929900
O -18.102100 -19.908400 -12.182900
H -17.410600 -21.420700 -13.705400
H -20.543300 -14.302600 -13.209300
H -19.990500 -16.517800 -12.869600
C -19.740700 -14.516500 -12.792400
C -19.419200 -15.833000 -12.602700
H -19.158600 -12.608000 -12.521500
C -18.899700 -13.489800 -12.379000
C -18.198700 -16.097700 -11.993400
H -17.858400 -18.064700 -11.798800
C -17.698500 -13.740600 -11.766200
N -17.563600 -17.268800 -11.660600
C -17.346200 -15.074000 -11.582700
H -17.144200 -13.049800 -11.485500
C -16.411000 -16.945100 -11.085900
N -16.225400 -15.651300 -11.009500
H -15.800600 -17.572000 -10.771200
