24
Fragment
H -22.958000 -24.408200 -15.936100
H -22.705400 -22.797800 -17.543800
C -22.521900 -24.628700 -16.727600
C -22.378200 -23.656400 -17.689700
N -22.066300 -25.875800 -16.875000
C -21.741600 -23.971800 -18.873300
H -21.646400 -23.329800 -19.539300
C -21.439500 -26.145200 -18.025700
C -21.246100 -25.249800 -19.058400
H -21.106400 -27.006000 -18.139600
C -20.575700 -25.625800 -20.298600
N -20.407700 -24.816800 -21.325200
N -20.104100 -26.890500 -20.518900
H -20.099700 -27.630300 -19.874200
C -19.765800 -25.606300 -22.282100
C -19.581400 -26.898100 -21.792900
H -19.444200 -24.417800 -23.909400
C -19.340800 -25.278700 -23.572300
C -19.011200 -27.906600 -22.562200
H -18.904000 -28.768700 -22.232900
C -18.763600 -26.270900 -24.326700
C -18.611700 -27.561700 -23.840500
H -18.467300 -26.072900 -25.185700
H -18.231600 -28.211600 -24.387100
16
Fragment
N -21.481000 -19.841200 -27.553700
N -21.389200 -23.395300 -25.878500
C -20.966300 -20.692400 -28.112000
C -20.922700 -23.248400 -26.906400
C -20.362200 -21.790300 -28.812900
C -20.345200 -23.058700 -28.216400
C -19.839200 -21.609500 -30.088700
H -19.830700 -20.763000 -30.474200
C -19.822000 -24.137300 -28.910700
H -19.805700 -24.979800 -28.517500
C -19.331500 -22.692100 -30.781100
C -19.322100 -23.959900 -30.190200
C -18.832400 -22.536200 -32.118800
C -18.793200 -25.085200 -30.923200
N -18.433400 -22.461600 -33.187900
N -18.374200 -25.969900 -31.489200
40
Fragment
H -22.958000 -24.408200 -15.936100
H -22.705400 -22.797800 -17.543800
C -22.521900 -24.628700 -16.727600
C -22.378200 -23.656400 -17.689700
N -22.066300 -25.875800 -16.875000
C -21.741600 -23.971800 -18.873300
H -21.646400 -23.329800 -19.539300
C -21.439500 -26.145200 -18.025700
C -21.246100 -25.249800 -19.058400
H -21.106400 -27.006000 -18.139600
C -20.575700 -25.625800 -20.298600
N -20.407700 -24.816800 -21.325200
N -20.104100 -26.890500 -20.518900
H -20.099700 -27.630300 -19.874200
C -19.765800 -25.606300 -22.282100
C -19.581400 -26.898100 -21.792900
H -19.444200 -24.417800 -23.909400
C -19.340800 -25.278700 -23.572300
C -19.011200 -27.906600 -22.562200
H -18.904000 -28.768700 -22.232900
C -18.763600 -26.270900 -24.326700
C -18.611700 -27.561700 -23.840500
H -18.467300 -26.072900 -25.185700
H -18.231600 -28.211600 -24.387100
N -21.481000 -19.841200 -27.553700
N -21.389200 -23.395300 -25.878500
C -20.966300 -20.692400 -28.112000
C -20.922700 -23.248400 -26.906400
C -20.362200 -21.790300 -28.812900
C -20.345200 -23.058700 -28.216400
C -19.839200 -21.609500 -30.088700
H -19.830700 -20.763000 -30.474200
C -19.822000 -24.137300 -28.910700
H -19.805700 -24.979800 -28.517500
C -19.331500 -22.692100 -30.781100
C -19.322100 -23.959900 -30.190200
C -18.832400 -22.536200 -32.118800
C -18.793200 -25.085200 -30.923200
N -18.433400 -22.461600 -33.187900
N -18.374200 -25.969900 -31.489200
