24
Fragment
H -22.958000 -24.408200 -15.936100
H -22.705400 -22.797800 -17.543800
C -22.521900 -24.628700 -16.727600
C -22.378200 -23.656400 -17.689700
N -22.066300 -25.875800 -16.875000
C -21.741600 -23.971800 -18.873300
H -21.646400 -23.329800 -19.539300
C -21.439500 -26.145200 -18.025700
C -21.246100 -25.249800 -19.058400
H -21.106400 -27.006000 -18.139600
C -20.575700 -25.625800 -20.298600
N -20.407700 -24.816800 -21.325200
N -20.104100 -26.890500 -20.518900
H -20.099700 -27.630300 -19.874200
C -19.765800 -25.606300 -22.282100
C -19.581400 -26.898100 -21.792900
H -19.444200 -24.417800 -23.909400
C -19.340800 -25.278700 -23.572300
C -19.011200 -27.906600 -22.562200
H -18.904000 -28.768700 -22.232900
C -18.763600 -26.270900 -24.326700
C -18.611700 -27.561700 -23.840500
H -18.467300 -26.072900 -25.185700
H -18.231600 -28.211600 -24.387100
16
Fragment
N -16.656200 -24.265100 -21.395900
N -16.597000 -27.773400 -19.697300
C -16.237200 -25.149900 -21.962000
C -16.198000 -27.698900 -20.766400
C -15.708300 -26.275100 -22.695000
C -15.698900 -27.543000 -22.104100
H -15.224700 -25.255200 -24.367700
C -15.208300 -26.097700 -23.974400
H -15.199700 -29.472000 -22.411000
C -15.191200 -28.625500 -22.796500
C -14.685100 -27.176300 -24.668800
C -14.668100 -28.444700 -24.072300
C -14.107600 -26.986700 -25.978800
C -14.064000 -29.542600 -24.773200
N -13.641100 -26.839800 -27.006700
N -13.549300 -30.393900 -25.331500
40
Fragment
H -22.958000 -24.408200 -15.936100
H -22.705400 -22.797800 -17.543800
C -22.521900 -24.628700 -16.727600
C -22.378200 -23.656400 -17.689700
N -22.066300 -25.875800 -16.875000
C -21.741600 -23.971800 -18.873300
H -21.646400 -23.329800 -19.539300
C -21.439500 -26.145200 -18.025700
C -21.246100 -25.249800 -19.058400
H -21.106400 -27.006000 -18.139600
C -20.575700 -25.625800 -20.298600
N -20.407700 -24.816800 -21.325200
N -20.104100 -26.890500 -20.518900
H -20.099700 -27.630300 -19.874200
C -19.765800 -25.606300 -22.282100
C -19.581400 -26.898100 -21.792900
H -19.444200 -24.417800 -23.909400
C -19.340800 -25.278700 -23.572300
C -19.011200 -27.906600 -22.562200
H -18.904000 -28.768700 -22.232900
C -18.763600 -26.270900 -24.326700
C -18.611700 -27.561700 -23.840500
H -18.467300 -26.072900 -25.185700
H -18.231600 -28.211600 -24.387100
N -16.656200 -24.265100 -21.395900
N -16.597000 -27.773400 -19.697300
C -16.237200 -25.149900 -21.962000
C -16.198000 -27.698900 -20.766400
C -15.708300 -26.275100 -22.695000
C -15.698900 -27.543000 -22.104100
H -15.224700 -25.255200 -24.367700
C -15.208300 -26.097700 -23.974400
H -15.199700 -29.472000 -22.411000
C -15.191200 -28.625500 -22.796500
C -14.685100 -27.176300 -24.668800
C -14.668100 -28.444700 -24.072300
C -14.107600 -26.986700 -25.978800
C -14.064000 -29.542600 -24.773200
N -13.641100 -26.839800 -27.006700
N -13.549300 -30.393900 -25.331500
