24
Fragment
H -22.958000 -24.408200 -15.936100
H -22.705400 -22.797800 -17.543800
C -22.521900 -24.628700 -16.727600
C -22.378200 -23.656400 -17.689700
N -22.066300 -25.875800 -16.875000
C -21.741600 -23.971800 -18.873300
H -21.646400 -23.329800 -19.539300
C -21.439500 -26.145200 -18.025700
C -21.246100 -25.249800 -19.058400
H -21.106400 -27.006000 -18.139600
C -20.575700 -25.625800 -20.298600
N -20.407700 -24.816800 -21.325200
N -20.104100 -26.890500 -20.518900
H -20.099700 -27.630300 -19.874200
C -19.765800 -25.606300 -22.282100
C -19.581400 -26.898100 -21.792900
H -19.444200 -24.417800 -23.909400
C -19.340800 -25.278700 -23.572300
C -19.011200 -27.906600 -22.562200
H -18.904000 -28.768700 -22.232900
C -18.763600 -26.270900 -24.326700
C -18.611700 -27.561700 -23.840500
H -18.467300 -26.072900 -25.185700
H -18.231600 -28.211600 -24.387100
16
Fragment
N -17.700300 -19.588300 -27.074900
N -17.683300 -23.078600 -25.488500
C -17.330100 -22.207900 -24.858300
C -17.306500 -19.661600 -26.007200
C -16.868800 -21.083200 -24.083200
C -16.830900 -19.833600 -24.664400
H -16.496700 -22.097600 -22.374000
C -16.450000 -21.257000 -22.770600
C -16.341100 -18.750100 -23.947500
H -16.310900 -17.907700 -24.341300
C -15.962800 -20.175100 -22.054700
C -15.897000 -18.920000 -22.646100
C -15.529900 -20.355600 -20.694000
C -15.351300 -17.801900 -21.923400
N -15.195000 -20.499900 -19.611800
N -14.912700 -16.922900 -21.339500
40
Fragment
H -22.958000 -24.408200 -15.936100
H -22.705400 -22.797800 -17.543800
C -22.521900 -24.628700 -16.727600
C -22.378200 -23.656400 -17.689700
N -22.066300 -25.875800 -16.875000
C -21.741600 -23.971800 -18.873300
H -21.646400 -23.329800 -19.539300
C -21.439500 -26.145200 -18.025700
C -21.246100 -25.249800 -19.058400
H -21.106400 -27.006000 -18.139600
C -20.575700 -25.625800 -20.298600
N -20.407700 -24.816800 -21.325200
N -20.104100 -26.890500 -20.518900
H -20.099700 -27.630300 -19.874200
C -19.765800 -25.606300 -22.282100
C -19.581400 -26.898100 -21.792900
H -19.444200 -24.417800 -23.909400
C -19.340800 -25.278700 -23.572300
C -19.011200 -27.906600 -22.562200
H -18.904000 -28.768700 -22.232900
C -18.763600 -26.270900 -24.326700
C -18.611700 -27.561700 -23.840500
H -18.467300 -26.072900 -25.185700
H -18.231600 -28.211600 -24.387100
N -17.700300 -19.588300 -27.074900
N -17.683300 -23.078600 -25.488500
C -17.330100 -22.207900 -24.858300
C -17.306500 -19.661600 -26.007200
C -16.868800 -21.083200 -24.083200
C -16.830900 -19.833600 -24.664400
H -16.496700 -22.097600 -22.374000
C -16.450000 -21.257000 -22.770600
C -16.341100 -18.750100 -23.947500
H -16.310900 -17.907700 -24.341300
C -15.962800 -20.175100 -22.054700
C -15.897000 -18.920000 -22.646100
C -15.529900 -20.355600 -20.694000
C -15.351300 -17.801900 -21.923400
N -15.195000 -20.499900 -19.611800
N -14.912700 -16.922900 -21.339500
