26
Fragment
H -10.978800 -38.451400 -22.037900
H -10.880100 -39.830400 -21.483900
N -10.658400 -39.248000 -22.077200
C -9.818500 -39.584000 -23.065400
N -9.442800 -38.606400 -23.972900
N -9.356500 -40.836700 -23.071600
H -8.802500 -41.287400 -29.449400
C -8.656300 -39.058300 -24.967300
C -8.580900 -41.173800 -24.121800
N -8.374700 -39.421500 -27.812000
H -8.353100 -43.006500 -23.617400
H -8.259100 -37.317000 -25.680600
N -8.246200 -38.141400 -25.922500
N -8.235400 -40.725900 -29.769800
N -8.175000 -40.244000 -25.072800
N -8.142500 -42.428500 -24.219000
H -7.901900 -40.853800 -30.553300
C -7.856100 -39.608400 -29.019300
C -7.838800 -38.376700 -27.175300
H -7.645000 -42.661100 -24.880500
N -6.968200 -38.807800 -29.691200
N -6.908600 -37.440000 -27.605300
C -6.532400 -37.776100 -28.982100
N -5.761500 -36.935700 -29.598200
H -5.559600 -37.063000 -30.425100
H -5.452600 -36.250200 -29.180600
22
Fragment
H -9.693300 -47.238200 -26.048600
H -9.236500 -48.312200 -26.976800
N -9.193300 -47.498600 -26.699800
C -8.348500 -46.634700 -27.282800
N -8.326600 -45.313700 -26.879600
N -7.589700 -47.093500 -28.299900
C -7.453800 -44.448800 -27.394400
N -7.192300 -43.204600 -26.976800
C -6.762200 -46.338800 -28.957300
N -6.633700 -44.977500 -28.477700
H -6.563200 -40.908800 -26.352500
C -6.284100 -42.532600 -27.522600
N -6.078500 -41.197500 -27.001600
N -6.043300 -46.763800 -29.939300
C -5.704800 -44.024000 -29.116500
N -5.514300 -42.878500 -28.686500
H -5.467500 -40.693200 -27.338600
C -5.219500 -45.826700 -30.555400
N -4.937700 -44.508300 -30.141900
H -4.585300 -47.106700 -31.849500
N -4.511200 -46.285000 -31.603500
H -3.981300 -45.756300 -32.027300
48
Fragment
H -10.978800 -38.451400 -22.037900
H -10.880100 -39.830400 -21.483900
N -10.658400 -39.248000 -22.077200
C -9.818500 -39.584000 -23.065400
N -9.442800 -38.606400 -23.972900
N -9.356500 -40.836700 -23.071600
H -8.802500 -41.287400 -29.449400
C -8.656300 -39.058300 -24.967300
C -8.580900 -41.173800 -24.121800
N -8.374700 -39.421500 -27.812000
H -8.353100 -43.006500 -23.617400
H -8.259100 -37.317000 -25.680600
N -8.246200 -38.141400 -25.922500
N -8.235400 -40.725900 -29.769800
N -8.175000 -40.244000 -25.072800
N -8.142500 -42.428500 -24.219000
H -7.901900 -40.853800 -30.553300
C -7.856100 -39.608400 -29.019300
C -7.838800 -38.376700 -27.175300
H -7.645000 -42.661100 -24.880500
N -6.968200 -38.807800 -29.691200
N -6.908600 -37.440000 -27.605300
C -6.532400 -37.776100 -28.982100
N -5.761500 -36.935700 -29.598200
H -5.559600 -37.063000 -30.425100
H -5.452600 -36.250200 -29.180600
H -9.693300 -47.238200 -26.048600
H -9.236500 -48.312200 -26.976800
N -9.193300 -47.498600 -26.699800
C -8.348500 -46.634700 -27.282800
N -8.326600 -45.313700 -26.879600
N -7.589700 -47.093500 -28.299900
C -7.453800 -44.448800 -27.394400
N -7.192300 -43.204600 -26.976800
C -6.762200 -46.338800 -28.957300
N -6.633700 -44.977500 -28.477700
H -6.563200 -40.908800 -26.352500
C -6.284100 -42.532600 -27.522600
N -6.078500 -41.197500 -27.001600
N -6.043300 -46.763800 -29.939300
C -5.704800 -44.024000 -29.116500
N -5.514300 -42.878500 -28.686500
H -5.467500 -40.693200 -27.338600
C -5.219500 -45.826700 -30.555400
N -4.937700 -44.508300 -30.141900
H -4.585300 -47.106700 -31.849500
N -4.511200 -46.285000 -31.603500
H -3.981300 -45.756300 -32.027300
