24
Fragment
H -22.958000 -24.408200 -15.936100
H -22.705400 -22.797800 -17.543800
C -22.521900 -24.628700 -16.727600
C -22.378200 -23.656400 -17.689700
N -22.066300 -25.875800 -16.875000
C -21.741600 -23.971800 -18.873300
H -21.646400 -23.329800 -19.539300
C -21.439500 -26.145200 -18.025700
C -21.246100 -25.249800 -19.058400
H -21.106400 -27.006000 -18.139600
C -20.575700 -25.625800 -20.298600
N -20.407700 -24.816800 -21.325200
N -20.104100 -26.890500 -20.518900
H -20.099700 -27.630300 -19.874200
C -19.765800 -25.606300 -22.282100
C -19.581400 -26.898100 -21.792900
H -19.444200 -24.417800 -23.909400
C -19.340800 -25.278700 -23.572300
C -19.011200 -27.906600 -22.562200
H -18.904000 -28.768700 -22.232900
C -18.763600 -26.270900 -24.326700
C -18.611700 -27.561700 -23.840500
H -18.467300 -26.072900 -25.185700
H -18.231600 -28.211600 -24.387100
16
Fragment
N -20.117700 -33.312200 -31.545700
N -19.835400 -29.735200 -33.273400
C -19.679000 -32.433100 -30.961800
C -19.500400 -29.879400 -32.191200
C -19.133300 -31.315000 -30.239000
C -19.067600 -30.059900 -30.830500
H -18.719500 -32.327300 -28.543900
C -18.689300 -31.484900 -28.937700
C -18.580300 -28.978000 -30.114600
H -18.533700 -28.137400 -30.511200
C -18.199400 -30.401400 -28.220800
C -18.161500 -29.151800 -28.802000
C -17.723900 -30.573400 -26.878000
C -17.700200 -28.027100 -28.026900
N -17.347000 -27.156500 -27.396600
N -17.330100 -30.646800 -25.810300
40
Fragment
H -22.958000 -24.408200 -15.936100
H -22.705400 -22.797800 -17.543800
C -22.521900 -24.628700 -16.727600
C -22.378200 -23.656400 -17.689700
N -22.066300 -25.875800 -16.875000
C -21.741600 -23.971800 -18.873300
H -21.646400 -23.329800 -19.539300
C -21.439500 -26.145200 -18.025700
C -21.246100 -25.249800 -19.058400
H -21.106400 -27.006000 -18.139600
C -20.575700 -25.625800 -20.298600
N -20.407700 -24.816800 -21.325200
N -20.104100 -26.890500 -20.518900
H -20.099700 -27.630300 -19.874200
C -19.765800 -25.606300 -22.282100
C -19.581400 -26.898100 -21.792900
H -19.444200 -24.417800 -23.909400
C -19.340800 -25.278700 -23.572300
C -19.011200 -27.906600 -22.562200
H -18.904000 -28.768700 -22.232900
C -18.763600 -26.270900 -24.326700
C -18.611700 -27.561700 -23.840500
H -18.467300 -26.072900 -25.185700
H -18.231600 -28.211600 -24.387100
N -20.117700 -33.312200 -31.545700
N -19.835400 -29.735200 -33.273400
C -19.679000 -32.433100 -30.961800
C -19.500400 -29.879400 -32.191200
C -19.133300 -31.315000 -30.239000
C -19.067600 -30.059900 -30.830500
H -18.719500 -32.327300 -28.543900
C -18.689300 -31.484900 -28.937700
C -18.580300 -28.978000 -30.114600
H -18.533700 -28.137400 -30.511200
C -18.199400 -30.401400 -28.220800
C -18.161500 -29.151800 -28.802000
C -17.723900 -30.573400 -26.878000
C -17.700200 -28.027100 -28.026900
N -17.347000 -27.156500 -27.396600
N -17.330100 -30.646800 -25.810300
