26
Fragment
H -10.978800 -38.451400 -22.037900
H -10.880100 -39.830400 -21.483900
N -10.658400 -39.248000 -22.077200
C -9.818500 -39.584000 -23.065400
N -9.442800 -38.606400 -23.972900
N -9.356500 -40.836700 -23.071600
H -8.802500 -41.287400 -29.449400
C -8.656300 -39.058300 -24.967300
C -8.580900 -41.173800 -24.121800
N -8.374700 -39.421500 -27.812000
H -8.353100 -43.006500 -23.617400
H -8.259100 -37.317000 -25.680600
N -8.246200 -38.141400 -25.922500
N -8.235400 -40.725900 -29.769800
N -8.175000 -40.244000 -25.072800
N -8.142500 -42.428500 -24.219000
H -7.901900 -40.853800 -30.553300
C -7.856100 -39.608400 -29.019300
C -7.838800 -38.376700 -27.175300
H -7.645000 -42.661100 -24.880500
N -6.968200 -38.807800 -29.691200
N -6.908600 -37.440000 -27.605300
C -6.532400 -37.776100 -28.982100
N -5.761500 -36.935700 -29.598200
H -5.559600 -37.063000 -30.425100
H -5.452600 -36.250200 -29.180600
22
Fragment
H -15.784700 -47.439800 -19.809300
H -15.582700 -45.965700 -19.883700
N -15.394600 -46.759400 -20.158700
C -14.490600 -46.931900 -21.130300
N -14.368100 -48.188000 -21.374300
N -13.828300 -45.912300 -21.690600
C -13.561400 -48.537200 -22.484500
N -13.506700 -49.847300 -23.038500
H -13.474800 -51.757400 -24.396800
C -12.934600 -46.153700 -22.569200
N -12.914900 -51.191900 -24.723400
N -12.805400 -47.591100 -23.050900
C -12.733800 -49.951000 -24.103200
H -12.469100 -51.388400 -25.432500
N -12.206200 -45.220600 -23.121200
C -11.886200 -47.843600 -24.115600
N -11.860500 -49.066200 -24.609700
C -11.226600 -45.627200 -24.080500
N -11.080200 -46.947000 -24.531100
H -10.571300 -43.892100 -24.258200
N -10.474800 -44.700500 -24.537300
H -9.875900 -44.883800 -25.124500
48
Fragment
H -10.978800 -38.451400 -22.037900
H -10.880100 -39.830400 -21.483900
N -10.658400 -39.248000 -22.077200
C -9.818500 -39.584000 -23.065400
N -9.442800 -38.606400 -23.972900
N -9.356500 -40.836700 -23.071600
H -8.802500 -41.287400 -29.449400
C -8.656300 -39.058300 -24.967300
C -8.580900 -41.173800 -24.121800
N -8.374700 -39.421500 -27.812000
H -8.353100 -43.006500 -23.617400
H -8.259100 -37.317000 -25.680600
N -8.246200 -38.141400 -25.922500
N -8.235400 -40.725900 -29.769800
N -8.175000 -40.244000 -25.072800
N -8.142500 -42.428500 -24.219000
H -7.901900 -40.853800 -30.553300
C -7.856100 -39.608400 -29.019300
C -7.838800 -38.376700 -27.175300
H -7.645000 -42.661100 -24.880500
N -6.968200 -38.807800 -29.691200
N -6.908600 -37.440000 -27.605300
C -6.532400 -37.776100 -28.982100
N -5.761500 -36.935700 -29.598200
H -5.559600 -37.063000 -30.425100
H -5.452600 -36.250200 -29.180600
H -15.784700 -47.439800 -19.809300
H -15.582700 -45.965700 -19.883700
N -15.394600 -46.759400 -20.158700
C -14.490600 -46.931900 -21.130300
N -14.368100 -48.188000 -21.374300
N -13.828300 -45.912300 -21.690600
C -13.561400 -48.537200 -22.484500
N -13.506700 -49.847300 -23.038500
H -13.474800 -51.757400 -24.396800
C -12.934600 -46.153700 -22.569200
N -12.914900 -51.191900 -24.723400
N -12.805400 -47.591100 -23.050900
C -12.733800 -49.951000 -24.103200
H -12.469100 -51.388400 -25.432500
N -12.206200 -45.220600 -23.121200
C -11.886200 -47.843600 -24.115600
N -11.860500 -49.066200 -24.609700
C -11.226600 -45.627200 -24.080500
N -11.080200 -46.947000 -24.531100
H -10.571300 -43.892100 -24.258200
N -10.474800 -44.700500 -24.537300
H -9.875900 -44.883800 -25.124500
