26
Fragment
H -10.978800 -38.451400 -22.037900
H -10.880100 -39.830400 -21.483900
N -10.658400 -39.248000 -22.077200
C -9.818500 -39.584000 -23.065400
N -9.442800 -38.606400 -23.972900
N -9.356500 -40.836700 -23.071600
H -8.802500 -41.287400 -29.449400
C -8.656300 -39.058300 -24.967300
C -8.580900 -41.173800 -24.121800
N -8.374700 -39.421500 -27.812000
H -8.353100 -43.006500 -23.617400
H -8.259100 -37.317000 -25.680600
N -8.246200 -38.141400 -25.922500
N -8.235400 -40.725900 -29.769800
N -8.175000 -40.244000 -25.072800
N -8.142500 -42.428500 -24.219000
H -7.901900 -40.853800 -30.553300
C -7.856100 -39.608400 -29.019300
C -7.838800 -38.376700 -27.175300
H -7.645000 -42.661100 -24.880500
N -6.968200 -38.807800 -29.691200
N -6.908600 -37.440000 -27.605300
C -6.532400 -37.776100 -28.982100
N -5.761500 -36.935700 -29.598200
H -5.559600 -37.063000 -30.425100
H -5.452600 -36.250200 -29.180600
26
Fragment
H -15.538800 -38.451400 -22.037900
H -15.440100 -39.830400 -21.483900
N -15.218400 -39.248000 -22.077200
C -14.378500 -39.584000 -23.065400
N -14.002800 -38.606400 -23.972900
N -13.916500 -40.836700 -23.071600
H -13.362500 -41.287400 -29.449400
C -13.216300 -39.058300 -24.967300
C -13.140900 -41.173800 -24.121800
N -12.934700 -39.421500 -27.812000
H -12.913100 -43.006500 -23.617400
H -12.819100 -37.317000 -25.680600
N -12.806200 -38.141400 -25.922500
N -12.795400 -40.725900 -29.769800
N -12.735000 -40.244000 -25.072800
N -12.702500 -42.428500 -24.219000
H -12.461900 -40.853800 -30.553300
C -12.416100 -39.608400 -29.019300
C -12.398800 -38.376700 -27.175300
H -12.205000 -42.661100 -24.880500
N -11.528200 -38.807800 -29.691200
N -11.468600 -37.440000 -27.605300
C -11.092400 -37.776100 -28.982100
N -10.321500 -36.935700 -29.598200
H -10.119600 -37.063000 -30.425100
H -10.012600 -36.250200 -29.180600
52
Fragment
H -10.978800 -38.451400 -22.037900
H -10.880100 -39.830400 -21.483900
N -10.658400 -39.248000 -22.077200
C -9.818500 -39.584000 -23.065400
N -9.442800 -38.606400 -23.972900
N -9.356500 -40.836700 -23.071600
H -8.802500 -41.287400 -29.449400
C -8.656300 -39.058300 -24.967300
C -8.580900 -41.173800 -24.121800
N -8.374700 -39.421500 -27.812000
H -8.353100 -43.006500 -23.617400
H -8.259100 -37.317000 -25.680600
N -8.246200 -38.141400 -25.922500
N -8.235400 -40.725900 -29.769800
N -8.175000 -40.244000 -25.072800
N -8.142500 -42.428500 -24.219000
H -7.901900 -40.853800 -30.553300
C -7.856100 -39.608400 -29.019300
C -7.838800 -38.376700 -27.175300
H -7.645000 -42.661100 -24.880500
N -6.968200 -38.807800 -29.691200
N -6.908600 -37.440000 -27.605300
C -6.532400 -37.776100 -28.982100
N -5.761500 -36.935700 -29.598200
H -5.559600 -37.063000 -30.425100
H -5.452600 -36.250200 -29.180600
H -15.538800 -38.451400 -22.037900
H -15.440100 -39.830400 -21.483900
N -15.218400 -39.248000 -22.077200
C -14.378500 -39.584000 -23.065400
N -14.002800 -38.606400 -23.972900
N -13.916500 -40.836700 -23.071600
H -13.362500 -41.287400 -29.449400
C -13.216300 -39.058300 -24.967300
C -13.140900 -41.173800 -24.121800
N -12.934700 -39.421500 -27.812000
H -12.913100 -43.006500 -23.617400
H -12.819100 -37.317000 -25.680600
N -12.806200 -38.141400 -25.922500
N -12.795400 -40.725900 -29.769800
N -12.735000 -40.244000 -25.072800
N -12.702500 -42.428500 -24.219000
H -12.461900 -40.853800 -30.553300
C -12.416100 -39.608400 -29.019300
C -12.398800 -38.376700 -27.175300
H -12.205000 -42.661100 -24.880500
N -11.528200 -38.807800 -29.691200
N -11.468600 -37.440000 -27.605300
C -11.092400 -37.776100 -28.982100
N -10.321500 -36.935700 -29.598200
H -10.119600 -37.063000 -30.425100
H -10.012600 -36.250200 -29.180600
