26
Fragment
H -10.978800 -38.451400 -22.037900
H -10.880100 -39.830400 -21.483900
N -10.658400 -39.248000 -22.077200
C -9.818500 -39.584000 -23.065400
N -9.442800 -38.606400 -23.972900
N -9.356500 -40.836700 -23.071600
H -8.802500 -41.287400 -29.449400
C -8.656300 -39.058300 -24.967300
C -8.580900 -41.173800 -24.121800
N -8.374700 -39.421500 -27.812000
H -8.353100 -43.006500 -23.617400
H -8.259100 -37.317000 -25.680600
N -8.246200 -38.141400 -25.922500
N -8.235400 -40.725900 -29.769800
N -8.175000 -40.244000 -25.072800
N -8.142500 -42.428500 -24.219000
H -7.901900 -40.853800 -30.553300
C -7.856100 -39.608400 -29.019300
C -7.838800 -38.376700 -27.175300
H -7.645000 -42.661100 -24.880500
N -6.968200 -38.807800 -29.691200
N -6.908600 -37.440000 -27.605300
C -6.532400 -37.776100 -28.982100
N -5.761500 -36.935700 -29.598200
H -5.559600 -37.063000 -30.425100
H -5.452600 -36.250200 -29.180600
26
Fragment
H -13.161000 -36.969800 -22.798700
H -13.061100 -36.228500 -21.508700
N -12.818000 -36.335900 -22.327300
C -11.910400 -35.520900 -22.866900
N -11.607900 -35.719100 -24.247900
N -11.429800 -34.553400 -22.029600
C -10.746500 -34.804700 -24.649000
C -10.609800 -33.732700 -22.711900
H -10.550200 -30.369800 -26.925100
H -10.429400 -32.572000 -21.208900
H -10.410500 -35.826700 -26.315300
N -10.344100 -35.023800 -26.015500
N -10.229500 -32.839100 -26.726700
N -10.169300 -32.691200 -22.021400
N -10.133900 -33.803800 -23.958500
N -10.061300 -30.655400 -27.570100
C -9.859800 -34.088700 -26.877600
C -9.764300 -31.913500 -27.652800
H -9.763900 -30.105200 -28.161400
H -9.622700 -32.136200 -22.383200
N -9.091800 -34.552900 -27.861600
N -8.983300 -32.214300 -28.723700
C -8.686700 -33.671000 -28.746500
N -7.860200 -34.006000 -29.711900
H -7.603900 -33.414900 -30.282500
H -7.575500 -34.815200 -29.773900
52
Fragment
H -10.978800 -38.451400 -22.037900
H -10.880100 -39.830400 -21.483900
N -10.658400 -39.248000 -22.077200
C -9.818500 -39.584000 -23.065400
N -9.442800 -38.606400 -23.972900
N -9.356500 -40.836700 -23.071600
H -8.802500 -41.287400 -29.449400
C -8.656300 -39.058300 -24.967300
C -8.580900 -41.173800 -24.121800
N -8.374700 -39.421500 -27.812000
H -8.353100 -43.006500 -23.617400
H -8.259100 -37.317000 -25.680600
N -8.246200 -38.141400 -25.922500
N -8.235400 -40.725900 -29.769800
N -8.175000 -40.244000 -25.072800
N -8.142500 -42.428500 -24.219000
H -7.901900 -40.853800 -30.553300
C -7.856100 -39.608400 -29.019300
C -7.838800 -38.376700 -27.175300
H -7.645000 -42.661100 -24.880500
N -6.968200 -38.807800 -29.691200
N -6.908600 -37.440000 -27.605300
C -6.532400 -37.776100 -28.982100
N -5.761500 -36.935700 -29.598200
H -5.559600 -37.063000 -30.425100
H -5.452600 -36.250200 -29.180600
H -13.161000 -36.969800 -22.798700
H -13.061100 -36.228500 -21.508700
N -12.818000 -36.335900 -22.327300
C -11.910400 -35.520900 -22.866900
N -11.607900 -35.719100 -24.247900
N -11.429800 -34.553400 -22.029600
C -10.746500 -34.804700 -24.649000
C -10.609800 -33.732700 -22.711900
H -10.550200 -30.369800 -26.925100
H -10.429400 -32.572000 -21.208900
H -10.410500 -35.826700 -26.315300
N -10.344100 -35.023800 -26.015500
N -10.229500 -32.839100 -26.726700
N -10.169300 -32.691200 -22.021400
N -10.133900 -33.803800 -23.958500
N -10.061300 -30.655400 -27.570100
C -9.859800 -34.088700 -26.877600
C -9.764300 -31.913500 -27.652800
H -9.763900 -30.105200 -28.161400
H -9.622700 -32.136200 -22.383200
N -9.091800 -34.552900 -27.861600
N -8.983300 -32.214300 -28.723700
C -8.686700 -33.671000 -28.746500
N -7.860200 -34.006000 -29.711900
H -7.603900 -33.414900 -30.282500
H -7.575500 -34.815200 -29.773900
