26
Fragment
H -10.978800 -38.451400 -22.037900
H -10.880100 -39.830400 -21.483900
N -10.658400 -39.248000 -22.077200
C -9.818500 -39.584000 -23.065400
N -9.442800 -38.606400 -23.972900
N -9.356500 -40.836700 -23.071600
H -8.802500 -41.287400 -29.449400
C -8.656300 -39.058300 -24.967300
C -8.580900 -41.173800 -24.121800
N -8.374700 -39.421500 -27.812000
H -8.353100 -43.006500 -23.617400
H -8.259100 -37.317000 -25.680600
N -8.246200 -38.141400 -25.922500
N -8.235400 -40.725900 -29.769800
N -8.175000 -40.244000 -25.072800
N -8.142500 -42.428500 -24.219000
H -7.901900 -40.853800 -30.553300
C -7.856100 -39.608400 -29.019300
C -7.838800 -38.376700 -27.175300
H -7.645000 -42.661100 -24.880500
N -6.968200 -38.807800 -29.691200
N -6.908600 -37.440000 -27.605300
C -6.532400 -37.776100 -28.982100
N -5.761500 -36.935700 -29.598200
H -5.559600 -37.063000 -30.425100
H -5.452600 -36.250200 -29.180600
26
Fragment
H -12.962400 -35.541600 -11.573000
H -12.934000 -36.942000 -11.064400
N -12.677700 -36.350900 -11.635000
C -11.851200 -36.685900 -12.600500
N -11.554700 -38.142600 -12.623200
N -11.446100 -35.804000 -13.485300
H -10.915200 -38.220700 -18.963800
H -10.774100 -40.251700 -13.185500
C -10.773700 -38.443400 -13.694100
C -10.678100 -36.268200 -14.469400
N -10.476600 -39.701500 -13.776800
N -10.404100 -36.553100 -17.388500
N -10.368600 -37.665700 -19.325600
N -10.308400 -37.517800 -14.620300
N -10.193800 -35.333100 -15.331400
H -10.127500 -34.530100 -15.031700
H -10.108600 -37.784900 -20.138000
H -9.987700 -39.987100 -14.421800
C -9.928200 -36.624200 -18.635100
C -9.791400 -35.552100 -16.698000
N -9.108200 -35.803500 -19.317300
N -8.930100 -34.637700 -17.099000
C -8.627500 -34.836000 -18.480000
N -7.719900 -34.021000 -19.019600
H -7.476900 -34.128400 -19.838300
H -7.376900 -33.387100 -18.548200
52
Fragment
H -10.978800 -38.451400 -22.037900
H -10.880100 -39.830400 -21.483900
N -10.658400 -39.248000 -22.077200
C -9.818500 -39.584000 -23.065400
N -9.442800 -38.606400 -23.972900
N -9.356500 -40.836700 -23.071600
H -8.802500 -41.287400 -29.449400
C -8.656300 -39.058300 -24.967300
C -8.580900 -41.173800 -24.121800
N -8.374700 -39.421500 -27.812000
H -8.353100 -43.006500 -23.617400
H -8.259100 -37.317000 -25.680600
N -8.246200 -38.141400 -25.922500
N -8.235400 -40.725900 -29.769800
N -8.175000 -40.244000 -25.072800
N -8.142500 -42.428500 -24.219000
H -7.901900 -40.853800 -30.553300
C -7.856100 -39.608400 -29.019300
C -7.838800 -38.376700 -27.175300
H -7.645000 -42.661100 -24.880500
N -6.968200 -38.807800 -29.691200
N -6.908600 -37.440000 -27.605300
C -6.532400 -37.776100 -28.982100
N -5.761500 -36.935700 -29.598200
H -5.559600 -37.063000 -30.425100
H -5.452600 -36.250200 -29.180600
H -12.962400 -35.541600 -11.573000
H -12.934000 -36.942000 -11.064400
N -12.677700 -36.350900 -11.635000
C -11.851200 -36.685900 -12.600500
N -11.554700 -38.142600 -12.623200
N -11.446100 -35.804000 -13.485300
H -10.915200 -38.220700 -18.963800
H -10.774100 -40.251700 -13.185500
C -10.773700 -38.443400 -13.694100
C -10.678100 -36.268200 -14.469400
N -10.476600 -39.701500 -13.776800
N -10.404100 -36.553100 -17.388500
N -10.368600 -37.665700 -19.325600
N -10.308400 -37.517800 -14.620300
N -10.193800 -35.333100 -15.331400
H -10.127500 -34.530100 -15.031700
H -10.108600 -37.784900 -20.138000
H -9.987700 -39.987100 -14.421800
C -9.928200 -36.624200 -18.635100
C -9.791400 -35.552100 -16.698000
N -9.108200 -35.803500 -19.317300
N -8.930100 -34.637700 -17.099000
C -8.627500 -34.836000 -18.480000
N -7.719900 -34.021000 -19.019600
H -7.476900 -34.128400 -19.838300
H -7.376900 -33.387100 -18.548200
