24
Fragment
H -22.958000 -24.408200 -15.936100
H -22.705400 -22.797800 -17.543800
C -22.521900 -24.628700 -16.727600
C -22.378200 -23.656400 -17.689700
N -22.066300 -25.875800 -16.875000
C -21.741600 -23.971800 -18.873300
H -21.646400 -23.329800 -19.539300
C -21.439500 -26.145200 -18.025700
C -21.246100 -25.249800 -19.058400
H -21.106400 -27.006000 -18.139600
C -20.575700 -25.625800 -20.298600
N -20.407700 -24.816800 -21.325200
N -20.104100 -26.890500 -20.518900
H -20.099700 -27.630300 -19.874200
C -19.765800 -25.606300 -22.282100
C -19.581400 -26.898100 -21.792900
H -19.444200 -24.417800 -23.909400
C -19.340800 -25.278700 -23.572300
C -19.011200 -27.906600 -22.562200
H -18.904000 -28.768700 -22.232900
C -18.763600 -26.270900 -24.326700
C -18.611700 -27.561700 -23.840500
H -18.467300 -26.072900 -25.185700
H -18.231600 -28.211600 -24.387100
24
Fragment
H -22.645900 -19.335600 -10.869700
H -22.410200 -21.474300 -10.071100
C -22.265800 -19.985500 -11.416300
C -22.113900 -21.276300 -10.930100
H -21.973500 -18.778500 -13.023900
C -21.866300 -19.640600 -12.694600
C -21.536800 -22.268500 -11.684500
H -21.433300 -23.129400 -11.347400
C -21.296100 -20.649100 -13.463900
C -21.111700 -21.940900 -12.974700
H -20.777800 -19.916900 -15.382500
N -20.773400 -20.656700 -14.737900
N -20.469900 -22.730400 -13.931500
C -20.301800 -21.921400 -14.958200
H -19.771100 -20.541200 -17.117200
C -19.631400 -22.297400 -16.198400
C -19.438000 -21.402000 -17.231000
H -19.231100 -24.217400 -15.717500
C -19.135900 -23.575300 -16.383500
N -18.811200 -21.671400 -18.381800
C -18.499300 -23.890800 -17.567000
C -18.355600 -22.918500 -18.529200
H -18.172100 -24.749400 -17.713000
H -17.919500 -23.139000 -19.320700
48
Fragment
H -22.958000 -24.408200 -15.936100
H -22.705400 -22.797800 -17.543800
C -22.521900 -24.628700 -16.727600
C -22.378200 -23.656400 -17.689700
N -22.066300 -25.875800 -16.875000
C -21.741600 -23.971800 -18.873300
H -21.646400 -23.329800 -19.539300
C -21.439500 -26.145200 -18.025700
C -21.246100 -25.249800 -19.058400
H -21.106400 -27.006000 -18.139600
C -20.575700 -25.625800 -20.298600
N -20.407700 -24.816800 -21.325200
N -20.104100 -26.890500 -20.518900
H -20.099700 -27.630300 -19.874200
C -19.765800 -25.606300 -22.282100
C -19.581400 -26.898100 -21.792900
H -19.444200 -24.417800 -23.909400
C -19.340800 -25.278700 -23.572300
C -19.011200 -27.906600 -22.562200
H -18.904000 -28.768700 -22.232900
C -18.763600 -26.270900 -24.326700
C -18.611700 -27.561700 -23.840500
H -18.467300 -26.072900 -25.185700
H -18.231600 -28.211600 -24.387100
H -22.645900 -19.335600 -10.869700
H -22.410200 -21.474300 -10.071100
C -22.265800 -19.985500 -11.416300
C -22.113900 -21.276300 -10.930100
H -21.973500 -18.778500 -13.023900
C -21.866300 -19.640600 -12.694600
C -21.536800 -22.268500 -11.684500
H -21.433300 -23.129400 -11.347400
C -21.296100 -20.649100 -13.463900
C -21.111700 -21.940900 -12.974700
H -20.777800 -19.916900 -15.382500
N -20.773400 -20.656700 -14.737900
N -20.469900 -22.730400 -13.931500
C -20.301800 -21.921400 -14.958200
H -19.771100 -20.541200 -17.117200
C -19.631400 -22.297400 -16.198400
C -19.438000 -21.402000 -17.231000
H -19.231100 -24.217400 -15.717500
C -19.135900 -23.575300 -16.383500
N -18.811200 -21.671400 -18.381800
C -18.499300 -23.890800 -17.567000
C -18.355600 -22.918500 -18.529200
H -18.172100 -24.749400 -17.713000
H -17.919500 -23.139000 -19.320700
