24
Fragment
H -22.958000 -24.408200 -15.936100
H -22.705400 -22.797800 -17.543800
C -22.521900 -24.628700 -16.727600
C -22.378200 -23.656400 -17.689700
N -22.066300 -25.875800 -16.875000
C -21.741600 -23.971800 -18.873300
H -21.646400 -23.329800 -19.539300
C -21.439500 -26.145200 -18.025700
C -21.246100 -25.249800 -19.058400
H -21.106400 -27.006000 -18.139600
C -20.575700 -25.625800 -20.298600
N -20.407700 -24.816800 -21.325200
N -20.104100 -26.890500 -20.518900
H -20.099700 -27.630300 -19.874200
C -19.765800 -25.606300 -22.282100
C -19.581400 -26.898100 -21.792900
H -19.444200 -24.417800 -23.909400
C -19.340800 -25.278700 -23.572300
C -19.011200 -27.906600 -22.562200
H -18.904000 -28.768700 -22.232900
C -18.763600 -26.270900 -24.326700
C -18.611700 -27.561700 -23.840500
H -18.467300 -26.072900 -25.185700
H -18.231600 -28.211600 -24.387100
16
Fragment
N -20.436000 -33.645400 -27.074900
N -20.419100 -37.135700 -25.488500
C -20.065900 -36.265100 -24.858300
C -20.042200 -33.718800 -26.007200
C -19.604600 -35.140400 -24.083200
C -19.566700 -33.890800 -24.664400
H -19.232400 -36.154800 -22.374000
C -19.185800 -35.314200 -22.770600
C -19.076800 -32.807300 -23.947500
H -19.046600 -31.964900 -24.341300
C -18.698500 -34.232300 -22.054700
C -18.632800 -32.977200 -22.646100
C -18.265700 -34.412800 -20.694000
C -18.087100 -31.859100 -21.923400
N -17.930700 -34.557000 -19.611800
N -17.648400 -30.980000 -21.339500
40
Fragment
H -22.958000 -24.408200 -15.936100
H -22.705400 -22.797800 -17.543800
C -22.521900 -24.628700 -16.727600
C -22.378200 -23.656400 -17.689700
N -22.066300 -25.875800 -16.875000
C -21.741600 -23.971800 -18.873300
H -21.646400 -23.329800 -19.539300
C -21.439500 -26.145200 -18.025700
C -21.246100 -25.249800 -19.058400
H -21.106400 -27.006000 -18.139600
C -20.575700 -25.625800 -20.298600
N -20.407700 -24.816800 -21.325200
N -20.104100 -26.890500 -20.518900
H -20.099700 -27.630300 -19.874200
C -19.765800 -25.606300 -22.282100
C -19.581400 -26.898100 -21.792900
H -19.444200 -24.417800 -23.909400
C -19.340800 -25.278700 -23.572300
C -19.011200 -27.906600 -22.562200
H -18.904000 -28.768700 -22.232900
C -18.763600 -26.270900 -24.326700
C -18.611700 -27.561700 -23.840500
H -18.467300 -26.072900 -25.185700
H -18.231600 -28.211600 -24.387100
N -20.436000 -33.645400 -27.074900
N -20.419100 -37.135700 -25.488500
C -20.065900 -36.265100 -24.858300
C -20.042200 -33.718800 -26.007200
C -19.604600 -35.140400 -24.083200
C -19.566700 -33.890800 -24.664400
H -19.232400 -36.154800 -22.374000
C -19.185800 -35.314200 -22.770600
C -19.076800 -32.807300 -23.947500
H -19.046600 -31.964900 -24.341300
C -18.698500 -34.232300 -22.054700
C -18.632800 -32.977200 -22.646100
C -18.265700 -34.412800 -20.694000
C -18.087100 -31.859100 -21.923400
N -17.930700 -34.557000 -19.611800
N -17.648400 -30.980000 -21.339500
