21
Fragment
H -6.194900 -35.943700 -12.618100
O -6.018000 -34.285700 -14.453300
N -5.413700 -35.437100 -12.572300
C -5.211800 -34.462400 -13.535700
O -4.902900 -36.684500 -10.744900
C -4.591700 -35.781000 -11.519600
H -4.525400 -31.326600 -14.800200
H -4.424700 -32.578300 -15.713200
C -3.987200 -33.774400 -13.326900
C -3.930100 -32.024000 -15.157500
N -3.413300 -35.086100 -11.396900
N -3.359900 -32.771100 -14.037000
H -3.209300 -31.592600 -15.667600
C -3.122200 -34.105400 -12.311600
H -2.968800 -35.727600 -9.550300
C -2.474700 -35.422400 -10.314800
C -2.183400 -32.562100 -13.426000
H -2.008700 -34.627900 -10.079800
N -1.992800 -33.361600 -12.371200
H -1.873700 -36.062500 -10.600300
H -1.563300 -31.899000 -13.750200
16
Fragment
H -7.046500 -32.977300 -11.431100
O -6.236200 -32.813200 -10.922000
O -5.949000 -31.201700 -12.454000
C -5.579400 -31.790300 -11.454700
H -4.581400 -32.801500 -9.185100
C -4.329600 -31.448000 -10.719800
C -4.000300 -32.112500 -9.539400
H -3.724500 -30.027500 -12.097600
C -3.479400 -30.472300 -11.238500
H -2.945400 -33.122200 -7.559900
C -2.823000 -31.789100 -8.872900
O -2.444800 -32.411300 -7.715600
C -2.318500 -30.149100 -10.556200
C -1.985400 -30.794900 -9.372000
H -1.726300 -29.450400 -10.901600
H -1.159600 -30.602300 -8.874600
37
Fragment
H -6.194900 -35.943700 -12.618100
O -6.018000 -34.285700 -14.453300
N -5.413700 -35.437100 -12.572300
C -5.211800 -34.462400 -13.535700
O -4.902900 -36.684500 -10.744900
C -4.591700 -35.781000 -11.519600
H -4.525400 -31.326600 -14.800200
H -4.424700 -32.578300 -15.713200
C -3.987200 -33.774400 -13.326900
C -3.930100 -32.024000 -15.157500
N -3.413300 -35.086100 -11.396900
N -3.359900 -32.771100 -14.037000
H -3.209300 -31.592600 -15.667600
C -3.122200 -34.105400 -12.311600
H -2.968800 -35.727600 -9.550300
C -2.474700 -35.422400 -10.314800
C -2.183400 -32.562100 -13.426000
H -2.008700 -34.627900 -10.079800
N -1.992800 -33.361600 -12.371200
H -1.873700 -36.062500 -10.600300
H -1.563300 -31.899000 -13.750200
H -7.046500 -32.977300 -11.431100
O -6.236200 -32.813200 -10.922000
O -5.949000 -31.201700 -12.454000
C -5.579400 -31.790300 -11.454700
H -4.581400 -32.801500 -9.185100
C -4.329600 -31.448000 -10.719800
C -4.000300 -32.112500 -9.539400
H -3.724500 -30.027500 -12.097600
C -3.479400 -30.472300 -11.238500
H -2.945400 -33.122200 -7.559900
C -2.823000 -31.789100 -8.872900
O -2.444800 -32.411300 -7.715600
C -2.318500 -30.149100 -10.556200
C -1.985400 -30.794900 -9.372000
H -1.726300 -29.450400 -10.901600
H -1.159600 -30.602300 -8.874600
