21
Fragment
H -6.194900 -35.943700 -12.618100
O -6.018000 -34.285700 -14.453300
N -5.413700 -35.437100 -12.572300
C -5.211800 -34.462400 -13.535700
O -4.902900 -36.684500 -10.744900
C -4.591700 -35.781000 -11.519600
H -4.525400 -31.326600 -14.800200
H -4.424700 -32.578300 -15.713200
C -3.987200 -33.774400 -13.326900
C -3.930100 -32.024000 -15.157500
N -3.413300 -35.086100 -11.396900
N -3.359900 -32.771100 -14.037000
H -3.209300 -31.592600 -15.667600
C -3.122200 -34.105400 -12.311600
H -2.968800 -35.727600 -9.550300
C -2.474700 -35.422400 -10.314800
C -2.183400 -32.562100 -13.426000
H -2.008700 -34.627900 -10.079800
N -1.992800 -33.361600 -12.371200
H -1.873700 -36.062500 -10.600300
H -1.563300 -31.899000 -13.750200
21
Fragment
H -7.570700 -39.351900 -4.510400
H -7.260200 -35.188400 -7.660300
N -7.141100 -37.889300 -5.889400
H -7.125200 -36.623000 -8.180700
C -6.950500 -38.688800 -4.834600
C -6.659200 -35.828500 -7.945800
H -6.165100 -35.523300 -8.710300
C -6.011700 -37.145500 -5.948900
H -5.924600 -39.658300 -2.593000
N -5.774100 -38.479800 -4.223600
N -5.720600 -36.164800 -6.863700
C -5.203900 -39.226900 -3.103100
C -5.146700 -37.476500 -4.933600
H -4.709200 -38.672600 -2.547400
H -4.608500 -39.924300 -3.460400
C -4.542300 -35.469900 -6.741000
O -4.231000 -34.566400 -7.515700
C -3.922200 -36.788500 -4.724800
N -3.720200 -35.813800 -5.688300
O -3.115900 -36.965200 -3.807200
H -2.939000 -35.307200 -5.642500
42
Fragment
H -6.194900 -35.943700 -12.618100
O -6.018000 -34.285700 -14.453300
N -5.413700 -35.437100 -12.572300
C -5.211800 -34.462400 -13.535700
O -4.902900 -36.684500 -10.744900
C -4.591700 -35.781000 -11.519600
H -4.525400 -31.326600 -14.800200
H -4.424700 -32.578300 -15.713200
C -3.987200 -33.774400 -13.326900
C -3.930100 -32.024000 -15.157500
N -3.413300 -35.086100 -11.396900
N -3.359900 -32.771100 -14.037000
H -3.209300 -31.592600 -15.667600
C -3.122200 -34.105400 -12.311600
H -2.968800 -35.727600 -9.550300
C -2.474700 -35.422400 -10.314800
C -2.183400 -32.562100 -13.426000
H -2.008700 -34.627900 -10.079800
N -1.992800 -33.361600 -12.371200
H -1.873700 -36.062500 -10.600300
H -1.563300 -31.899000 -13.750200
H -7.570700 -39.351900 -4.510400
H -7.260200 -35.188400 -7.660300
N -7.141100 -37.889300 -5.889400
H -7.125200 -36.623000 -8.180700
C -6.950500 -38.688800 -4.834600
C -6.659200 -35.828500 -7.945800
H -6.165100 -35.523300 -8.710300
C -6.011700 -37.145500 -5.948900
H -5.924600 -39.658300 -2.593000
N -5.774100 -38.479800 -4.223600
N -5.720600 -36.164800 -6.863700
C -5.203900 -39.226900 -3.103100
C -5.146700 -37.476500 -4.933600
H -4.709200 -38.672600 -2.547400
H -4.608500 -39.924300 -3.460400
C -4.542300 -35.469900 -6.741000
O -4.231000 -34.566400 -7.515700
C -3.922200 -36.788500 -4.724800
N -3.720200 -35.813800 -5.688300
O -3.115900 -36.965200 -3.807200
H -2.939000 -35.307200 -5.642500
