21
Fragment
H -6.194900 -35.943700 -12.618100
O -6.018000 -34.285700 -14.453300
N -5.413700 -35.437100 -12.572300
C -5.211800 -34.462400 -13.535700
O -4.902900 -36.684500 -10.744900
C -4.591700 -35.781000 -11.519600
H -4.525400 -31.326600 -14.800200
H -4.424700 -32.578300 -15.713200
C -3.987200 -33.774400 -13.326900
C -3.930100 -32.024000 -15.157500
N -3.413300 -35.086100 -11.396900
N -3.359900 -32.771100 -14.037000
H -3.209300 -31.592600 -15.667600
C -3.122200 -34.105400 -12.311600
H -2.968800 -35.727600 -9.550300
C -2.474700 -35.422400 -10.314800
C -2.183400 -32.562100 -13.426000
H -2.008700 -34.627900 -10.079800
N -1.992800 -33.361600 -12.371200
H -1.873700 -36.062500 -10.600300
H -1.563300 -31.899000 -13.750200
21
Fragment
H -5.656400 -39.351900 -13.640700
H -5.346000 -35.188400 -16.790600
N -5.226900 -37.889300 -15.019700
H -5.211000 -36.623000 -17.311000
C -5.036300 -38.688800 -13.964900
C -4.745000 -35.828500 -17.076100
H -4.250900 -35.523300 -17.840600
C -4.097500 -37.145500 -15.079200
H -4.010400 -39.658300 -11.723300
N -3.859800 -38.479800 -13.353900
N -3.806400 -36.164800 -15.994000
C -3.289600 -39.226900 -12.233400
C -3.232500 -37.476500 -14.063900
H -2.795000 -38.672600 -11.677600
H -2.694300 -39.924300 -12.590700
C -2.628000 -35.469900 -15.871300
O -2.316700 -34.566400 -16.646000
C -2.007900 -36.788500 -13.855100
N -1.806000 -35.813800 -14.818600
O -1.201700 -36.965200 -12.937500
H -1.024800 -35.307200 -14.772800
42
Fragment
H -6.194900 -35.943700 -12.618100
O -6.018000 -34.285700 -14.453300
N -5.413700 -35.437100 -12.572300
C -5.211800 -34.462400 -13.535700
O -4.902900 -36.684500 -10.744900
C -4.591700 -35.781000 -11.519600
H -4.525400 -31.326600 -14.800200
H -4.424700 -32.578300 -15.713200
C -3.987200 -33.774400 -13.326900
C -3.930100 -32.024000 -15.157500
N -3.413300 -35.086100 -11.396900
N -3.359900 -32.771100 -14.037000
H -3.209300 -31.592600 -15.667600
C -3.122200 -34.105400 -12.311600
H -2.968800 -35.727600 -9.550300
C -2.474700 -35.422400 -10.314800
C -2.183400 -32.562100 -13.426000
H -2.008700 -34.627900 -10.079800
N -1.992800 -33.361600 -12.371200
H -1.873700 -36.062500 -10.600300
H -1.563300 -31.899000 -13.750200
H -5.656400 -39.351900 -13.640700
H -5.346000 -35.188400 -16.790600
N -5.226900 -37.889300 -15.019700
H -5.211000 -36.623000 -17.311000
C -5.036300 -38.688800 -13.964900
C -4.745000 -35.828500 -17.076100
H -4.250900 -35.523300 -17.840600
C -4.097500 -37.145500 -15.079200
H -4.010400 -39.658300 -11.723300
N -3.859800 -38.479800 -13.353900
N -3.806400 -36.164800 -15.994000
C -3.289600 -39.226900 -12.233400
C -3.232500 -37.476500 -14.063900
H -2.795000 -38.672600 -11.677600
H -2.694300 -39.924300 -12.590700
C -2.628000 -35.469900 -15.871300
O -2.316700 -34.566400 -16.646000
C -2.007900 -36.788500 -13.855100
N -1.806000 -35.813800 -14.818600
O -1.201700 -36.965200 -12.937500
H -1.024800 -35.307200 -14.772800
