21
Fragment
H -6.194900 -35.943700 -12.618100
O -6.018000 -34.285700 -14.453300
N -5.413700 -35.437100 -12.572300
C -5.211800 -34.462400 -13.535700
O -4.902900 -36.684500 -10.744900
C -4.591700 -35.781000 -11.519600
H -4.525400 -31.326600 -14.800200
H -4.424700 -32.578300 -15.713200
C -3.987200 -33.774400 -13.326900
C -3.930100 -32.024000 -15.157500
N -3.413300 -35.086100 -11.396900
N -3.359900 -32.771100 -14.037000
H -3.209300 -31.592600 -15.667600
C -3.122200 -34.105400 -12.311600
H -2.968800 -35.727600 -9.550300
C -2.474700 -35.422400 -10.314800
C -2.183400 -32.562100 -13.426000
H -2.008700 -34.627900 -10.079800
N -1.992800 -33.361600 -12.371200
H -1.873700 -36.062500 -10.600300
H -1.563300 -31.899000 -13.750200
21
Fragment
H -1.089500 -39.351900 -4.510400
H -0.779000 -35.188400 -7.660300
N -0.659900 -37.889300 -5.889400
H -0.644000 -36.623000 -8.180700
C -0.469300 -38.688800 -4.834600
C -0.178000 -35.828500 -7.945800
H 0.316100 -35.523300 -8.710300
C 0.469500 -37.145500 -5.948900
H 0.556600 -39.658300 -2.593000
N 0.707100 -38.479800 -4.223600
N 0.760600 -36.164800 -6.863700
C 1.277300 -39.226900 -3.103100
C 1.334500 -37.476500 -4.933600
H 1.772000 -38.672600 -2.547400
H 1.872700 -39.924300 -3.460400
C 1.938900 -35.469900 -6.741000
O 2.250200 -34.566400 -7.515700
C 2.559000 -36.788500 -4.724800
N 2.761000 -35.813800 -5.688300
O 3.365300 -36.965200 -3.807200
H 3.542200 -35.307200 -5.642500
42
Fragment
H -6.194900 -35.943700 -12.618100
O -6.018000 -34.285700 -14.453300
N -5.413700 -35.437100 -12.572300
C -5.211800 -34.462400 -13.535700
O -4.902900 -36.684500 -10.744900
C -4.591700 -35.781000 -11.519600
H -4.525400 -31.326600 -14.800200
H -4.424700 -32.578300 -15.713200
C -3.987200 -33.774400 -13.326900
C -3.930100 -32.024000 -15.157500
N -3.413300 -35.086100 -11.396900
N -3.359900 -32.771100 -14.037000
H -3.209300 -31.592600 -15.667600
C -3.122200 -34.105400 -12.311600
H -2.968800 -35.727600 -9.550300
C -2.474700 -35.422400 -10.314800
C -2.183400 -32.562100 -13.426000
H -2.008700 -34.627900 -10.079800
N -1.992800 -33.361600 -12.371200
H -1.873700 -36.062500 -10.600300
H -1.563300 -31.899000 -13.750200
H -1.089500 -39.351900 -4.510400
H -0.779000 -35.188400 -7.660300
N -0.659900 -37.889300 -5.889400
H -0.644000 -36.623000 -8.180700
C -0.469300 -38.688800 -4.834600
C -0.178000 -35.828500 -7.945800
H 0.316100 -35.523300 -8.710300
C 0.469500 -37.145500 -5.948900
H 0.556600 -39.658300 -2.593000
N 0.707100 -38.479800 -4.223600
N 0.760600 -36.164800 -6.863700
C 1.277300 -39.226900 -3.103100
C 1.334500 -37.476500 -4.933600
H 1.772000 -38.672600 -2.547400
H 1.872700 -39.924300 -3.460400
C 1.938900 -35.469900 -6.741000
O 2.250200 -34.566400 -7.515700
C 2.559000 -36.788500 -4.724800
N 2.761000 -35.813800 -5.688300
O 3.365300 -36.965200 -3.807200
H 3.542200 -35.307200 -5.642500
