39
Fragment
H -21.218500 -25.010500 -35.477300
N -20.584400 -25.295200 -35.056900
H -20.475800 -26.213100 -34.961300
H -20.297800 -22.027600 -32.820800
H -19.958700 -26.092300 -32.355800
C -19.593200 -24.477200 -34.744700
N -19.516800 -23.217700 -35.008000
C -19.387800 -21.995600 -32.472600
H -19.289900 -22.905200 -32.162500
H -19.238600 -21.390100 -31.746300
N -19.202700 -26.504700 -32.294200
H -19.098800 -27.194900 -31.763300
H -18.863600 -21.430400 -36.804500
O -18.468300 -21.684600 -33.534300
C -18.385900 -25.041000 -34.063100
H -18.359600 -20.369500 -35.617500
C -18.272500 -22.666400 -34.506900
C -18.213900 -26.168700 -33.109600
C -18.081400 -21.036000 -36.224800
O -17.480700 -22.105300 -35.490100
C -17.459200 -23.857900 -33.918700
H -17.392300 -20.708300 -36.853300
C -17.092600 -25.000800 -34.846600
C -17.074700 -24.831300 -36.277900
N -17.044800 -24.761900 -37.413900
N -17.031700 -26.699100 -33.126600
C -16.649500 -23.589800 -32.757100
C -16.262600 -26.167300 -34.224400
O -16.127700 -27.067200 -35.277700
H -16.044100 -28.850200 -34.385800
N -16.005900 -23.317700 -31.856700
C -15.468500 -28.292000 -34.937900
H -15.263100 -28.707200 -35.742800
O -15.029000 -25.775700 -33.706300
H -14.645700 -28.100300 -34.379500
H -14.471300 -24.295300 -35.005900
C -14.140500 -25.203500 -34.664000
H -13.965000 -25.789500 -35.335000
H -13.284300 -24.924400 -34.209600
6
Fragment
H -23.415900 -21.455400 -34.802000
H -22.806800 -22.816300 -35.298900
C -22.648000 -22.058100 -34.732000
H -22.417500 -22.451100 -33.886800
O -21.581600 -21.247100 -35.182100
H -20.947500 -21.720700 -35.222500
45
Fragment
H -21.218500 -25.010500 -35.477300
N -20.584400 -25.295200 -35.056900
H -20.475800 -26.213100 -34.961300
H -20.297800 -22.027600 -32.820800
H -19.958700 -26.092300 -32.355800
C -19.593200 -24.477200 -34.744700
N -19.516800 -23.217700 -35.008000
C -19.387800 -21.995600 -32.472600
H -19.289900 -22.905200 -32.162500
H -19.238600 -21.390100 -31.746300
N -19.202700 -26.504700 -32.294200
H -19.098800 -27.194900 -31.763300
H -18.863600 -21.430400 -36.804500
O -18.468300 -21.684600 -33.534300
C -18.385900 -25.041000 -34.063100
H -18.359600 -20.369500 -35.617500
C -18.272500 -22.666400 -34.506900
C -18.213900 -26.168700 -33.109600
C -18.081400 -21.036000 -36.224800
O -17.480700 -22.105300 -35.490100
C -17.459200 -23.857900 -33.918700
H -17.392300 -20.708300 -36.853300
C -17.092600 -25.000800 -34.846600
C -17.074700 -24.831300 -36.277900
N -17.044800 -24.761900 -37.413900
N -17.031700 -26.699100 -33.126600
C -16.649500 -23.589800 -32.757100
C -16.262600 -26.167300 -34.224400
O -16.127700 -27.067200 -35.277700
H -16.044100 -28.850200 -34.385800
N -16.005900 -23.317700 -31.856700
C -15.468500 -28.292000 -34.937900
H -15.263100 -28.707200 -35.742800
O -15.029000 -25.775700 -33.706300
H -14.645700 -28.100300 -34.379500
H -14.471300 -24.295300 -35.005900
C -14.140500 -25.203500 -34.664000
H -13.965000 -25.789500 -35.335000
H -13.284300 -24.924400 -34.209600
H -23.415900 -21.455400 -34.802000
H -22.806800 -22.816300 -35.298900
C -22.648000 -22.058100 -34.732000
H -22.417500 -22.451100 -33.886800
O -21.581600 -21.247100 -35.182100
H -20.947500 -21.720700 -35.222500
