39
Fragment
H -21.218500 -25.010500 -35.477300
N -20.584400 -25.295200 -35.056900
H -20.475800 -26.213100 -34.961300
H -20.297800 -22.027600 -32.820800
H -19.958700 -26.092300 -32.355800
C -19.593200 -24.477200 -34.744700
N -19.516800 -23.217700 -35.008000
C -19.387800 -21.995600 -32.472600
H -19.289900 -22.905200 -32.162500
H -19.238600 -21.390100 -31.746300
N -19.202700 -26.504700 -32.294200
H -19.098800 -27.194900 -31.763300
H -18.863600 -21.430400 -36.804500
O -18.468300 -21.684600 -33.534300
C -18.385900 -25.041000 -34.063100
H -18.359600 -20.369500 -35.617500
C -18.272500 -22.666400 -34.506900
C -18.213900 -26.168700 -33.109600
C -18.081400 -21.036000 -36.224800
O -17.480700 -22.105300 -35.490100
C -17.459200 -23.857900 -33.918700
H -17.392300 -20.708300 -36.853300
C -17.092600 -25.000800 -34.846600
C -17.074700 -24.831300 -36.277900
N -17.044800 -24.761900 -37.413900
N -17.031700 -26.699100 -33.126600
C -16.649500 -23.589800 -32.757100
C -16.262600 -26.167300 -34.224400
O -16.127700 -27.067200 -35.277700
H -16.044100 -28.850200 -34.385800
N -16.005900 -23.317700 -31.856700
C -15.468500 -28.292000 -34.937900
H -15.263100 -28.707200 -35.742800
O -15.029000 -25.775700 -33.706300
H -14.645700 -28.100300 -34.379500
H -14.471300 -24.295300 -35.005900
C -14.140500 -25.203500 -34.664000
H -13.965000 -25.789500 -35.335000
H -13.284300 -24.924400 -34.209600
39
Fragment
H -27.189500 -23.594000 -28.227700
N -26.555400 -23.309300 -28.648100
H -26.446800 -22.391400 -28.743700
H -26.268800 -26.576900 -30.884200
H -25.929700 -22.512200 -31.349200
C -25.564200 -24.127300 -28.960300
N -25.487800 -25.386800 -28.697000
C -25.358800 -26.608900 -31.232400
H -25.260900 -25.699300 -31.542500
H -25.209600 -27.214400 -31.958700
N -25.173700 -22.099800 -31.410800
H -25.069800 -21.409600 -31.941700
H -24.834600 -27.174100 -26.900500
O -24.439300 -26.919900 -30.170700
C -24.356900 -23.563500 -29.641900
H -24.330600 -28.235000 -28.087500
C -24.243500 -25.938100 -29.198100
C -24.184900 -22.435800 -30.595400
C -24.052400 -27.568500 -27.480200
O -23.451700 -26.499200 -28.214900
C -23.430200 -24.746600 -29.786300
H -23.363300 -27.896200 -26.851700
C -23.063600 -23.603700 -28.858400
C -23.045700 -23.773200 -27.427100
N -23.015800 -23.842600 -26.291100
N -23.002700 -21.905400 -30.578400
C -22.620500 -25.014700 -30.947900
C -22.233600 -22.437200 -29.480600
O -22.098700 -21.537300 -28.427300
H -22.015100 -19.754300 -29.319200
N -21.976900 -25.286800 -31.848300
C -21.439500 -20.312500 -28.767100
H -21.234100 -19.897300 -27.962200
O -21.000000 -22.828800 -29.998700
H -20.616700 -20.504200 -29.325500
H -20.442300 -24.309200 -28.699100
C -20.111500 -23.401000 -29.041000
H -19.936000 -22.815000 -28.370000
H -19.255300 -23.680100 -29.495400
78
Fragment
H -21.218500 -25.010500 -35.477300
N -20.584400 -25.295200 -35.056900
H -20.475800 -26.213100 -34.961300
H -20.297800 -22.027600 -32.820800
H -19.958700 -26.092300 -32.355800
C -19.593200 -24.477200 -34.744700
N -19.516800 -23.217700 -35.008000
C -19.387800 -21.995600 -32.472600
H -19.289900 -22.905200 -32.162500
H -19.238600 -21.390100 -31.746300
N -19.202700 -26.504700 -32.294200
H -19.098800 -27.194900 -31.763300
H -18.863600 -21.430400 -36.804500
O -18.468300 -21.684600 -33.534300
C -18.385900 -25.041000 -34.063100
H -18.359600 -20.369500 -35.617500
C -18.272500 -22.666400 -34.506900
C -18.213900 -26.168700 -33.109600
C -18.081400 -21.036000 -36.224800
O -17.480700 -22.105300 -35.490100
C -17.459200 -23.857900 -33.918700
H -17.392300 -20.708300 -36.853300
C -17.092600 -25.000800 -34.846600
C -17.074700 -24.831300 -36.277900
N -17.044800 -24.761900 -37.413900
N -17.031700 -26.699100 -33.126600
C -16.649500 -23.589800 -32.757100
C -16.262600 -26.167300 -34.224400
O -16.127700 -27.067200 -35.277700
H -16.044100 -28.850200 -34.385800
N -16.005900 -23.317700 -31.856700
C -15.468500 -28.292000 -34.937900
H -15.263100 -28.707200 -35.742800
O -15.029000 -25.775700 -33.706300
H -14.645700 -28.100300 -34.379500
H -14.471300 -24.295300 -35.005900
C -14.140500 -25.203500 -34.664000
H -13.965000 -25.789500 -35.335000
H -13.284300 -24.924400 -34.209600
H -27.189500 -23.594000 -28.227700
N -26.555400 -23.309300 -28.648100
H -26.446800 -22.391400 -28.743700
H -26.268800 -26.576900 -30.884200
H -25.929700 -22.512200 -31.349200
C -25.564200 -24.127300 -28.960300
N -25.487800 -25.386800 -28.697000
C -25.358800 -26.608900 -31.232400
H -25.260900 -25.699300 -31.542500
H -25.209600 -27.214400 -31.958700
N -25.173700 -22.099800 -31.410800
H -25.069800 -21.409600 -31.941700
H -24.834600 -27.174100 -26.900500
O -24.439300 -26.919900 -30.170700
C -24.356900 -23.563500 -29.641900
H -24.330600 -28.235000 -28.087500
C -24.243500 -25.938100 -29.198100
C -24.184900 -22.435800 -30.595400
C -24.052400 -27.568500 -27.480200
O -23.451700 -26.499200 -28.214900
C -23.430200 -24.746600 -29.786300
H -23.363300 -27.896200 -26.851700
C -23.063600 -23.603700 -28.858400
C -23.045700 -23.773200 -27.427100
N -23.015800 -23.842600 -26.291100
N -23.002700 -21.905400 -30.578400
C -22.620500 -25.014700 -30.947900
C -22.233600 -22.437200 -29.480600
O -22.098700 -21.537300 -28.427300
H -22.015100 -19.754300 -29.319200
N -21.976900 -25.286800 -31.848300
C -21.439500 -20.312500 -28.767100
H -21.234100 -19.897300 -27.962200
O -21.000000 -22.828800 -29.998700
H -20.616700 -20.504200 -29.325500
H -20.442300 -24.309200 -28.699100
C -20.111500 -23.401000 -29.041000
H -19.936000 -22.815000 -28.370000
H -19.255300 -23.680100 -29.495400
