39
Fragment
H -21.218500 -25.010500 -35.477300
N -20.584400 -25.295200 -35.056900
H -20.475800 -26.213100 -34.961300
H -20.297800 -22.027600 -32.820800
H -19.958700 -26.092300 -32.355800
C -19.593200 -24.477200 -34.744700
N -19.516800 -23.217700 -35.008000
C -19.387800 -21.995600 -32.472600
H -19.289900 -22.905200 -32.162500
H -19.238600 -21.390100 -31.746300
N -19.202700 -26.504700 -32.294200
H -19.098800 -27.194900 -31.763300
H -18.863600 -21.430400 -36.804500
O -18.468300 -21.684600 -33.534300
C -18.385900 -25.041000 -34.063100
H -18.359600 -20.369500 -35.617500
C -18.272500 -22.666400 -34.506900
C -18.213900 -26.168700 -33.109600
C -18.081400 -21.036000 -36.224800
O -17.480700 -22.105300 -35.490100
C -17.459200 -23.857900 -33.918700
H -17.392300 -20.708300 -36.853300
C -17.092600 -25.000800 -34.846600
C -17.074700 -24.831300 -36.277900
N -17.044800 -24.761900 -37.413900
N -17.031700 -26.699100 -33.126600
C -16.649500 -23.589800 -32.757100
C -16.262600 -26.167300 -34.224400
O -16.127700 -27.067200 -35.277700
H -16.044100 -28.850200 -34.385800
N -16.005900 -23.317700 -31.856700
C -15.468500 -28.292000 -34.937900
H -15.263100 -28.707200 -35.742800
O -15.029000 -25.775700 -33.706300
H -14.645700 -28.100300 -34.379500
H -14.471300 -24.295300 -35.005900
C -14.140500 -25.203500 -34.664000
H -13.965000 -25.789500 -35.335000
H -13.284300 -24.924400 -34.209600
39
Fragment
H -22.541700 -31.867900 -40.112900
H -21.861000 -32.733000 -38.987500
C -21.685500 -32.147000 -39.658500
H -21.354700 -31.238800 -39.316600
H -21.180300 -35.043800 -39.943000
O -20.797000 -32.719200 -40.616200
H -20.562900 -35.650700 -38.579700
C -20.357500 -35.235500 -39.384600
N -19.820100 -30.261200 -42.465800
H -19.781900 -35.793700 -39.936700
O -19.698300 -34.010700 -39.044800
C -19.563400 -33.110800 -40.098100
C -19.176500 -30.533300 -41.565400
N -18.794300 -33.642600 -41.195900
N -18.781200 -31.705400 -36.908600
C -18.751300 -31.774800 -38.044600
C -18.733400 -31.944300 -39.475900
H -18.433700 -27.651800 -37.469200
C -18.366800 -30.801400 -40.403800
O -18.345300 -29.048800 -38.832400
C -17.744600 -27.979500 -38.097700
C -17.612100 -33.112200 -41.212900
C -17.553500 -29.609900 -39.815600
H -17.466400 -27.313000 -38.705000
C -17.440100 -31.984500 -40.259400
O -17.357700 -28.628100 -40.788200
H -16.962400 -28.373900 -37.518000
H -16.727200 -34.138400 -42.559200
N -16.623300 -33.448200 -42.028300
H -16.587400 -28.333600 -42.576200
H -16.536100 -29.848700 -42.160000
C -16.438200 -28.939100 -41.849900
N -16.309200 -30.161200 -39.314500
C -16.232800 -31.420700 -39.577800
H -15.867300 -33.035800 -41.966700
H -15.528200 -28.971100 -41.501700
H -15.350200 -33.156600 -39.361200
N -15.241600 -32.238700 -39.265600
H -14.607500 -31.954000 -38.845200
78
Fragment
H -21.218500 -25.010500 -35.477300
N -20.584400 -25.295200 -35.056900
H -20.475800 -26.213100 -34.961300
H -20.297800 -22.027600 -32.820800
H -19.958700 -26.092300 -32.355800
C -19.593200 -24.477200 -34.744700
N -19.516800 -23.217700 -35.008000
C -19.387800 -21.995600 -32.472600
H -19.289900 -22.905200 -32.162500
H -19.238600 -21.390100 -31.746300
N -19.202700 -26.504700 -32.294200
H -19.098800 -27.194900 -31.763300
H -18.863600 -21.430400 -36.804500
O -18.468300 -21.684600 -33.534300
C -18.385900 -25.041000 -34.063100
H -18.359600 -20.369500 -35.617500
C -18.272500 -22.666400 -34.506900
C -18.213900 -26.168700 -33.109600
C -18.081400 -21.036000 -36.224800
O -17.480700 -22.105300 -35.490100
C -17.459200 -23.857900 -33.918700
H -17.392300 -20.708300 -36.853300
C -17.092600 -25.000800 -34.846600
C -17.074700 -24.831300 -36.277900
N -17.044800 -24.761900 -37.413900
N -17.031700 -26.699100 -33.126600
C -16.649500 -23.589800 -32.757100
C -16.262600 -26.167300 -34.224400
O -16.127700 -27.067200 -35.277700
H -16.044100 -28.850200 -34.385800
N -16.005900 -23.317700 -31.856700
C -15.468500 -28.292000 -34.937900
H -15.263100 -28.707200 -35.742800
O -15.029000 -25.775700 -33.706300
H -14.645700 -28.100300 -34.379500
H -14.471300 -24.295300 -35.005900
C -14.140500 -25.203500 -34.664000
H -13.965000 -25.789500 -35.335000
H -13.284300 -24.924400 -34.209600
H -22.541700 -31.867900 -40.112900
H -21.861000 -32.733000 -38.987500
C -21.685500 -32.147000 -39.658500
H -21.354700 -31.238800 -39.316600
H -21.180300 -35.043800 -39.943000
O -20.797000 -32.719200 -40.616200
H -20.562900 -35.650700 -38.579700
C -20.357500 -35.235500 -39.384600
N -19.820100 -30.261200 -42.465800
H -19.781900 -35.793700 -39.936700
O -19.698300 -34.010700 -39.044800
C -19.563400 -33.110800 -40.098100
C -19.176500 -30.533300 -41.565400
N -18.794300 -33.642600 -41.195900
N -18.781200 -31.705400 -36.908600
C -18.751300 -31.774800 -38.044600
C -18.733400 -31.944300 -39.475900
H -18.433700 -27.651800 -37.469200
C -18.366800 -30.801400 -40.403800
O -18.345300 -29.048800 -38.832400
C -17.744600 -27.979500 -38.097700
C -17.612100 -33.112200 -41.212900
C -17.553500 -29.609900 -39.815600
H -17.466400 -27.313000 -38.705000
C -17.440100 -31.984500 -40.259400
O -17.357700 -28.628100 -40.788200
H -16.962400 -28.373900 -37.518000
H -16.727200 -34.138400 -42.559200
N -16.623300 -33.448200 -42.028300
H -16.587400 -28.333600 -42.576200
H -16.536100 -29.848700 -42.160000
C -16.438200 -28.939100 -41.849900
N -16.309200 -30.161200 -39.314500
C -16.232800 -31.420700 -39.577800
H -15.867300 -33.035800 -41.966700
H -15.528200 -28.971100 -41.501700
H -15.350200 -33.156600 -39.361200
N -15.241600 -32.238700 -39.265600
H -14.607500 -31.954000 -38.845200
