39
Fragment
H -21.218500 -25.010500 -35.477300
N -20.584400 -25.295200 -35.056900
H -20.475800 -26.213100 -34.961300
H -20.297800 -22.027600 -32.820800
H -19.958700 -26.092300 -32.355800
C -19.593200 -24.477200 -34.744700
N -19.516800 -23.217700 -35.008000
C -19.387800 -21.995600 -32.472600
H -19.289900 -22.905200 -32.162500
H -19.238600 -21.390100 -31.746300
N -19.202700 -26.504700 -32.294200
H -19.098800 -27.194900 -31.763300
H -18.863600 -21.430400 -36.804500
O -18.468300 -21.684600 -33.534300
C -18.385900 -25.041000 -34.063100
H -18.359600 -20.369500 -35.617500
C -18.272500 -22.666400 -34.506900
C -18.213900 -26.168700 -33.109600
C -18.081400 -21.036000 -36.224800
O -17.480700 -22.105300 -35.490100
C -17.459200 -23.857900 -33.918700
H -17.392300 -20.708300 -36.853300
C -17.092600 -25.000800 -34.846600
C -17.074700 -24.831300 -36.277900
N -17.044800 -24.761900 -37.413900
N -17.031700 -26.699100 -33.126600
C -16.649500 -23.589800 -32.757100
C -16.262600 -26.167300 -34.224400
O -16.127700 -27.067200 -35.277700
H -16.044100 -28.850200 -34.385800
N -16.005900 -23.317700 -31.856700
C -15.468500 -28.292000 -34.937900
H -15.263100 -28.707200 -35.742800
O -15.029000 -25.775700 -33.706300
H -14.645700 -28.100300 -34.379500
H -14.471300 -24.295300 -35.005900
C -14.140500 -25.203500 -34.664000
H -13.965000 -25.789500 -35.335000
H -13.284300 -24.924400 -34.209600
39
Fragment
H -16.570700 -31.867900 -34.209600
H -15.890000 -32.733000 -35.335000
C -15.714500 -32.147000 -34.664000
H -15.383700 -31.238800 -35.005900
H -15.209300 -35.043800 -34.379500
O -14.826000 -32.719200 -33.706300
H -14.591900 -35.650700 -35.742800
C -14.386500 -35.235500 -34.937900
N -13.849100 -30.261200 -31.856700
H -13.810900 -35.793700 -34.385800
O -13.727300 -34.010700 -35.277700
C -13.592400 -33.110800 -34.224400
C -13.205500 -30.533300 -32.757100
N -12.823300 -33.642600 -33.126600
N -12.810200 -31.705400 -37.413900
C -12.780300 -31.774800 -36.277900
C -12.762400 -31.944300 -34.846600
H -12.462700 -27.651800 -36.853300
C -12.395800 -30.801400 -33.918700
O -12.374300 -29.048800 -35.490100
C -11.773600 -27.979500 -36.224800
C -11.641100 -33.112200 -33.109600
C -11.582500 -29.609900 -34.506900
H -11.495400 -27.313000 -35.617500
C -11.469100 -31.984500 -34.063100
O -11.386700 -28.628100 -33.534300
H -10.991400 -28.373900 -36.804500
H -10.756200 -34.138400 -31.763300
N -10.652300 -33.448200 -32.294200
H -10.616400 -28.333600 -31.746300
H -10.565100 -29.848700 -32.162500
C -10.467200 -28.939100 -32.472600
N -10.338200 -30.161200 -35.008000
C -10.261800 -31.420700 -34.744700
H -9.896300 -33.035800 -32.355800
H -9.557200 -28.971100 -32.820800
H -9.379200 -33.156600 -34.961300
N -9.270600 -32.238700 -35.056900
H -8.636500 -31.954000 -35.477300
78
Fragment
H -21.218500 -25.010500 -35.477300
N -20.584400 -25.295200 -35.056900
H -20.475800 -26.213100 -34.961300
H -20.297800 -22.027600 -32.820800
H -19.958700 -26.092300 -32.355800
C -19.593200 -24.477200 -34.744700
N -19.516800 -23.217700 -35.008000
C -19.387800 -21.995600 -32.472600
H -19.289900 -22.905200 -32.162500
H -19.238600 -21.390100 -31.746300
N -19.202700 -26.504700 -32.294200
H -19.098800 -27.194900 -31.763300
H -18.863600 -21.430400 -36.804500
O -18.468300 -21.684600 -33.534300
C -18.385900 -25.041000 -34.063100
H -18.359600 -20.369500 -35.617500
C -18.272500 -22.666400 -34.506900
C -18.213900 -26.168700 -33.109600
C -18.081400 -21.036000 -36.224800
O -17.480700 -22.105300 -35.490100
C -17.459200 -23.857900 -33.918700
H -17.392300 -20.708300 -36.853300
C -17.092600 -25.000800 -34.846600
C -17.074700 -24.831300 -36.277900
N -17.044800 -24.761900 -37.413900
N -17.031700 -26.699100 -33.126600
C -16.649500 -23.589800 -32.757100
C -16.262600 -26.167300 -34.224400
O -16.127700 -27.067200 -35.277700
H -16.044100 -28.850200 -34.385800
N -16.005900 -23.317700 -31.856700
C -15.468500 -28.292000 -34.937900
H -15.263100 -28.707200 -35.742800
O -15.029000 -25.775700 -33.706300
H -14.645700 -28.100300 -34.379500
H -14.471300 -24.295300 -35.005900
C -14.140500 -25.203500 -34.664000
H -13.965000 -25.789500 -35.335000
H -13.284300 -24.924400 -34.209600
H -16.570700 -31.867900 -34.209600
H -15.890000 -32.733000 -35.335000
C -15.714500 -32.147000 -34.664000
H -15.383700 -31.238800 -35.005900
H -15.209300 -35.043800 -34.379500
O -14.826000 -32.719200 -33.706300
H -14.591900 -35.650700 -35.742800
C -14.386500 -35.235500 -34.937900
N -13.849100 -30.261200 -31.856700
H -13.810900 -35.793700 -34.385800
O -13.727300 -34.010700 -35.277700
C -13.592400 -33.110800 -34.224400
C -13.205500 -30.533300 -32.757100
N -12.823300 -33.642600 -33.126600
N -12.810200 -31.705400 -37.413900
C -12.780300 -31.774800 -36.277900
C -12.762400 -31.944300 -34.846600
H -12.462700 -27.651800 -36.853300
C -12.395800 -30.801400 -33.918700
O -12.374300 -29.048800 -35.490100
C -11.773600 -27.979500 -36.224800
C -11.641100 -33.112200 -33.109600
C -11.582500 -29.609900 -34.506900
H -11.495400 -27.313000 -35.617500
C -11.469100 -31.984500 -34.063100
O -11.386700 -28.628100 -33.534300
H -10.991400 -28.373900 -36.804500
H -10.756200 -34.138400 -31.763300
N -10.652300 -33.448200 -32.294200
H -10.616400 -28.333600 -31.746300
H -10.565100 -29.848700 -32.162500
C -10.467200 -28.939100 -32.472600
N -10.338200 -30.161200 -35.008000
C -10.261800 -31.420700 -34.744700
H -9.896300 -33.035800 -32.355800
H -9.557200 -28.971100 -32.820800
H -9.379200 -33.156600 -34.961300
N -9.270600 -32.238700 -35.056900
H -8.636500 -31.954000 -35.477300
