11
Fragment
N -8.750900 -13.810300 -19.996700
N -8.244400 -12.636900 -19.842900
N -7.826900 -14.685500 -20.502700
N -6.963100 -12.727100 -20.284600
C -6.715600 -13.979500 -20.681900
H -6.505500 -10.939600 -20.601300
N -6.047700 -11.682200 -20.308600
H -5.709900 -11.592500 -19.481000
N -5.541400 -14.383700 -21.220100
H -5.480000 -15.255200 -21.320200
H -4.853500 -13.967000 -20.882200
26
Fragment
O -5.536300 -13.939100 -17.882600
N -4.591400 -13.251400 -17.473600
O -4.494700 -12.034900 -17.730700
N -3.681900 -13.895800 -16.720500
H -2.629400 -15.329300 -14.827100
C -2.620800 -13.144800 -16.355700
H -2.528400 -11.343300 -17.179200
N -2.141300 -11.927300 -16.646700
N -1.832700 -18.109100 -15.216600
N -1.709800 -13.664400 -15.506200
C -1.706800 -14.972600 -14.866000
N -1.561800 -19.157400 -14.534600
H -1.366300 -14.892700 -13.940300
H -1.161800 -15.998600 -16.587000
N -0.966300 -11.733900 -15.992600
C -0.821300 -15.918700 -15.661200
N -0.818400 -17.226900 -15.021100
N -0.695400 -12.782200 -15.310600
N -0.386800 -18.964000 -13.880600
H 0.000200 -19.548000 -13.348000
C 0.092700 -17.746500 -14.171500
H 0.101300 -15.562000 -15.700200
N 1.153800 -16.995500 -13.806700
O 1.966600 -18.856400 -12.796600
N 2.063300 -17.639900 -13.053600
O 3.008200 -16.952200 -12.644700
37
Fragment
N -8.750900 -13.810300 -19.996700
N -8.244400 -12.636900 -19.842900
N -7.826900 -14.685500 -20.502700
N -6.963100 -12.727100 -20.284600
C -6.715600 -13.979500 -20.681900
H -6.505500 -10.939600 -20.601300
N -6.047700 -11.682200 -20.308600
H -5.709900 -11.592500 -19.481000
N -5.541400 -14.383700 -21.220100
H -5.480000 -15.255200 -21.320200
H -4.853500 -13.967000 -20.882200
O -5.536300 -13.939100 -17.882600
N -4.591400 -13.251400 -17.473600
O -4.494700 -12.034900 -17.730700
N -3.681900 -13.895800 -16.720500
H -2.629400 -15.329300 -14.827100
C -2.620800 -13.144800 -16.355700
H -2.528400 -11.343300 -17.179200
N -2.141300 -11.927300 -16.646700
N -1.832700 -18.109100 -15.216600
N -1.709800 -13.664400 -15.506200
C -1.706800 -14.972600 -14.866000
N -1.561800 -19.157400 -14.534600
H -1.366300 -14.892700 -13.940300
H -1.161800 -15.998600 -16.587000
N -0.966300 -11.733900 -15.992600
C -0.821300 -15.918700 -15.661200
N -0.818400 -17.226900 -15.021100
N -0.695400 -12.782200 -15.310600
N -0.386800 -18.964000 -13.880600
H 0.000200 -19.548000 -13.348000
C 0.092700 -17.746500 -14.171500
H 0.101300 -15.562000 -15.700200
N 1.153800 -16.995500 -13.806700
O 1.966600 -18.856400 -12.796600
N 2.063300 -17.639900 -13.053600
O 3.008200 -16.952200 -12.644700
