11
Fragment
N -8.750900 -13.810300 -19.996700
N -8.244400 -12.636900 -19.842900
N -7.826900 -14.685500 -20.502700
N -6.963100 -12.727100 -20.284600
C -6.715600 -13.979500 -20.681900
H -6.505500 -10.939600 -20.601300
N -6.047700 -11.682200 -20.308600
H -5.709900 -11.592500 -19.481000
N -5.541400 -14.383700 -21.220100
H -5.480000 -15.255200 -21.320200
H -4.853500 -13.967000 -20.882200
26
Fragment
O -13.722700 -22.100800 -25.514400
N -12.777800 -22.788400 -25.105500
O -12.681100 -24.004900 -25.362500
N -11.868300 -22.144000 -24.352400
H -10.815800 -20.710600 -22.458900
C -10.807200 -22.895100 -23.987600
H -10.714800 -24.696600 -24.811000
N -10.327700 -24.112500 -24.278500
N -10.019100 -17.930800 -22.848400
N -9.896200 -22.375500 -23.138000
C -9.893200 -21.067200 -22.497800
N -9.748200 -16.882400 -22.166500
H -9.552700 -21.147200 -21.572100
H -9.348200 -20.041200 -24.218800
N -9.152700 -24.306000 -23.624400
C -9.007700 -20.121200 -23.293100
N -9.004800 -18.812900 -22.652900
N -8.881900 -23.257600 -22.942500
N -8.573200 -17.075900 -21.512400
H -8.186200 -16.491800 -20.979900
C -8.093800 -18.293300 -21.803300
H -8.085100 -20.477800 -23.332000
N -7.032600 -19.044400 -21.438500
O -6.219800 -17.183500 -20.428400
N -6.123100 -18.400000 -20.685400
O -5.178200 -19.087600 -20.276500
37
Fragment
N -8.750900 -13.810300 -19.996700
N -8.244400 -12.636900 -19.842900
N -7.826900 -14.685500 -20.502700
N -6.963100 -12.727100 -20.284600
C -6.715600 -13.979500 -20.681900
H -6.505500 -10.939600 -20.601300
N -6.047700 -11.682200 -20.308600
H -5.709900 -11.592500 -19.481000
N -5.541400 -14.383700 -21.220100
H -5.480000 -15.255200 -21.320200
H -4.853500 -13.967000 -20.882200
O -13.722700 -22.100800 -25.514400
N -12.777800 -22.788400 -25.105500
O -12.681100 -24.004900 -25.362500
N -11.868300 -22.144000 -24.352400
H -10.815800 -20.710600 -22.458900
C -10.807200 -22.895100 -23.987600
H -10.714800 -24.696600 -24.811000
N -10.327700 -24.112500 -24.278500
N -10.019100 -17.930800 -22.848400
N -9.896200 -22.375500 -23.138000
C -9.893200 -21.067200 -22.497800
N -9.748200 -16.882400 -22.166500
H -9.552700 -21.147200 -21.572100
H -9.348200 -20.041200 -24.218800
N -9.152700 -24.306000 -23.624400
C -9.007700 -20.121200 -23.293100
N -9.004800 -18.812900 -22.652900
N -8.881900 -23.257600 -22.942500
N -8.573200 -17.075900 -21.512400
H -8.186200 -16.491800 -20.979900
C -8.093800 -18.293300 -21.803300
H -8.085100 -20.477800 -23.332000
N -7.032600 -19.044400 -21.438500
O -6.219800 -17.183500 -20.428400
N -6.123100 -18.400000 -20.685400
O -5.178200 -19.087600 -20.276500
