11
Fragment
N -8.750900 -13.810300 -19.996700
N -8.244400 -12.636900 -19.842900
N -7.826900 -14.685500 -20.502700
N -6.963100 -12.727100 -20.284600
C -6.715600 -13.979500 -20.681900
H -6.505500 -10.939600 -20.601300
N -6.047700 -11.682200 -20.308600
H -5.709900 -11.592500 -19.481000
N -5.541400 -14.383700 -21.220100
H -5.480000 -15.255200 -21.320200
H -4.853500 -13.967000 -20.882200
26
Fragment
O -7.679200 -11.803700 -25.514400
N -6.734300 -12.491300 -25.105500
O -6.637600 -13.707800 -25.362500
N -5.824800 -11.846900 -24.352400
H -4.772300 -10.413500 -22.458900
C -4.763700 -12.598000 -23.987600
H -4.671300 -14.399500 -24.811000
N -4.284200 -13.815400 -24.278500
N -3.975600 -7.633700 -22.848400
N -3.852700 -12.078400 -23.138000
C -3.849700 -10.770100 -22.497800
N -3.704700 -6.585300 -22.166500
H -3.509200 -10.850100 -21.572100
H -3.304700 -9.744100 -24.218800
N -3.109200 -14.008900 -23.624400
C -2.964200 -9.824100 -23.293100
N -2.961300 -8.515800 -22.652900
N -2.838400 -12.960500 -22.942500
N -2.529700 -6.778800 -21.512400
H -2.142700 -6.194700 -20.979900
C -2.050300 -7.996200 -21.803300
H -2.041600 -10.180700 -23.332000
N -0.989100 -8.747300 -21.438500
O -0.176300 -6.886400 -20.428400
N -0.079600 -8.102900 -20.685400
O 0.865300 -8.790500 -20.276500
37
Fragment
N -8.750900 -13.810300 -19.996700
N -8.244400 -12.636900 -19.842900
N -7.826900 -14.685500 -20.502700
N -6.963100 -12.727100 -20.284600
C -6.715600 -13.979500 -20.681900
H -6.505500 -10.939600 -20.601300
N -6.047700 -11.682200 -20.308600
H -5.709900 -11.592500 -19.481000
N -5.541400 -14.383700 -21.220100
H -5.480000 -15.255200 -21.320200
H -4.853500 -13.967000 -20.882200
O -7.679200 -11.803700 -25.514400
N -6.734300 -12.491300 -25.105500
O -6.637600 -13.707800 -25.362500
N -5.824800 -11.846900 -24.352400
H -4.772300 -10.413500 -22.458900
C -4.763700 -12.598000 -23.987600
H -4.671300 -14.399500 -24.811000
N -4.284200 -13.815400 -24.278500
N -3.975600 -7.633700 -22.848400
N -3.852700 -12.078400 -23.138000
C -3.849700 -10.770100 -22.497800
N -3.704700 -6.585300 -22.166500
H -3.509200 -10.850100 -21.572100
H -3.304700 -9.744100 -24.218800
N -3.109200 -14.008900 -23.624400
C -2.964200 -9.824100 -23.293100
N -2.961300 -8.515800 -22.652900
N -2.838400 -12.960500 -22.942500
N -2.529700 -6.778800 -21.512400
H -2.142700 -6.194700 -20.979900
C -2.050300 -7.996200 -21.803300
H -2.041600 -10.180700 -23.332000
N -0.989100 -8.747300 -21.438500
O -0.176300 -6.886400 -20.428400
N -0.079600 -8.102900 -20.685400
O 0.865300 -8.790500 -20.276500
