20
Fragment
H -4.296700 -18.347100 -25.671400
O -3.878300 -19.046900 -25.585700
O -3.359300 -18.629200 -27.700600
C -3.285300 -19.341500 -26.711900
H -2.738900 -20.962400 -24.700200
C -2.548100 -20.633800 -26.678800
C -2.386900 -21.318900 -25.483100
H -2.139800 -20.690300 -28.659000
C -2.033200 -21.151100 -27.857800
H -1.747500 -22.855500 -23.513600
C -1.704400 -22.534900 -25.439300
N -1.552700 -23.206700 -24.257600
C -1.359100 -22.361000 -27.832600
C -1.201500 -23.054300 -26.638600
H -1.070000 -23.958800 -24.250800
O -0.942700 -22.315900 -30.173800
C -0.816000 -22.885300 -29.120500
H -0.758400 -23.872300 -26.635900
O -0.161800 -24.023700 -28.998700
H 0.142100 -24.243400 -29.727800
24
Fragment
H -5.566400 -24.238400 -35.546500
H -5.043800 -23.942500 -36.995600
H -4.889800 -22.583400 -31.343600
N -4.827800 -23.119500 -33.282500
C -4.789900 -24.037100 -36.074100
C -4.587600 -22.365700 -32.195600
C -4.223500 -22.435600 -34.279200
N -4.191800 -22.790200 -35.603300
H -4.152600 -24.749900 -35.989100
N -3.865500 -21.265600 -32.463900
H -3.798800 -20.432000 -30.656900
C -3.632700 -21.292700 -33.825100
C -3.576400 -21.955800 -36.504200
H -3.572500 -19.404000 -31.818300
O -3.520800 -22.232100 -37.691600
C -3.373100 -20.289700 -31.504700
H -3.116800 -19.538100 -37.591500
N -3.027200 -20.776900 -36.017200
C -2.997000 -20.361800 -34.676400
O -2.499600 -19.289600 -34.342700
C -2.426500 -19.892700 -37.026100
H -2.423200 -20.388200 -31.407600
H -1.969700 -19.170800 -36.588300
H -1.802000 -20.391900 -37.557800
44
Fragment
H -4.296700 -18.347100 -25.671400
O -3.878300 -19.046900 -25.585700
O -3.359300 -18.629200 -27.700600
C -3.285300 -19.341500 -26.711900
H -2.738900 -20.962400 -24.700200
C -2.548100 -20.633800 -26.678800
C -2.386900 -21.318900 -25.483100
H -2.139800 -20.690300 -28.659000
C -2.033200 -21.151100 -27.857800
H -1.747500 -22.855500 -23.513600
C -1.704400 -22.534900 -25.439300
N -1.552700 -23.206700 -24.257600
C -1.359100 -22.361000 -27.832600
C -1.201500 -23.054300 -26.638600
H -1.070000 -23.958800 -24.250800
O -0.942700 -22.315900 -30.173800
C -0.816000 -22.885300 -29.120500
H -0.758400 -23.872300 -26.635900
O -0.161800 -24.023700 -28.998700
H 0.142100 -24.243400 -29.727800
H -5.566400 -24.238400 -35.546500
H -5.043800 -23.942500 -36.995600
H -4.889800 -22.583400 -31.343600
N -4.827800 -23.119500 -33.282500
C -4.789900 -24.037100 -36.074100
C -4.587600 -22.365700 -32.195600
C -4.223500 -22.435600 -34.279200
N -4.191800 -22.790200 -35.603300
H -4.152600 -24.749900 -35.989100
N -3.865500 -21.265600 -32.463900
H -3.798800 -20.432000 -30.656900
C -3.632700 -21.292700 -33.825100
C -3.576400 -21.955800 -36.504200
H -3.572500 -19.404000 -31.818300
O -3.520800 -22.232100 -37.691600
C -3.373100 -20.289700 -31.504700
H -3.116800 -19.538100 -37.591500
N -3.027200 -20.776900 -36.017200
C -2.997000 -20.361800 -34.676400
O -2.499600 -19.289600 -34.342700
C -2.426500 -19.892700 -37.026100
H -2.423200 -20.388200 -31.407600
H -1.969700 -19.170800 -36.588300
H -1.802000 -20.391900 -37.557800
