20
Fragment
H -4.296700 -18.347100 -25.671400
O -3.878300 -19.046900 -25.585700
O -3.359300 -18.629200 -27.700600
C -3.285300 -19.341500 -26.711900
H -2.738900 -20.962400 -24.700200
C -2.548100 -20.633800 -26.678800
C -2.386900 -21.318900 -25.483100
H -2.139800 -20.690300 -28.659000
C -2.033200 -21.151100 -27.857800
H -1.747500 -22.855500 -23.513600
C -1.704400 -22.534900 -25.439300
N -1.552700 -23.206700 -24.257600
C -1.359100 -22.361000 -27.832600
C -1.201500 -23.054300 -26.638600
H -1.070000 -23.958800 -24.250800
O -0.942700 -22.315900 -30.173800
C -0.816000 -22.885300 -29.120500
H -0.758400 -23.872300 -26.635900
O -0.161800 -24.023700 -28.998700
H 0.142100 -24.243400 -29.727800
20
Fragment
H -2.381800 -30.512000 -29.182500
O -2.077800 -30.292400 -29.911600
H -1.481300 -30.140900 -32.274400
C -1.423700 -29.154000 -29.789700
O -1.296900 -28.584500 -28.736400
H -1.169600 -30.227400 -34.659400
C -1.038100 -29.323000 -32.271700
C -0.880500 -28.629700 -31.077700
N -0.687000 -29.475300 -34.652700
C -0.535200 -28.803600 -33.471000
H -0.492100 -29.124100 -35.396700
C -0.206400 -27.419700 -31.052400
H -0.099900 -26.959000 -30.251300
C 0.147300 -27.587600 -33.427200
C 0.308500 -26.902400 -32.231500
H 0.499300 -27.231000 -34.210000
C 1.045700 -25.610200 -32.198300
O 1.119700 -24.897800 -31.209700
O 1.638700 -25.315600 -33.324500
H 2.057100 -24.615700 -33.238900
40
Fragment
H -4.296700 -18.347100 -25.671400
O -3.878300 -19.046900 -25.585700
O -3.359300 -18.629200 -27.700600
C -3.285300 -19.341500 -26.711900
H -2.738900 -20.962400 -24.700200
C -2.548100 -20.633800 -26.678800
C -2.386900 -21.318900 -25.483100
H -2.139800 -20.690300 -28.659000
C -2.033200 -21.151100 -27.857800
H -1.747500 -22.855500 -23.513600
C -1.704400 -22.534900 -25.439300
N -1.552700 -23.206700 -24.257600
C -1.359100 -22.361000 -27.832600
C -1.201500 -23.054300 -26.638600
H -1.070000 -23.958800 -24.250800
O -0.942700 -22.315900 -30.173800
C -0.816000 -22.885300 -29.120500
H -0.758400 -23.872300 -26.635900
O -0.161800 -24.023700 -28.998700
H 0.142100 -24.243400 -29.727800
H -2.381800 -30.512000 -29.182500
O -2.077800 -30.292400 -29.911600
H -1.481300 -30.140900 -32.274400
C -1.423700 -29.154000 -29.789700
O -1.296900 -28.584500 -28.736400
H -1.169600 -30.227400 -34.659400
C -1.038100 -29.323000 -32.271700
C -0.880500 -28.629700 -31.077700
N -0.687000 -29.475300 -34.652700
C -0.535200 -28.803600 -33.471000
H -0.492100 -29.124100 -35.396700
C -0.206400 -27.419700 -31.052400
H -0.099900 -26.959000 -30.251300
C 0.147300 -27.587600 -33.427200
C 0.308500 -26.902400 -32.231500
H 0.499300 -27.231000 -34.210000
C 1.045700 -25.610200 -32.198300
O 1.119700 -24.897800 -31.209700
O 1.638700 -25.315600 -33.324500
H 2.057100 -24.615700 -33.238900
