20
Fragment
H -4.296700 -18.347100 -25.671400
O -3.878300 -19.046900 -25.585700
O -3.359300 -18.629200 -27.700600
C -3.285300 -19.341500 -26.711900
H -2.738900 -20.962400 -24.700200
C -2.548100 -20.633800 -26.678800
C -2.386900 -21.318900 -25.483100
H -2.139800 -20.690300 -28.659000
C -2.033200 -21.151100 -27.857800
H -1.747500 -22.855500 -23.513600
C -1.704400 -22.534900 -25.439300
N -1.552700 -23.206700 -24.257600
C -1.359100 -22.361000 -27.832600
C -1.201500 -23.054300 -26.638600
H -1.070000 -23.958800 -24.250800
O -0.942700 -22.315900 -30.173800
C -0.816000 -22.885300 -29.120500
H -0.758400 -23.872300 -26.635900
O -0.161800 -24.023700 -28.998700
H 0.142100 -24.243400 -29.727800
20
Fragment
H -2.352600 -25.533500 -34.087200
O -1.934100 -24.833600 -34.001500
O -1.415100 -25.251400 -36.116400
C -1.341200 -24.539000 -35.127700
H -0.794700 -22.918200 -33.116000
C -0.603900 -23.246800 -35.094500
C -0.442700 -22.561600 -33.898800
H -0.195600 -23.190200 -37.074800
C -0.089100 -22.729500 -36.273600
H 0.196700 -21.025100 -31.929400
C 0.239800 -21.345600 -33.855100
N 0.391500 -20.673900 -32.673300
C 0.585000 -21.519500 -36.248300
C 0.742700 -20.826200 -35.054300
H 0.874100 -19.921800 -32.666600
O 1.001500 -21.564700 -38.589600
C 1.128200 -20.995200 -37.536300
H 1.185800 -20.008300 -35.051600
O 1.782400 -19.856800 -37.414400
H 2.086300 -19.637200 -38.143600
40
Fragment
H -4.296700 -18.347100 -25.671400
O -3.878300 -19.046900 -25.585700
O -3.359300 -18.629200 -27.700600
C -3.285300 -19.341500 -26.711900
H -2.738900 -20.962400 -24.700200
C -2.548100 -20.633800 -26.678800
C -2.386900 -21.318900 -25.483100
H -2.139800 -20.690300 -28.659000
C -2.033200 -21.151100 -27.857800
H -1.747500 -22.855500 -23.513600
C -1.704400 -22.534900 -25.439300
N -1.552700 -23.206700 -24.257600
C -1.359100 -22.361000 -27.832600
C -1.201500 -23.054300 -26.638600
H -1.070000 -23.958800 -24.250800
O -0.942700 -22.315900 -30.173800
C -0.816000 -22.885300 -29.120500
H -0.758400 -23.872300 -26.635900
O -0.161800 -24.023700 -28.998700
H 0.142100 -24.243400 -29.727800
H -2.352600 -25.533500 -34.087200
O -1.934100 -24.833600 -34.001500
O -1.415100 -25.251400 -36.116400
C -1.341200 -24.539000 -35.127700
H -0.794700 -22.918200 -33.116000
C -0.603900 -23.246800 -35.094500
C -0.442700 -22.561600 -33.898800
H -0.195600 -23.190200 -37.074800
C -0.089100 -22.729500 -36.273600
H 0.196700 -21.025100 -31.929400
C 0.239800 -21.345600 -33.855100
N 0.391500 -20.673900 -32.673300
C 0.585000 -21.519500 -36.248300
C 0.742700 -20.826200 -35.054300
H 0.874100 -19.921800 -32.666600
O 1.001500 -21.564700 -38.589600
C 1.128200 -20.995200 -37.536300
H 1.185800 -20.008300 -35.051600
O 1.782400 -19.856800 -37.414400
H 2.086300 -19.637200 -38.143600
