20
Fragment
O -33.688200 -7.681500 -21.061600
H -33.512400 -8.750900 -19.011300
C -32.717500 -8.281500 -20.648800
O -32.706300 -8.850700 -19.468700
H -32.298700 -7.871400 -23.193800
C -31.479200 -8.167800 -22.779300
C -31.472100 -8.457700 -21.428700
C -30.322200 -8.327400 -23.526100
C -30.309900 -8.920900 -20.817400
H -30.303700 -8.130100 -24.484900
H -30.288300 -9.127900 -19.895200
C -29.152200 -8.759100 -22.926400
C -29.150800 -9.068300 -21.555900
H -28.624300 -10.583900 -19.480900
H -28.093200 -9.113100 -19.181600
O -28.052600 -8.878800 -23.689000
O -27.962700 -9.523700 -21.071400
C -27.933600 -9.881800 -19.692800
H -27.373300 -9.120500 -23.235000
H -27.083400 -10.288300 -19.519200
20
Fragment
O -32.978400 -10.796000 -28.155300
H -32.802600 -9.726600 -26.105100
C -32.007700 -10.196000 -27.742600
O -31.996500 -9.626800 -26.562500
H -31.588900 -10.606100 -30.287600
C -30.769400 -10.309700 -29.873000
C -30.762300 -10.019800 -28.522500
C -29.612400 -10.150100 -30.619900
C -29.600100 -9.556600 -27.911200
H -29.593900 -10.347400 -31.578700
H -29.578500 -9.349600 -26.989000
C -28.442400 -9.718400 -30.020200
C -28.441000 -9.409200 -28.649600
H -27.914500 -7.893600 -26.574700
H -27.383400 -9.364400 -26.275300
O -27.342800 -9.598700 -30.782700
O -27.252900 -8.953800 -28.165100
C -27.223800 -8.595700 -26.786500
H -26.663500 -9.357000 -30.328700
H -26.373600 -8.189200 -26.613000
40
Fragment
O -33.688200 -7.681500 -21.061600
H -33.512400 -8.750900 -19.011300
C -32.717500 -8.281500 -20.648800
O -32.706300 -8.850700 -19.468700
H -32.298700 -7.871400 -23.193800
C -31.479200 -8.167800 -22.779300
C -31.472100 -8.457700 -21.428700
C -30.322200 -8.327400 -23.526100
C -30.309900 -8.920900 -20.817400
H -30.303700 -8.130100 -24.484900
H -30.288300 -9.127900 -19.895200
C -29.152200 -8.759100 -22.926400
C -29.150800 -9.068300 -21.555900
H -28.624300 -10.583900 -19.480900
H -28.093200 -9.113100 -19.181600
O -28.052600 -8.878800 -23.689000
O -27.962700 -9.523700 -21.071400
C -27.933600 -9.881800 -19.692800
H -27.373300 -9.120500 -23.235000
H -27.083400 -10.288300 -19.519200
O -32.978400 -10.796000 -28.155300
H -32.802600 -9.726600 -26.105100
C -32.007700 -10.196000 -27.742600
O -31.996500 -9.626800 -26.562500
H -31.588900 -10.606100 -30.287600
C -30.769400 -10.309700 -29.873000
C -30.762300 -10.019800 -28.522500
C -29.612400 -10.150100 -30.619900
C -29.600100 -9.556600 -27.911200
H -29.593900 -10.347400 -31.578700
H -29.578500 -9.349600 -26.989000
C -28.442400 -9.718400 -30.020200
C -28.441000 -9.409200 -28.649600
H -27.914500 -7.893600 -26.574700
H -27.383400 -9.364400 -26.275300
O -27.342800 -9.598700 -30.782700
O -27.252900 -8.953800 -28.165100
C -27.223800 -8.595700 -26.786500
H -26.663500 -9.357000 -30.328700
H -26.373600 -8.189200 -26.613000
