20
Fragment
O -33.688200 -7.681500 -21.061600
H -33.512400 -8.750900 -19.011300
C -32.717500 -8.281500 -20.648800
O -32.706300 -8.850700 -19.468700
H -32.298700 -7.871400 -23.193800
C -31.479200 -8.167800 -22.779300
C -31.472100 -8.457700 -21.428700
C -30.322200 -8.327400 -23.526100
C -30.309900 -8.920900 -20.817400
H -30.303700 -8.130100 -24.484900
H -30.288300 -9.127900 -19.895200
C -29.152200 -8.759100 -22.926400
C -29.150800 -9.068300 -21.555900
H -28.624300 -10.583900 -19.480900
H -28.093200 -9.113100 -19.181600
O -28.052600 -8.878800 -23.689000
O -27.962700 -9.523700 -21.071400
C -27.933600 -9.881800 -19.692800
H -27.373300 -9.120500 -23.235000
H -27.083400 -10.288300 -19.519200
34
Fragment
F -39.968800 -3.207000 -11.628500
H -39.733200 -5.728000 -11.711800
C -39.107300 -5.278700 -12.254600
C -39.099000 -3.920200 -12.388300
H -38.330600 -2.342900 -13.326400
C -38.274300 -3.267100 -13.255700
F -38.252400 -7.332600 -12.923000
C -38.211600 -5.978100 -13.032500
H -37.954300 -7.413200 -15.464400
H -37.595200 -6.230600 -16.424900
C -37.390600 -4.011200 -14.017700
C -37.318300 -5.394800 -13.916700
C -37.232300 -6.900500 -15.864100
H -36.828900 -3.599400 -14.616000
N -36.561700 -9.156200 -16.501500
N -36.478000 -7.813000 -16.709800
C -36.362800 -6.203300 -14.802000
H -36.083300 -7.834500 -13.442700
C -35.670600 -9.624600 -17.339600
C -35.559800 -7.558000 -17.633700
C -35.529300 -7.250900 -14.038200
H -35.510600 -10.569100 -17.440800
O -35.486800 -5.371800 -15.532800
H -35.344700 -6.651900 -17.948700
H -35.108400 -4.789400 -14.992000
H -35.036400 -7.804900 -14.664300
N -35.019400 -8.681100 -18.060600
N -34.806200 -6.233800 -11.927200
N -34.520800 -6.654300 -13.183800
C -33.637300 -5.815200 -11.510100
H -33.474900 -5.439800 -10.637800
C -33.224100 -6.471600 -13.423100
H -32.820500 -6.748000 -14.282600
N -32.624900 -5.936500 -12.392500
54
Fragment
O -33.688200 -7.681500 -21.061600
H -33.512400 -8.750900 -19.011300
C -32.717500 -8.281500 -20.648800
O -32.706300 -8.850700 -19.468700
H -32.298700 -7.871400 -23.193800
C -31.479200 -8.167800 -22.779300
C -31.472100 -8.457700 -21.428700
C -30.322200 -8.327400 -23.526100
C -30.309900 -8.920900 -20.817400
H -30.303700 -8.130100 -24.484900
H -30.288300 -9.127900 -19.895200
C -29.152200 -8.759100 -22.926400
C -29.150800 -9.068300 -21.555900
H -28.624300 -10.583900 -19.480900
H -28.093200 -9.113100 -19.181600
O -28.052600 -8.878800 -23.689000
O -27.962700 -9.523700 -21.071400
C -27.933600 -9.881800 -19.692800
H -27.373300 -9.120500 -23.235000
H -27.083400 -10.288300 -19.519200
F -39.968800 -3.207000 -11.628500
H -39.733200 -5.728000 -11.711800
C -39.107300 -5.278700 -12.254600
C -39.099000 -3.920200 -12.388300
H -38.330600 -2.342900 -13.326400
C -38.274300 -3.267100 -13.255700
F -38.252400 -7.332600 -12.923000
C -38.211600 -5.978100 -13.032500
H -37.954300 -7.413200 -15.464400
H -37.595200 -6.230600 -16.424900
C -37.390600 -4.011200 -14.017700
C -37.318300 -5.394800 -13.916700
C -37.232300 -6.900500 -15.864100
H -36.828900 -3.599400 -14.616000
N -36.561700 -9.156200 -16.501500
N -36.478000 -7.813000 -16.709800
C -36.362800 -6.203300 -14.802000
H -36.083300 -7.834500 -13.442700
C -35.670600 -9.624600 -17.339600
C -35.559800 -7.558000 -17.633700
C -35.529300 -7.250900 -14.038200
H -35.510600 -10.569100 -17.440800
O -35.486800 -5.371800 -15.532800
H -35.344700 -6.651900 -17.948700
H -35.108400 -4.789400 -14.992000
H -35.036400 -7.804900 -14.664300
N -35.019400 -8.681100 -18.060600
N -34.806200 -6.233800 -11.927200
N -34.520800 -6.654300 -13.183800
C -33.637300 -5.815200 -11.510100
H -33.474900 -5.439800 -10.637800
C -33.224100 -6.471600 -13.423100
H -32.820500 -6.748000 -14.282600
N -32.624900 -5.936500 -12.392500
