20
Fragment
O -33.688200 -7.681500 -21.061600
H -33.512400 -8.750900 -19.011300
C -32.717500 -8.281500 -20.648800
O -32.706300 -8.850700 -19.468700
H -32.298700 -7.871400 -23.193800
C -31.479200 -8.167800 -22.779300
C -31.472100 -8.457700 -21.428700
C -30.322200 -8.327400 -23.526100
C -30.309900 -8.920900 -20.817400
H -30.303700 -8.130100 -24.484900
H -30.288300 -9.127900 -19.895200
C -29.152200 -8.759100 -22.926400
C -29.150800 -9.068300 -21.555900
H -28.624300 -10.583900 -19.480900
H -28.093200 -9.113100 -19.181600
O -28.052600 -8.878800 -23.689000
O -27.962700 -9.523700 -21.071400
C -27.933600 -9.881800 -19.692800
H -27.373300 -9.120500 -23.235000
H -27.083400 -10.288300 -19.519200
20
Fragment
H -30.302100 -11.884700 -23.043400
H -30.012200 -13.052500 -19.327700
C -29.451900 -12.291200 -22.869900
O -29.422800 -12.649300 -21.491300
O -29.332900 -13.294200 -18.873700
H -29.292200 -13.059900 -23.381100
H -28.761200 -11.589100 -23.081700
C -28.234700 -13.104700 -21.006800
C -28.233300 -13.413900 -19.636300
H -27.097200 -13.045100 -22.667500
H -27.081800 -14.042900 -18.077800
C -27.075600 -13.252100 -21.745300
C -27.063300 -13.845600 -19.036600
C -25.913400 -13.715300 -21.133900
C -25.906300 -14.005200 -19.783400
H -25.086800 -14.301600 -19.368800
O -24.679100 -13.322300 -23.093900
C -24.668000 -13.891500 -21.913800
H -23.873100 -13.422100 -23.551300
O -23.697300 -14.491500 -21.501100
40
Fragment
O -33.688200 -7.681500 -21.061600
H -33.512400 -8.750900 -19.011300
C -32.717500 -8.281500 -20.648800
O -32.706300 -8.850700 -19.468700
H -32.298700 -7.871400 -23.193800
C -31.479200 -8.167800 -22.779300
C -31.472100 -8.457700 -21.428700
C -30.322200 -8.327400 -23.526100
C -30.309900 -8.920900 -20.817400
H -30.303700 -8.130100 -24.484900
H -30.288300 -9.127900 -19.895200
C -29.152200 -8.759100 -22.926400
C -29.150800 -9.068300 -21.555900
H -28.624300 -10.583900 -19.480900
H -28.093200 -9.113100 -19.181600
O -28.052600 -8.878800 -23.689000
O -27.962700 -9.523700 -21.071400
C -27.933600 -9.881800 -19.692800
H -27.373300 -9.120500 -23.235000
H -27.083400 -10.288300 -19.519200
H -30.302100 -11.884700 -23.043400
H -30.012200 -13.052500 -19.327700
C -29.451900 -12.291200 -22.869900
O -29.422800 -12.649300 -21.491300
O -29.332900 -13.294200 -18.873700
H -29.292200 -13.059900 -23.381100
H -28.761200 -11.589100 -23.081700
C -28.234700 -13.104700 -21.006800
C -28.233300 -13.413900 -19.636300
H -27.097200 -13.045100 -22.667500
H -27.081800 -14.042900 -18.077800
C -27.075600 -13.252100 -21.745300
C -27.063300 -13.845600 -19.036600
C -25.913400 -13.715300 -21.133900
C -25.906300 -14.005200 -19.783400
H -25.086800 -14.301600 -19.368800
O -24.679100 -13.322300 -23.093900
C -24.668000 -13.891500 -21.913800
H -23.873100 -13.422100 -23.551300
O -23.697300 -14.491500 -21.501100
