20
Fragment
O -33.688200 -7.681500 -21.061600
H -33.512400 -8.750900 -19.011300
C -32.717500 -8.281500 -20.648800
O -32.706300 -8.850700 -19.468700
H -32.298700 -7.871400 -23.193800
C -31.479200 -8.167800 -22.779300
C -31.472100 -8.457700 -21.428700
C -30.322200 -8.327400 -23.526100
C -30.309900 -8.920900 -20.817400
H -30.303700 -8.130100 -24.484900
H -30.288300 -9.127900 -19.895200
C -29.152200 -8.759100 -22.926400
C -29.150800 -9.068300 -21.555900
H -28.624300 -10.583900 -19.480900
H -28.093200 -9.113100 -19.181600
O -28.052600 -8.878800 -23.689000
O -27.962700 -9.523700 -21.071400
C -27.933600 -9.881800 -19.692800
H -27.373300 -9.120500 -23.235000
H -27.083400 -10.288300 -19.519200
34
Fragment
F -38.549200 -3.207000 -25.816100
H -38.313600 -5.728000 -25.899400
C -37.687600 -5.278700 -26.442200
C -37.679400 -3.920200 -26.575800
H -36.911000 -2.342900 -27.513900
C -36.854700 -3.267100 -27.443300
F -36.832700 -7.332600 -27.110600
C -36.792000 -5.978100 -27.220100
H -36.534700 -7.413200 -29.652000
H -36.175600 -6.230600 -30.612500
C -35.970900 -4.011200 -28.205300
C -35.898700 -5.394800 -28.104300
C -35.812700 -6.900500 -30.051700
H -35.409300 -3.599400 -28.803600
N -35.142100 -9.156200 -30.689100
N -35.058400 -7.813000 -30.897400
C -34.943100 -6.203300 -28.989600
H -34.663700 -7.834500 -27.630300
C -34.250900 -9.624600 -31.527200
C -34.140100 -7.558000 -31.821300
C -34.109700 -7.250900 -28.225700
H -34.091000 -10.569100 -31.628300
O -34.067200 -5.371800 -29.720400
H -33.925100 -6.651900 -32.136200
H -33.688800 -4.789400 -29.179500
H -33.616800 -7.804900 -28.851800
N -33.599800 -8.681100 -32.248200
N -33.386600 -6.233800 -26.114700
N -33.101200 -6.654300 -27.371300
C -32.217700 -5.815200 -25.697600
H -32.055300 -5.439800 -24.825400
C -31.804500 -6.471600 -27.610700
H -31.400800 -6.748000 -28.470200
N -31.205300 -5.936500 -26.580100
54
Fragment
O -33.688200 -7.681500 -21.061600
H -33.512400 -8.750900 -19.011300
C -32.717500 -8.281500 -20.648800
O -32.706300 -8.850700 -19.468700
H -32.298700 -7.871400 -23.193800
C -31.479200 -8.167800 -22.779300
C -31.472100 -8.457700 -21.428700
C -30.322200 -8.327400 -23.526100
C -30.309900 -8.920900 -20.817400
H -30.303700 -8.130100 -24.484900
H -30.288300 -9.127900 -19.895200
C -29.152200 -8.759100 -22.926400
C -29.150800 -9.068300 -21.555900
H -28.624300 -10.583900 -19.480900
H -28.093200 -9.113100 -19.181600
O -28.052600 -8.878800 -23.689000
O -27.962700 -9.523700 -21.071400
C -27.933600 -9.881800 -19.692800
H -27.373300 -9.120500 -23.235000
H -27.083400 -10.288300 -19.519200
F -38.549200 -3.207000 -25.816100
H -38.313600 -5.728000 -25.899400
C -37.687600 -5.278700 -26.442200
C -37.679400 -3.920200 -26.575800
H -36.911000 -2.342900 -27.513900
C -36.854700 -3.267100 -27.443300
F -36.832700 -7.332600 -27.110600
C -36.792000 -5.978100 -27.220100
H -36.534700 -7.413200 -29.652000
H -36.175600 -6.230600 -30.612500
C -35.970900 -4.011200 -28.205300
C -35.898700 -5.394800 -28.104300
C -35.812700 -6.900500 -30.051700
H -35.409300 -3.599400 -28.803600
N -35.142100 -9.156200 -30.689100
N -35.058400 -7.813000 -30.897400
C -34.943100 -6.203300 -28.989600
H -34.663700 -7.834500 -27.630300
C -34.250900 -9.624600 -31.527200
C -34.140100 -7.558000 -31.821300
C -34.109700 -7.250900 -28.225700
H -34.091000 -10.569100 -31.628300
O -34.067200 -5.371800 -29.720400
H -33.925100 -6.651900 -32.136200
H -33.688800 -4.789400 -29.179500
H -33.616800 -7.804900 -28.851800
N -33.599800 -8.681100 -32.248200
N -33.386600 -6.233800 -26.114700
N -33.101200 -6.654300 -27.371300
C -32.217700 -5.815200 -25.697600
H -32.055300 -5.439800 -24.825400
C -31.804500 -6.471600 -27.610700
H -31.400800 -6.748000 -28.470200
N -31.205300 -5.936500 -26.580100
