20
Fragment
O -33.688200 -7.681500 -21.061600
H -33.512400 -8.750900 -19.011300
C -32.717500 -8.281500 -20.648800
O -32.706300 -8.850700 -19.468700
H -32.298700 -7.871400 -23.193800
C -31.479200 -8.167800 -22.779300
C -31.472100 -8.457700 -21.428700
C -30.322200 -8.327400 -23.526100
C -30.309900 -8.920900 -20.817400
H -30.303700 -8.130100 -24.484900
H -30.288300 -9.127900 -19.895200
C -29.152200 -8.759100 -22.926400
C -29.150800 -9.068300 -21.555900
H -28.624300 -10.583900 -19.480900
H -28.093200 -9.113100 -19.181600
O -28.052600 -8.878800 -23.689000
O -27.962700 -9.523700 -21.071400
C -27.933600 -9.881800 -19.692800
H -27.373300 -9.120500 -23.235000
H -27.083400 -10.288300 -19.519200
34
Fragment
F -39.259000 -7.879500 -18.722300
H -39.023400 -5.358500 -18.805600
C -38.397500 -5.807800 -19.348400
C -38.389200 -7.166300 -19.482100
H -37.620800 -8.743600 -20.420100
C -37.564500 -7.819400 -20.349500
F -37.542600 -3.753900 -20.016800
C -37.501800 -5.108400 -20.126300
H -37.244500 -3.673300 -22.558200
H -36.885400 -4.855900 -23.518700
C -36.680800 -7.075300 -21.111500
C -36.608500 -5.691700 -21.010500
C -36.522500 -4.186000 -22.957900
H -36.119100 -7.487100 -21.709800
N -35.851900 -1.930300 -23.595300
N -35.768200 -3.273500 -23.803600
C -35.653000 -4.883200 -21.895800
H -35.373500 -3.252000 -20.536500
C -34.960800 -1.461900 -24.433400
C -34.850000 -3.528500 -24.727500
C -34.819500 -3.835600 -21.131900
H -34.800800 -0.517400 -24.534500
O -34.777000 -5.714700 -22.626600
H -34.634900 -4.434600 -25.042500
H -34.398600 -6.297100 -22.085800
H -34.326600 -3.281600 -21.758000
N -34.309600 -2.405400 -25.154400
N -34.096400 -4.852700 -19.021000
N -33.811000 -4.432200 -20.277600
C -32.927500 -5.271300 -18.603900
H -32.765100 -5.646700 -17.731600
C -32.514300 -4.614900 -20.516900
H -32.110700 -4.338500 -21.376400
N -31.915100 -5.150000 -19.486300
54
Fragment
O -33.688200 -7.681500 -21.061600
H -33.512400 -8.750900 -19.011300
C -32.717500 -8.281500 -20.648800
O -32.706300 -8.850700 -19.468700
H -32.298700 -7.871400 -23.193800
C -31.479200 -8.167800 -22.779300
C -31.472100 -8.457700 -21.428700
C -30.322200 -8.327400 -23.526100
C -30.309900 -8.920900 -20.817400
H -30.303700 -8.130100 -24.484900
H -30.288300 -9.127900 -19.895200
C -29.152200 -8.759100 -22.926400
C -29.150800 -9.068300 -21.555900
H -28.624300 -10.583900 -19.480900
H -28.093200 -9.113100 -19.181600
O -28.052600 -8.878800 -23.689000
O -27.962700 -9.523700 -21.071400
C -27.933600 -9.881800 -19.692800
H -27.373300 -9.120500 -23.235000
H -27.083400 -10.288300 -19.519200
F -39.259000 -7.879500 -18.722300
H -39.023400 -5.358500 -18.805600
C -38.397500 -5.807800 -19.348400
C -38.389200 -7.166300 -19.482100
H -37.620800 -8.743600 -20.420100
C -37.564500 -7.819400 -20.349500
F -37.542600 -3.753900 -20.016800
C -37.501800 -5.108400 -20.126300
H -37.244500 -3.673300 -22.558200
H -36.885400 -4.855900 -23.518700
C -36.680800 -7.075300 -21.111500
C -36.608500 -5.691700 -21.010500
C -36.522500 -4.186000 -22.957900
H -36.119100 -7.487100 -21.709800
N -35.851900 -1.930300 -23.595300
N -35.768200 -3.273500 -23.803600
C -35.653000 -4.883200 -21.895800
H -35.373500 -3.252000 -20.536500
C -34.960800 -1.461900 -24.433400
C -34.850000 -3.528500 -24.727500
C -34.819500 -3.835600 -21.131900
H -34.800800 -0.517400 -24.534500
O -34.777000 -5.714700 -22.626600
H -34.634900 -4.434600 -25.042500
H -34.398600 -6.297100 -22.085800
H -34.326600 -3.281600 -21.758000
N -34.309600 -2.405400 -25.154400
N -34.096400 -4.852700 -19.021000
N -33.811000 -4.432200 -20.277600
C -32.927500 -5.271300 -18.603900
H -32.765100 -5.646700 -17.731600
C -32.514300 -4.614900 -20.516900
H -32.110700 -4.338500 -21.376400
N -31.915100 -5.150000 -19.486300
