34
Fragment
H -5.753300 -6.814900 -18.732600
N -5.437900 -6.206000 -16.853900
C -5.228100 -6.846300 -17.982700
C -4.392300 -6.585700 -16.101100
H -4.293600 -8.877700 -19.352700
H -4.287500 -6.288200 -15.189100
N -4.120600 -7.560200 -17.915900
N -3.557900 -7.407200 -16.689300
C -3.549500 -8.464700 -18.902800
O -3.546100 -6.810500 -20.551700
H -3.233500 -6.458700 -21.276800
H -3.187800 -8.108100 -22.591800
H -3.019700 -9.120100 -18.400200
C -2.679200 -7.753300 -19.954600
C -2.620900 -8.803500 -22.285400
H -2.462600 -9.761900 -24.058500
C -2.216100 -8.816000 -20.956000
C -2.204400 -9.770800 -23.181700
H -1.880500 -6.282800 -18.787300
C -1.506100 -7.032000 -19.257800
C -1.399500 -10.775200 -22.735400
C -1.399300 -9.866500 -20.589900
H -1.169300 -4.701300 -20.707900
H -1.003700 -7.645000 -18.628900
F -0.994500 -11.735900 -23.607700
C -0.979700 -10.864700 -21.441600
F -0.973500 -9.938700 -19.310800
N -0.524100 -6.520900 -20.209700
C -0.511800 -5.372900 -20.873000
H -0.398400 -11.591900 -21.154100
N 0.511100 -5.322900 -21.707000
N 0.530900 -7.280700 -20.601400
C 1.108200 -6.512800 -21.493600
H 1.883600 -6.788700 -21.935900
34
Fragment
H -10.115100 -1.327200 -7.578900
N -9.799700 -0.718300 -5.700200
C -9.589900 -1.358500 -6.829100
C -8.754100 -1.097900 -4.947400
H -8.655400 -3.390000 -8.199100
H -8.649300 -0.800500 -4.035400
N -8.482300 -2.072500 -6.762300
N -7.919700 -1.919500 -5.535600
C -7.911300 -2.976900 -7.749100
O -7.907900 -1.322700 -9.398000
H -7.595300 -0.971000 -10.123100
H -7.549600 -2.620400 -11.438100
H -7.381500 -3.632300 -7.246500
C -7.041000 -2.265500 -8.800900
C -6.982700 -3.315700 -11.131700
H -6.824400 -4.274200 -12.904800
C -6.577900 -3.328300 -9.802300
C -6.566200 -4.283100 -12.028000
H -6.242300 -0.795000 -7.633600
C -5.867900 -1.544200 -8.104200
C -5.761200 -5.287400 -11.581800
C -5.761100 -4.378800 -9.436200
H -5.531100 0.786500 -9.554200
H -5.365500 -2.157200 -7.475200
F -5.356300 -6.248200 -12.454000
C -5.341500 -5.376900 -10.287900
F -5.335300 -4.450900 -8.157100
N -4.885900 -1.033100 -9.056000
C -4.873600 0.114800 -9.719300
H -4.760200 -6.104200 -10.000400
N -3.850700 0.164900 -10.553300
N -3.830900 -1.792900 -9.447700
C -3.253600 -1.025000 -10.339900
H -2.478100 -1.301000 -10.782300
68
Fragment
H -5.753300 -6.814900 -18.732600
N -5.437900 -6.206000 -16.853900
C -5.228100 -6.846300 -17.982700
C -4.392300 -6.585700 -16.101100
H -4.293600 -8.877700 -19.352700
H -4.287500 -6.288200 -15.189100
N -4.120600 -7.560200 -17.915900
N -3.557900 -7.407200 -16.689300
C -3.549500 -8.464700 -18.902800
O -3.546100 -6.810500 -20.551700
H -3.233500 -6.458700 -21.276800
H -3.187800 -8.108100 -22.591800
H -3.019700 -9.120100 -18.400200
C -2.679200 -7.753300 -19.954600
C -2.620900 -8.803500 -22.285400
H -2.462600 -9.761900 -24.058500
C -2.216100 -8.816000 -20.956000
C -2.204400 -9.770800 -23.181700
H -1.880500 -6.282800 -18.787300
C -1.506100 -7.032000 -19.257800
C -1.399500 -10.775200 -22.735400
C -1.399300 -9.866500 -20.589900
H -1.169300 -4.701300 -20.707900
H -1.003700 -7.645000 -18.628900
F -0.994500 -11.735900 -23.607700
C -0.979700 -10.864700 -21.441600
F -0.973500 -9.938700 -19.310800
N -0.524100 -6.520900 -20.209700
C -0.511800 -5.372900 -20.873000
H -0.398400 -11.591900 -21.154100
N 0.511100 -5.322900 -21.707000
N 0.530900 -7.280700 -20.601400
C 1.108200 -6.512800 -21.493600
H 1.883600 -6.788700 -21.935900
H -10.115100 -1.327200 -7.578900
N -9.799700 -0.718300 -5.700200
C -9.589900 -1.358500 -6.829100
C -8.754100 -1.097900 -4.947400
H -8.655400 -3.390000 -8.199100
H -8.649300 -0.800500 -4.035400
N -8.482300 -2.072500 -6.762300
N -7.919700 -1.919500 -5.535600
C -7.911300 -2.976900 -7.749100
O -7.907900 -1.322700 -9.398000
H -7.595300 -0.971000 -10.123100
H -7.549600 -2.620400 -11.438100
H -7.381500 -3.632300 -7.246500
C -7.041000 -2.265500 -8.800900
C -6.982700 -3.315700 -11.131700
H -6.824400 -4.274200 -12.904800
C -6.577900 -3.328300 -9.802300
C -6.566200 -4.283100 -12.028000
H -6.242300 -0.795000 -7.633600
C -5.867900 -1.544200 -8.104200
C -5.761200 -5.287400 -11.581800
C -5.761100 -4.378800 -9.436200
H -5.531100 0.786500 -9.554200
H -5.365500 -2.157200 -7.475200
F -5.356300 -6.248200 -12.454000
C -5.341500 -5.376900 -10.287900
F -5.335300 -4.450900 -8.157100
N -4.885900 -1.033100 -9.056000
C -4.873600 0.114800 -9.719300
H -4.760200 -6.104200 -10.000400
N -3.850700 0.164900 -10.553300
N -3.830900 -1.792900 -9.447700
C -3.253600 -1.025000 -10.339900
H -2.478100 -1.301000 -10.782300
