34
Fragment
H -5.753300 -6.814900 -18.732600
N -5.437900 -6.206000 -16.853900
C -5.228100 -6.846300 -17.982700
C -4.392300 -6.585700 -16.101100
H -4.293600 -8.877700 -19.352700
H -4.287500 -6.288200 -15.189100
N -4.120600 -7.560200 -17.915900
N -3.557900 -7.407200 -16.689300
C -3.549500 -8.464700 -18.902800
O -3.546100 -6.810500 -20.551700
H -3.233500 -6.458700 -21.276800
H -3.187800 -8.108100 -22.591800
H -3.019700 -9.120100 -18.400200
C -2.679200 -7.753300 -19.954600
C -2.620900 -8.803500 -22.285400
H -2.462600 -9.761900 -24.058500
C -2.216100 -8.816000 -20.956000
C -2.204400 -9.770800 -23.181700
H -1.880500 -6.282800 -18.787300
C -1.506100 -7.032000 -19.257800
C -1.399500 -10.775200 -22.735400
C -1.399300 -9.866500 -20.589900
H -1.169300 -4.701300 -20.707900
H -1.003700 -7.645000 -18.628900
F -0.994500 -11.735900 -23.607700
C -0.979700 -10.864700 -21.441600
F -0.973500 -9.938700 -19.310800
N -0.524100 -6.520900 -20.209700
C -0.511800 -5.372900 -20.873000
H -0.398400 -11.591900 -21.154100
N 0.511100 -5.322900 -21.707000
N 0.530900 -7.280700 -20.601400
C 1.108200 -6.512800 -21.493600
H 1.883600 -6.788700 -21.935900
16
Fragment
H -8.965000 -7.681700 -25.753800
O -8.340600 -7.201700 -25.401800
H -7.864400 -9.269800 -26.835800
C -7.135400 -7.748400 -25.722200
C -7.047400 -8.882200 -26.508300
H -6.050500 -6.369400 -24.732200
C -5.987900 -7.123400 -25.272100
C -5.811900 -9.389200 -26.847800
H -5.754100 -10.148500 -27.432500
C -4.755500 -7.633500 -25.616900
C -4.650600 -8.769200 -26.407200
H -3.959800 -7.216400 -25.289900
O -3.362300 -10.391900 -27.508300
C -3.324500 -9.305200 -26.768000
H -2.479100 -10.723900 -27.650000
O -2.279000 -8.801600 -26.409000
50
Fragment
H -5.753300 -6.814900 -18.732600
N -5.437900 -6.206000 -16.853900
C -5.228100 -6.846300 -17.982700
C -4.392300 -6.585700 -16.101100
H -4.293600 -8.877700 -19.352700
H -4.287500 -6.288200 -15.189100
N -4.120600 -7.560200 -17.915900
N -3.557900 -7.407200 -16.689300
C -3.549500 -8.464700 -18.902800
O -3.546100 -6.810500 -20.551700
H -3.233500 -6.458700 -21.276800
H -3.187800 -8.108100 -22.591800
H -3.019700 -9.120100 -18.400200
C -2.679200 -7.753300 -19.954600
C -2.620900 -8.803500 -22.285400
H -2.462600 -9.761900 -24.058500
C -2.216100 -8.816000 -20.956000
C -2.204400 -9.770800 -23.181700
H -1.880500 -6.282800 -18.787300
C -1.506100 -7.032000 -19.257800
C -1.399500 -10.775200 -22.735400
C -1.399300 -9.866500 -20.589900
H -1.169300 -4.701300 -20.707900
H -1.003700 -7.645000 -18.628900
F -0.994500 -11.735900 -23.607700
C -0.979700 -10.864700 -21.441600
F -0.973500 -9.938700 -19.310800
N -0.524100 -6.520900 -20.209700
C -0.511800 -5.372900 -20.873000
H -0.398400 -11.591900 -21.154100
N 0.511100 -5.322900 -21.707000
N 0.530900 -7.280700 -20.601400
C 1.108200 -6.512800 -21.493600
H 1.883600 -6.788700 -21.935900
H -8.965000 -7.681700 -25.753800
O -8.340600 -7.201700 -25.401800
H -7.864400 -9.269800 -26.835800
C -7.135400 -7.748400 -25.722200
C -7.047400 -8.882200 -26.508300
H -6.050500 -6.369400 -24.732200
C -5.987900 -7.123400 -25.272100
C -5.811900 -9.389200 -26.847800
H -5.754100 -10.148500 -27.432500
C -4.755500 -7.633500 -25.616900
C -4.650600 -8.769200 -26.407200
H -3.959800 -7.216400 -25.289900
O -3.362300 -10.391900 -27.508300
C -3.324500 -9.305200 -26.768000
H -2.479100 -10.723900 -27.650000
O -2.279000 -8.801600 -26.409000
