34
Fragment
H -5.753300 -6.814900 -18.732600
N -5.437900 -6.206000 -16.853900
C -5.228100 -6.846300 -17.982700
C -4.392300 -6.585700 -16.101100
H -4.293600 -8.877700 -19.352700
H -4.287500 -6.288200 -15.189100
N -4.120600 -7.560200 -17.915900
N -3.557900 -7.407200 -16.689300
C -3.549500 -8.464700 -18.902800
O -3.546100 -6.810500 -20.551700
H -3.233500 -6.458700 -21.276800
H -3.187800 -8.108100 -22.591800
H -3.019700 -9.120100 -18.400200
C -2.679200 -7.753300 -19.954600
C -2.620900 -8.803500 -22.285400
H -2.462600 -9.761900 -24.058500
C -2.216100 -8.816000 -20.956000
C -2.204400 -9.770800 -23.181700
H -1.880500 -6.282800 -18.787300
C -1.506100 -7.032000 -19.257800
C -1.399500 -10.775200 -22.735400
C -1.399300 -9.866500 -20.589900
H -1.169300 -4.701300 -20.707900
H -1.003700 -7.645000 -18.628900
F -0.994500 -11.735900 -23.607700
C -0.979700 -10.864700 -21.441600
F -0.973500 -9.938700 -19.310800
N -0.524100 -6.520900 -20.209700
C -0.511800 -5.372900 -20.873000
H -0.398400 -11.591900 -21.154100
N 0.511100 -5.322900 -21.707000
N 0.530900 -7.280700 -20.601400
C 1.108200 -6.512800 -21.493600
H 1.883600 -6.788700 -21.935900
34
Fragment
H -8.602700 -15.162300 -22.678800
C -7.827200 -15.438200 -23.121100
N -7.249900 -14.670300 -24.013300
N -7.230100 -16.628100 -22.907800
H -6.320600 -10.359100 -23.460600
C -6.207200 -16.578100 -23.741700
N -6.194900 -15.430200 -24.405000
F -5.745500 -12.012400 -25.303900
C -5.739400 -11.086300 -23.173100
F -5.724500 -10.215100 -21.007100
H -5.715300 -14.306000 -25.985800
H -5.549800 -17.249800 -23.906800
C -5.319800 -12.084500 -24.024800
C -5.319600 -11.175800 -21.879300
C -5.212900 -14.919100 -25.356900
H -4.838500 -15.668200 -25.827500
C -4.514600 -12.180200 -21.433000
C -4.503000 -13.135000 -23.658700
H -4.256500 -12.189100 -20.556200
C -4.098100 -13.147600 -22.329300
C -4.039800 -14.197700 -24.660100
H -3.699300 -12.831000 -26.214500
H -3.531200 -13.842900 -22.022900
H -3.485500 -15.492300 -23.338000
O -3.172900 -15.140600 -24.063100
C -3.169500 -13.486300 -25.711900
N -3.161100 -14.543800 -27.925500
N -2.598500 -14.390800 -26.698800
H -2.431500 -15.662800 -29.425600
H -2.425400 -13.073300 -25.262000
C -2.326800 -15.365300 -28.513600
C -1.491000 -15.104700 -26.632000
N -1.281200 -15.745000 -27.760800
H -0.965800 -15.136100 -25.882100
68
Fragment
H -5.753300 -6.814900 -18.732600
N -5.437900 -6.206000 -16.853900
C -5.228100 -6.846300 -17.982700
C -4.392300 -6.585700 -16.101100
H -4.293600 -8.877700 -19.352700
H -4.287500 -6.288200 -15.189100
N -4.120600 -7.560200 -17.915900
N -3.557900 -7.407200 -16.689300
C -3.549500 -8.464700 -18.902800
O -3.546100 -6.810500 -20.551700
H -3.233500 -6.458700 -21.276800
H -3.187800 -8.108100 -22.591800
H -3.019700 -9.120100 -18.400200
C -2.679200 -7.753300 -19.954600
C -2.620900 -8.803500 -22.285400
H -2.462600 -9.761900 -24.058500
C -2.216100 -8.816000 -20.956000
C -2.204400 -9.770800 -23.181700
H -1.880500 -6.282800 -18.787300
C -1.506100 -7.032000 -19.257800
C -1.399500 -10.775200 -22.735400
C -1.399300 -9.866500 -20.589900
H -1.169300 -4.701300 -20.707900
H -1.003700 -7.645000 -18.628900
F -0.994500 -11.735900 -23.607700
C -0.979700 -10.864700 -21.441600
F -0.973500 -9.938700 -19.310800
N -0.524100 -6.520900 -20.209700
C -0.511800 -5.372900 -20.873000
H -0.398400 -11.591900 -21.154100
N 0.511100 -5.322900 -21.707000
N 0.530900 -7.280700 -20.601400
C 1.108200 -6.512800 -21.493600
H 1.883600 -6.788700 -21.935900
H -8.602700 -15.162300 -22.678800
C -7.827200 -15.438200 -23.121100
N -7.249900 -14.670300 -24.013300
N -7.230100 -16.628100 -22.907800
H -6.320600 -10.359100 -23.460600
C -6.207200 -16.578100 -23.741700
N -6.194900 -15.430200 -24.405000
F -5.745500 -12.012400 -25.303900
C -5.739400 -11.086300 -23.173100
F -5.724500 -10.215100 -21.007100
H -5.715300 -14.306000 -25.985800
H -5.549800 -17.249800 -23.906800
C -5.319800 -12.084500 -24.024800
C -5.319600 -11.175800 -21.879300
C -5.212900 -14.919100 -25.356900
H -4.838500 -15.668200 -25.827500
C -4.514600 -12.180200 -21.433000
C -4.503000 -13.135000 -23.658700
H -4.256500 -12.189100 -20.556200
C -4.098100 -13.147600 -22.329300
C -4.039800 -14.197700 -24.660100
H -3.699300 -12.831000 -26.214500
H -3.531200 -13.842900 -22.022900
H -3.485500 -15.492300 -23.338000
O -3.172900 -15.140600 -24.063100
C -3.169500 -13.486300 -25.711900
N -3.161100 -14.543800 -27.925500
N -2.598500 -14.390800 -26.698800
H -2.431500 -15.662800 -29.425600
H -2.425400 -13.073300 -25.262000
C -2.326800 -15.365300 -28.513600
C -1.491000 -15.104700 -26.632000
N -1.281200 -15.745000 -27.760800
H -0.965800 -15.136100 -25.882100
