34
Fragment
H -5.753300 -6.814900 -18.732600
N -5.437900 -6.206000 -16.853900
C -5.228100 -6.846300 -17.982700
C -4.392300 -6.585700 -16.101100
H -4.293600 -8.877700 -19.352700
H -4.287500 -6.288200 -15.189100
N -4.120600 -7.560200 -17.915900
N -3.557900 -7.407200 -16.689300
C -3.549500 -8.464700 -18.902800
O -3.546100 -6.810500 -20.551700
H -3.233500 -6.458700 -21.276800
H -3.187800 -8.108100 -22.591800
H -3.019700 -9.120100 -18.400200
C -2.679200 -7.753300 -19.954600
C -2.620900 -8.803500 -22.285400
H -2.462600 -9.761900 -24.058500
C -2.216100 -8.816000 -20.956000
C -2.204400 -9.770800 -23.181700
H -1.880500 -6.282800 -18.787300
C -1.506100 -7.032000 -19.257800
C -1.399500 -10.775200 -22.735400
C -1.399300 -9.866500 -20.589900
H -1.169300 -4.701300 -20.707900
H -1.003700 -7.645000 -18.628900
F -0.994500 -11.735900 -23.607700
C -0.979700 -10.864700 -21.441600
F -0.973500 -9.938700 -19.310800
N -0.524100 -6.520900 -20.209700
C -0.511800 -5.372900 -20.873000
H -0.398400 -11.591900 -21.154100
N 0.511100 -5.322900 -21.707000
N 0.530900 -7.280700 -20.601400
C 1.108200 -6.512800 -21.493600
H 1.883600 -6.788700 -21.935900
34
Fragment
H -4.450200 -3.822600 -22.678800
C -3.674800 -4.098500 -23.121100
N -3.097500 -3.330600 -24.013300
N -3.077600 -5.288400 -22.907800
H -2.168200 0.980700 -23.460600
C -2.054700 -5.238300 -23.741700
N -2.042500 -4.090400 -24.405000
F -1.593000 -0.672600 -25.303900
C -1.586900 0.253400 -23.173100
F -1.572000 1.124600 -21.007100
H -1.562800 -2.966300 -25.985800
H -1.397300 -5.910000 -23.906800
C -1.167300 -0.744800 -24.024800
C -1.167100 0.163900 -21.879300
C -1.060400 -3.579300 -25.356900
H -0.686100 -4.328500 -25.827500
C -0.362100 -0.840400 -21.433000
C -0.350500 -1.795200 -23.658700
H -0.104000 -0.849400 -20.556200
C 0.054400 -1.807800 -22.329300
C 0.112600 -2.858000 -24.660100
H 0.453200 -1.491200 -26.214500
H 0.621300 -2.503100 -22.022900
H 0.666900 -4.152600 -23.338000
O 0.979600 -3.800800 -24.063100
C 0.983000 -2.146600 -25.711900
N 0.991300 -3.204100 -27.925500
N 1.554000 -3.051000 -26.698800
H 1.720900 -4.323100 -29.425600
H 1.727000 -1.733600 -25.262000
C 1.825700 -4.025600 -28.513600
C 2.661500 -3.765000 -26.632000
N 2.871300 -4.405200 -27.760800
H 3.186700 -3.796400 -25.882100
68
Fragment
H -5.753300 -6.814900 -18.732600
N -5.437900 -6.206000 -16.853900
C -5.228100 -6.846300 -17.982700
C -4.392300 -6.585700 -16.101100
H -4.293600 -8.877700 -19.352700
H -4.287500 -6.288200 -15.189100
N -4.120600 -7.560200 -17.915900
N -3.557900 -7.407200 -16.689300
C -3.549500 -8.464700 -18.902800
O -3.546100 -6.810500 -20.551700
H -3.233500 -6.458700 -21.276800
H -3.187800 -8.108100 -22.591800
H -3.019700 -9.120100 -18.400200
C -2.679200 -7.753300 -19.954600
C -2.620900 -8.803500 -22.285400
H -2.462600 -9.761900 -24.058500
C -2.216100 -8.816000 -20.956000
C -2.204400 -9.770800 -23.181700
H -1.880500 -6.282800 -18.787300
C -1.506100 -7.032000 -19.257800
C -1.399500 -10.775200 -22.735400
C -1.399300 -9.866500 -20.589900
H -1.169300 -4.701300 -20.707900
H -1.003700 -7.645000 -18.628900
F -0.994500 -11.735900 -23.607700
C -0.979700 -10.864700 -21.441600
F -0.973500 -9.938700 -19.310800
N -0.524100 -6.520900 -20.209700
C -0.511800 -5.372900 -20.873000
H -0.398400 -11.591900 -21.154100
N 0.511100 -5.322900 -21.707000
N 0.530900 -7.280700 -20.601400
C 1.108200 -6.512800 -21.493600
H 1.883600 -6.788700 -21.935900
H -4.450200 -3.822600 -22.678800
C -3.674800 -4.098500 -23.121100
N -3.097500 -3.330600 -24.013300
N -3.077600 -5.288400 -22.907800
H -2.168200 0.980700 -23.460600
C -2.054700 -5.238300 -23.741700
N -2.042500 -4.090400 -24.405000
F -1.593000 -0.672600 -25.303900
C -1.586900 0.253400 -23.173100
F -1.572000 1.124600 -21.007100
H -1.562800 -2.966300 -25.985800
H -1.397300 -5.910000 -23.906800
C -1.167300 -0.744800 -24.024800
C -1.167100 0.163900 -21.879300
C -1.060400 -3.579300 -25.356900
H -0.686100 -4.328500 -25.827500
C -0.362100 -0.840400 -21.433000
C -0.350500 -1.795200 -23.658700
H -0.104000 -0.849400 -20.556200
C 0.054400 -1.807800 -22.329300
C 0.112600 -2.858000 -24.660100
H 0.453200 -1.491200 -26.214500
H 0.621300 -2.503100 -22.022900
H 0.666900 -4.152600 -23.338000
O 0.979600 -3.800800 -24.063100
C 0.983000 -2.146600 -25.711900
N 0.991300 -3.204100 -27.925500
N 1.554000 -3.051000 -26.698800
H 1.720900 -4.323100 -29.425600
H 1.727000 -1.733600 -25.262000
C 1.825700 -4.025600 -28.513600
C 2.661500 -3.765000 -26.632000
N 2.871300 -4.405200 -27.760800
H 3.186700 -3.796400 -25.882100
