34
Fragment
H -5.753300 -6.814900 -18.732600
N -5.437900 -6.206000 -16.853900
C -5.228100 -6.846300 -17.982700
C -4.392300 -6.585700 -16.101100
H -4.293600 -8.877700 -19.352700
H -4.287500 -6.288200 -15.189100
N -4.120600 -7.560200 -17.915900
N -3.557900 -7.407200 -16.689300
C -3.549500 -8.464700 -18.902800
O -3.546100 -6.810500 -20.551700
H -3.233500 -6.458700 -21.276800
H -3.187800 -8.108100 -22.591800
H -3.019700 -9.120100 -18.400200
C -2.679200 -7.753300 -19.954600
C -2.620900 -8.803500 -22.285400
H -2.462600 -9.761900 -24.058500
C -2.216100 -8.816000 -20.956000
C -2.204400 -9.770800 -23.181700
H -1.880500 -6.282800 -18.787300
C -1.506100 -7.032000 -19.257800
C -1.399500 -10.775200 -22.735400
C -1.399300 -9.866500 -20.589900
H -1.169300 -4.701300 -20.707900
H -1.003700 -7.645000 -18.628900
F -0.994500 -11.735900 -23.607700
C -0.979700 -10.864700 -21.441600
F -0.973500 -9.938700 -19.310800
N -0.524100 -6.520900 -20.209700
C -0.511800 -5.372900 -20.873000
H -0.398400 -11.591900 -21.154100
N 0.511100 -5.322900 -21.707000
N 0.530900 -7.280700 -20.601400
C 1.108200 -6.512800 -21.493600
H 1.883600 -6.788700 -21.935900
16
Fragment
H -5.271400 -2.194000 -14.600200
O -4.647000 -1.713900 -14.248200
H -4.170800 -3.782000 -15.682100
C -3.441700 -2.260600 -14.568500
C -3.353800 -3.394500 -15.354600
H -2.356900 -0.881700 -13.578500
C -2.294300 -1.635600 -14.118400
C -2.118300 -3.901500 -15.694100
H -2.060500 -4.660800 -16.278800
C -1.061900 -2.145800 -14.463200
C -0.957000 -3.281500 -15.253500
H -0.266200 -1.728700 -14.136200
O 0.331300 -4.904100 -16.354600
C 0.369100 -3.817400 -15.614400
H 1.214600 -5.236100 -16.496300
O 1.414600 -3.313900 -15.255300
50
Fragment
H -5.753300 -6.814900 -18.732600
N -5.437900 -6.206000 -16.853900
C -5.228100 -6.846300 -17.982700
C -4.392300 -6.585700 -16.101100
H -4.293600 -8.877700 -19.352700
H -4.287500 -6.288200 -15.189100
N -4.120600 -7.560200 -17.915900
N -3.557900 -7.407200 -16.689300
C -3.549500 -8.464700 -18.902800
O -3.546100 -6.810500 -20.551700
H -3.233500 -6.458700 -21.276800
H -3.187800 -8.108100 -22.591800
H -3.019700 -9.120100 -18.400200
C -2.679200 -7.753300 -19.954600
C -2.620900 -8.803500 -22.285400
H -2.462600 -9.761900 -24.058500
C -2.216100 -8.816000 -20.956000
C -2.204400 -9.770800 -23.181700
H -1.880500 -6.282800 -18.787300
C -1.506100 -7.032000 -19.257800
C -1.399500 -10.775200 -22.735400
C -1.399300 -9.866500 -20.589900
H -1.169300 -4.701300 -20.707900
H -1.003700 -7.645000 -18.628900
F -0.994500 -11.735900 -23.607700
C -0.979700 -10.864700 -21.441600
F -0.973500 -9.938700 -19.310800
N -0.524100 -6.520900 -20.209700
C -0.511800 -5.372900 -20.873000
H -0.398400 -11.591900 -21.154100
N 0.511100 -5.322900 -21.707000
N 0.530900 -7.280700 -20.601400
C 1.108200 -6.512800 -21.493600
H 1.883600 -6.788700 -21.935900
H -5.271400 -2.194000 -14.600200
O -4.647000 -1.713900 -14.248200
H -4.170800 -3.782000 -15.682100
C -3.441700 -2.260600 -14.568500
C -3.353800 -3.394500 -15.354600
H -2.356900 -0.881700 -13.578500
C -2.294300 -1.635600 -14.118400
C -2.118300 -3.901500 -15.694100
H -2.060500 -4.660800 -16.278800
C -1.061900 -2.145800 -14.463200
C -0.957000 -3.281500 -15.253500
H -0.266200 -1.728700 -14.136200
O 0.331300 -4.904100 -16.354600
C 0.369100 -3.817400 -15.614400
H 1.214600 -5.236100 -16.496300
O 1.414600 -3.313900 -15.255300
