34
Fragment
H -5.753300 -6.814900 -18.732600
N -5.437900 -6.206000 -16.853900
C -5.228100 -6.846300 -17.982700
C -4.392300 -6.585700 -16.101100
H -4.293600 -8.877700 -19.352700
H -4.287500 -6.288200 -15.189100
N -4.120600 -7.560200 -17.915900
N -3.557900 -7.407200 -16.689300
C -3.549500 -8.464700 -18.902800
O -3.546100 -6.810500 -20.551700
H -3.233500 -6.458700 -21.276800
H -3.187800 -8.108100 -22.591800
H -3.019700 -9.120100 -18.400200
C -2.679200 -7.753300 -19.954600
C -2.620900 -8.803500 -22.285400
H -2.462600 -9.761900 -24.058500
C -2.216100 -8.816000 -20.956000
C -2.204400 -9.770800 -23.181700
H -1.880500 -6.282800 -18.787300
C -1.506100 -7.032000 -19.257800
C -1.399500 -10.775200 -22.735400
C -1.399300 -9.866500 -20.589900
H -1.169300 -4.701300 -20.707900
H -1.003700 -7.645000 -18.628900
F -0.994500 -11.735900 -23.607700
C -0.979700 -10.864700 -21.441600
F -0.973500 -9.938700 -19.310800
N -0.524100 -6.520900 -20.209700
C -0.511800 -5.372900 -20.873000
H -0.398400 -11.591900 -21.154100
N 0.511100 -5.322900 -21.707000
N 0.530900 -7.280700 -20.601400
C 1.108200 -6.512800 -21.493600
H 1.883600 -6.788700 -21.935900
34
Fragment
H -1.391500 -12.302700 -29.886300
N -1.076100 -11.693800 -28.007600
C -0.866300 -12.334000 -29.136400
C -0.030500 -12.073400 -27.254800
H 0.068200 -14.365500 -30.506400
H 0.074300 -11.776000 -26.342800
N 0.241200 -13.048000 -29.069600
N 0.803900 -12.895000 -27.842900
C 0.812300 -13.952400 -30.056500
O 0.815700 -12.298200 -31.705300
H 1.128300 -11.946500 -32.430400
H 1.174000 -13.595900 -33.745500
H 1.342100 -14.607800 -29.553900
C 1.682600 -13.241100 -31.108300
C 1.740900 -14.291200 -33.439100
H 1.899200 -15.249700 -35.212200
C 2.145700 -14.303800 -32.109700
C 2.157400 -15.258600 -34.335400
H 2.481300 -11.770500 -29.940900
C 2.855600 -12.519700 -30.411500
C 2.962300 -16.262900 -33.889100
C 2.962500 -15.354300 -31.743600
H 3.192500 -10.189000 -31.861600
H 3.358100 -13.132700 -29.782600
F 3.367300 -17.223700 -34.761300
C 3.382100 -16.352400 -32.595300
F 3.388300 -15.426400 -30.464500
N 3.837700 -12.008600 -31.363400
C 3.849900 -10.860700 -32.026700
H 3.963400 -17.079700 -32.307700
N 4.872900 -10.810600 -32.860600
N 4.892700 -12.768500 -31.755100
C 5.470000 -12.000500 -32.647300
H 6.245400 -12.276500 -33.089600
68
Fragment
H -5.753300 -6.814900 -18.732600
N -5.437900 -6.206000 -16.853900
C -5.228100 -6.846300 -17.982700
C -4.392300 -6.585700 -16.101100
H -4.293600 -8.877700 -19.352700
H -4.287500 -6.288200 -15.189100
N -4.120600 -7.560200 -17.915900
N -3.557900 -7.407200 -16.689300
C -3.549500 -8.464700 -18.902800
O -3.546100 -6.810500 -20.551700
H -3.233500 -6.458700 -21.276800
H -3.187800 -8.108100 -22.591800
H -3.019700 -9.120100 -18.400200
C -2.679200 -7.753300 -19.954600
C -2.620900 -8.803500 -22.285400
H -2.462600 -9.761900 -24.058500
C -2.216100 -8.816000 -20.956000
C -2.204400 -9.770800 -23.181700
H -1.880500 -6.282800 -18.787300
C -1.506100 -7.032000 -19.257800
C -1.399500 -10.775200 -22.735400
C -1.399300 -9.866500 -20.589900
H -1.169300 -4.701300 -20.707900
H -1.003700 -7.645000 -18.628900
F -0.994500 -11.735900 -23.607700
C -0.979700 -10.864700 -21.441600
F -0.973500 -9.938700 -19.310800
N -0.524100 -6.520900 -20.209700
C -0.511800 -5.372900 -20.873000
H -0.398400 -11.591900 -21.154100
N 0.511100 -5.322900 -21.707000
N 0.530900 -7.280700 -20.601400
C 1.108200 -6.512800 -21.493600
H 1.883600 -6.788700 -21.935900
H -1.391500 -12.302700 -29.886300
N -1.076100 -11.693800 -28.007600
C -0.866300 -12.334000 -29.136400
C -0.030500 -12.073400 -27.254800
H 0.068200 -14.365500 -30.506400
H 0.074300 -11.776000 -26.342800
N 0.241200 -13.048000 -29.069600
N 0.803900 -12.895000 -27.842900
C 0.812300 -13.952400 -30.056500
O 0.815700 -12.298200 -31.705300
H 1.128300 -11.946500 -32.430400
H 1.174000 -13.595900 -33.745500
H 1.342100 -14.607800 -29.553900
C 1.682600 -13.241100 -31.108300
C 1.740900 -14.291200 -33.439100
H 1.899200 -15.249700 -35.212200
C 2.145700 -14.303800 -32.109700
C 2.157400 -15.258600 -34.335400
H 2.481300 -11.770500 -29.940900
C 2.855600 -12.519700 -30.411500
C 2.962300 -16.262900 -33.889100
C 2.962500 -15.354300 -31.743600
H 3.192500 -10.189000 -31.861600
H 3.358100 -13.132700 -29.782600
F 3.367300 -17.223700 -34.761300
C 3.382100 -16.352400 -32.595300
F 3.388300 -15.426400 -30.464500
N 3.837700 -12.008600 -31.363400
C 3.849900 -10.860700 -32.026700
H 3.963400 -17.079700 -32.307700
N 4.872900 -10.810600 -32.860600
N 4.892700 -12.768500 -31.755100
C 5.470000 -12.000500 -32.647300
H 6.245400 -12.276500 -33.089600
