22
Fragment
H -5.795900 -9.140800 -15.846800
H -5.447100 -6.801400 -15.880000
C -5.442900 -8.712600 -15.068900
H -5.329100 -10.410700 -13.987300
C -5.236300 -7.359500 -15.067300
C -5.166800 -9.468000 -13.934200
C -4.762400 -6.723100 -13.915900
H -4.709600 -4.755200 -14.651400
C -4.691500 -8.875300 -12.793600
C -4.547900 -5.297000 -13.861100
C -4.502400 -7.489900 -12.768700
H -4.460600 -9.338900 -12.011700
H -4.158800 -3.062300 -10.199500
N -4.157600 -4.618100 -12.837400
C -4.057400 -6.758000 -11.621500
N -3.929300 -5.398600 -11.720500
N -3.749100 -7.127600 -10.400400
C -3.530300 -4.949600 -10.494200
N -3.413500 -5.983100 -9.698800
C -3.318700 -3.525100 -10.170500
H -2.941100 -3.449500 -9.291400
H -2.717400 -3.137100 -10.811300
22
Fragment
H -4.990900 -17.025100 -15.846800
H -4.642000 -14.685700 -15.880000
C -4.637900 -16.596900 -15.068900
H -4.524000 -18.295000 -13.987300
C -4.431200 -15.243800 -15.067300
C -4.361800 -17.352400 -13.934200
C -3.957400 -14.607400 -13.915900
H -3.904600 -12.639500 -14.651400
C -3.886500 -16.759600 -12.793600
C -3.742900 -13.181300 -13.861100
C -3.697400 -15.374200 -12.768700
H -3.655500 -17.223200 -12.011700
H -3.353700 -10.946600 -10.199500
N -3.352600 -12.502400 -12.837400
C -3.252400 -14.642300 -11.621500
N -3.124200 -13.282900 -11.720500
N -2.944100 -15.011900 -10.400400
C -2.725300 -12.833900 -10.494200
N -2.608500 -13.867500 -9.698800
C -2.513700 -11.409400 -10.170500
H -2.136100 -11.333800 -9.291400
H -1.912400 -11.021400 -10.811300
44
Fragment
H -5.795900 -9.140800 -15.846800
H -5.447100 -6.801400 -15.880000
C -5.442900 -8.712600 -15.068900
H -5.329100 -10.410700 -13.987300
C -5.236300 -7.359500 -15.067300
C -5.166800 -9.468000 -13.934200
C -4.762400 -6.723100 -13.915900
H -4.709600 -4.755200 -14.651400
C -4.691500 -8.875300 -12.793600
C -4.547900 -5.297000 -13.861100
C -4.502400 -7.489900 -12.768700
H -4.460600 -9.338900 -12.011700
H -4.158800 -3.062300 -10.199500
N -4.157600 -4.618100 -12.837400
C -4.057400 -6.758000 -11.621500
N -3.929300 -5.398600 -11.720500
N -3.749100 -7.127600 -10.400400
C -3.530300 -4.949600 -10.494200
N -3.413500 -5.983100 -9.698800
C -3.318700 -3.525100 -10.170500
H -2.941100 -3.449500 -9.291400
H -2.717400 -3.137100 -10.811300
H -4.990900 -17.025100 -15.846800
H -4.642000 -14.685700 -15.880000
C -4.637900 -16.596900 -15.068900
H -4.524000 -18.295000 -13.987300
C -4.431200 -15.243800 -15.067300
C -4.361800 -17.352400 -13.934200
C -3.957400 -14.607400 -13.915900
H -3.904600 -12.639500 -14.651400
C -3.886500 -16.759600 -12.793600
C -3.742900 -13.181300 -13.861100
C -3.697400 -15.374200 -12.768700
H -3.655500 -17.223200 -12.011700
H -3.353700 -10.946600 -10.199500
N -3.352600 -12.502400 -12.837400
C -3.252400 -14.642300 -11.621500
N -3.124200 -13.282900 -11.720500
N -2.944100 -15.011900 -10.400400
C -2.725300 -12.833900 -10.494200
N -2.608500 -13.867500 -9.698800
C -2.513700 -11.409400 -10.170500
H -2.136100 -11.333800 -9.291400
H -1.912400 -11.021400 -10.811300
