22
Fragment
H -5.795900 -9.140800 -15.846800
H -5.447100 -6.801400 -15.880000
C -5.442900 -8.712600 -15.068900
H -5.329100 -10.410700 -13.987300
C -5.236300 -7.359500 -15.067300
C -5.166800 -9.468000 -13.934200
C -4.762400 -6.723100 -13.915900
H -4.709600 -4.755200 -14.651400
C -4.691500 -8.875300 -12.793600
C -4.547900 -5.297000 -13.861100
C -4.502400 -7.489900 -12.768700
H -4.460600 -9.338900 -12.011700
H -4.158800 -3.062300 -10.199500
N -4.157600 -4.618100 -12.837400
C -4.057400 -6.758000 -11.621500
N -3.929300 -5.398600 -11.720500
N -3.749100 -7.127600 -10.400400
C -3.530300 -4.949600 -10.494200
N -3.413500 -5.983100 -9.698800
C -3.318700 -3.525100 -10.170500
H -2.941100 -3.449500 -9.291400
H -2.717400 -3.137100 -10.811300
22
Fragment
H -9.610400 -10.372800 -14.091900
H -9.386700 -10.060400 -15.611800
C -9.009100 -9.984800 -14.732800
N -8.914300 -7.526800 -15.204400
C -8.797500 -8.560300 -14.409000
N -8.578700 -6.382300 -14.502800
N -8.398500 -8.111300 -13.182700
C -8.270400 -6.751900 -13.281700
N -8.170200 -8.891800 -12.065900
H -8.169000 -10.447700 -14.703700
H -7.867200 -4.171100 -12.891600
C -7.825400 -6.020000 -12.134500
C -7.779900 -8.212900 -11.042100
C -7.636300 -4.634600 -12.109600
H -7.618200 -8.754700 -10.251800
C -7.565400 -6.786900 -10.987300
C -7.161000 -4.041900 -10.969000
C -7.091500 -6.150400 -9.835900
H -6.998800 -3.099300 -10.915900
C -6.884900 -4.797400 -9.834300
H -6.880700 -6.708500 -9.023300
H -6.531900 -4.369100 -9.056500
44
Fragment
H -5.795900 -9.140800 -15.846800
H -5.447100 -6.801400 -15.880000
C -5.442900 -8.712600 -15.068900
H -5.329100 -10.410700 -13.987300
C -5.236300 -7.359500 -15.067300
C -5.166800 -9.468000 -13.934200
C -4.762400 -6.723100 -13.915900
H -4.709600 -4.755200 -14.651400
C -4.691500 -8.875300 -12.793600
C -4.547900 -5.297000 -13.861100
C -4.502400 -7.489900 -12.768700
H -4.460600 -9.338900 -12.011700
H -4.158800 -3.062300 -10.199500
N -4.157600 -4.618100 -12.837400
C -4.057400 -6.758000 -11.621500
N -3.929300 -5.398600 -11.720500
N -3.749100 -7.127600 -10.400400
C -3.530300 -4.949600 -10.494200
N -3.413500 -5.983100 -9.698800
C -3.318700 -3.525100 -10.170500
H -2.941100 -3.449500 -9.291400
H -2.717400 -3.137100 -10.811300
H -9.610400 -10.372800 -14.091900
H -9.386700 -10.060400 -15.611800
C -9.009100 -9.984800 -14.732800
N -8.914300 -7.526800 -15.204400
C -8.797500 -8.560300 -14.409000
N -8.578700 -6.382300 -14.502800
N -8.398500 -8.111300 -13.182700
C -8.270400 -6.751900 -13.281700
N -8.170200 -8.891800 -12.065900
H -8.169000 -10.447700 -14.703700
H -7.867200 -4.171100 -12.891600
C -7.825400 -6.020000 -12.134500
C -7.779900 -8.212900 -11.042100
C -7.636300 -4.634600 -12.109600
H -7.618200 -8.754700 -10.251800
C -7.565400 -6.786900 -10.987300
C -7.161000 -4.041900 -10.969000
C -7.091500 -6.150400 -9.835900
H -6.998800 -3.099300 -10.915900
C -6.884900 -4.797400 -9.834300
H -6.880700 -6.708500 -9.023300
H -6.531900 -4.369100 -9.056500
