22
Fragment
H -5.795900 -9.140800 -15.846800
H -5.447100 -6.801400 -15.880000
C -5.442900 -8.712600 -15.068900
H -5.329100 -10.410700 -13.987300
C -5.236300 -7.359500 -15.067300
C -5.166800 -9.468000 -13.934200
C -4.762400 -6.723100 -13.915900
H -4.709600 -4.755200 -14.651400
C -4.691500 -8.875300 -12.793600
C -4.547900 -5.297000 -13.861100
C -4.502400 -7.489900 -12.768700
H -4.460600 -9.338900 -12.011700
H -4.158800 -3.062300 -10.199500
N -4.157600 -4.618100 -12.837400
C -4.057400 -6.758000 -11.621500
N -3.929300 -5.398600 -11.720500
N -3.749100 -7.127600 -10.400400
C -3.530300 -4.949600 -10.494200
N -3.413500 -5.983100 -9.698800
C -3.318700 -3.525100 -10.170500
H -2.941100 -3.449500 -9.291400
H -2.717400 -3.137100 -10.811300
22
Fragment
H -5.501100 -5.869500 -5.790800
H -5.277400 -5.557100 -7.310800
C -4.899800 -5.481500 -6.431700
N -4.805000 -3.023500 -6.903300
C -4.688200 -4.057000 -6.107900
N -4.469400 -1.879000 -6.201700
N -4.289300 -3.608000 -4.881600
C -4.161100 -2.248600 -4.980600
N -4.060900 -4.388500 -3.764800
H -4.059800 -5.944300 -6.402600
H -3.758000 0.332300 -4.590500
C -3.716100 -1.516700 -3.833400
C -3.670700 -3.709600 -2.741000
C -3.527000 -0.131300 -3.808500
H -3.508900 -4.251400 -1.950800
C -3.456100 -2.283500 -2.686200
C -3.051700 0.461400 -2.668000
C -2.982300 -1.647100 -1.534900
H -2.889500 1.404000 -2.614800
C -2.775600 -0.294100 -1.533200
H -2.771500 -2.205200 -0.722200
H -2.422600 0.134200 -0.755400
44
Fragment
H -5.795900 -9.140800 -15.846800
H -5.447100 -6.801400 -15.880000
C -5.442900 -8.712600 -15.068900
H -5.329100 -10.410700 -13.987300
C -5.236300 -7.359500 -15.067300
C -5.166800 -9.468000 -13.934200
C -4.762400 -6.723100 -13.915900
H -4.709600 -4.755200 -14.651400
C -4.691500 -8.875300 -12.793600
C -4.547900 -5.297000 -13.861100
C -4.502400 -7.489900 -12.768700
H -4.460600 -9.338900 -12.011700
H -4.158800 -3.062300 -10.199500
N -4.157600 -4.618100 -12.837400
C -4.057400 -6.758000 -11.621500
N -3.929300 -5.398600 -11.720500
N -3.749100 -7.127600 -10.400400
C -3.530300 -4.949600 -10.494200
N -3.413500 -5.983100 -9.698800
C -3.318700 -3.525100 -10.170500
H -2.941100 -3.449500 -9.291400
H -2.717400 -3.137100 -10.811300
H -5.501100 -5.869500 -5.790800
H -5.277400 -5.557100 -7.310800
C -4.899800 -5.481500 -6.431700
N -4.805000 -3.023500 -6.903300
C -4.688200 -4.057000 -6.107900
N -4.469400 -1.879000 -6.201700
N -4.289300 -3.608000 -4.881600
C -4.161100 -2.248600 -4.980600
N -4.060900 -4.388500 -3.764800
H -4.059800 -5.944300 -6.402600
H -3.758000 0.332300 -4.590500
C -3.716100 -1.516700 -3.833400
C -3.670700 -3.709600 -2.741000
C -3.527000 -0.131300 -3.808500
H -3.508900 -4.251400 -1.950800
C -3.456100 -2.283500 -2.686200
C -3.051700 0.461400 -2.668000
C -2.982300 -1.647100 -1.534900
H -2.889500 1.404000 -2.614800
C -2.775600 -0.294100 -1.533200
H -2.771500 -2.205200 -0.722200
H -2.422600 0.134200 -0.755400
