22
Fragment
H -5.795900 -9.140800 -15.846800
H -5.447100 -6.801400 -15.880000
C -5.442900 -8.712600 -15.068900
H -5.329100 -10.410700 -13.987300
C -5.236300 -7.359500 -15.067300
C -5.166800 -9.468000 -13.934200
C -4.762400 -6.723100 -13.915900
H -4.709600 -4.755200 -14.651400
C -4.691500 -8.875300 -12.793600
C -4.547900 -5.297000 -13.861100
C -4.502400 -7.489900 -12.768700
H -4.460600 -9.338900 -12.011700
H -4.158800 -3.062300 -10.199500
N -4.157600 -4.618100 -12.837400
C -4.057400 -6.758000 -11.621500
N -3.929300 -5.398600 -11.720500
N -3.749100 -7.127600 -10.400400
C -3.530300 -4.949600 -10.494200
N -3.413500 -5.983100 -9.698800
C -3.318700 -3.525100 -10.170500
H -2.941100 -3.449500 -9.291400
H -2.717400 -3.137100 -10.811300
22
Fragment
H -9.905200 -13.644100 -24.147800
H -9.556300 -11.304700 -24.181000
C -9.552200 -13.215900 -23.370000
H -9.438300 -14.914000 -22.288400
C -9.345500 -11.862800 -23.368400
C -9.276100 -13.971400 -22.235300
C -8.871700 -11.226400 -22.217000
H -8.818900 -9.258500 -22.952500
C -8.800800 -13.378600 -21.094700
C -8.657200 -9.800300 -22.162200
C -8.611700 -11.993200 -21.069800
H -8.569800 -13.842200 -20.312700
H -8.268000 -7.565600 -18.500600
N -8.266900 -9.121400 -21.138400
C -8.166700 -11.261300 -19.922600
N -8.038500 -9.901900 -20.021600
N -7.858400 -11.630900 -18.701500
C -7.639600 -9.452900 -18.795300
N -7.522800 -10.486500 -17.999900
C -7.428000 -8.028400 -18.471600
H -7.050400 -7.952800 -17.592500
H -6.826700 -7.640400 -19.112400
44
Fragment
H -5.795900 -9.140800 -15.846800
H -5.447100 -6.801400 -15.880000
C -5.442900 -8.712600 -15.068900
H -5.329100 -10.410700 -13.987300
C -5.236300 -7.359500 -15.067300
C -5.166800 -9.468000 -13.934200
C -4.762400 -6.723100 -13.915900
H -4.709600 -4.755200 -14.651400
C -4.691500 -8.875300 -12.793600
C -4.547900 -5.297000 -13.861100
C -4.502400 -7.489900 -12.768700
H -4.460600 -9.338900 -12.011700
H -4.158800 -3.062300 -10.199500
N -4.157600 -4.618100 -12.837400
C -4.057400 -6.758000 -11.621500
N -3.929300 -5.398600 -11.720500
N -3.749100 -7.127600 -10.400400
C -3.530300 -4.949600 -10.494200
N -3.413500 -5.983100 -9.698800
C -3.318700 -3.525100 -10.170500
H -2.941100 -3.449500 -9.291400
H -2.717400 -3.137100 -10.811300
H -9.905200 -13.644100 -24.147800
H -9.556300 -11.304700 -24.181000
C -9.552200 -13.215900 -23.370000
H -9.438300 -14.914000 -22.288400
C -9.345500 -11.862800 -23.368400
C -9.276100 -13.971400 -22.235300
C -8.871700 -11.226400 -22.217000
H -8.818900 -9.258500 -22.952500
C -8.800800 -13.378600 -21.094700
C -8.657200 -9.800300 -22.162200
C -8.611700 -11.993200 -21.069800
H -8.569800 -13.842200 -20.312700
H -8.268000 -7.565600 -18.500600
N -8.266900 -9.121400 -21.138400
C -8.166700 -11.261300 -19.922600
N -8.038500 -9.901900 -20.021600
N -7.858400 -11.630900 -18.701500
C -7.639600 -9.452900 -18.795300
N -7.522800 -10.486500 -17.999900
C -7.428000 -8.028400 -18.471600
H -7.050400 -7.952800 -17.592500
H -6.826700 -7.640400 -19.112400
