16
Fragment
H -7.911200 -5.223300 -18.762300
H -7.874700 -7.479200 -19.247200
C -7.770900 -5.842200 -18.081800
C -7.753600 -7.187500 -18.372200
N -7.678900 -9.997400 -18.910100
N -7.618100 -11.322600 -18.772200
N -7.586100 -5.422800 -16.831100
C -7.556600 -8.102600 -17.352300
C -7.545800 -9.539200 -17.663900
N -7.458500 -11.644000 -17.509200
N -7.412800 -10.527700 -16.773900
H -7.393900 -12.444900 -17.203600
C -7.391000 -6.281300 -15.822800
C -7.371200 -7.632000 -16.054400
H -7.268100 -5.958600 -14.959400
H -7.236500 -8.227500 -15.352300
21
Fragment
H -7.234800 -6.971600 -12.832200
O -6.578800 -7.455700 -12.920100
O -5.906100 -6.340200 -11.123900
C -5.712000 -7.189800 -11.979900
O -4.881400 -8.097700 -8.836300
H -4.628100 -8.520900 -13.981200
C -4.474400 -8.010400 -12.029400
C -4.112400 -7.530400 -9.568000
C -4.103500 -8.627200 -13.220300
H -3.824700 -6.069300 -8.623300
C -3.682400 -8.148000 -10.881400
O -3.560400 -6.361800 -9.342200
C -2.957600 -9.397000 -13.275300
H -2.698300 -9.788200 -14.078000
C -2.544500 -8.965900 -10.939900
C -2.199300 -9.584000 -12.139400
O -1.843900 -8.496800 -8.719000
C -1.736700 -9.187300 -9.698800
H -1.447200 -10.129300 -12.174100
O -0.914300 -10.215600 -9.746200
H -0.515600 -10.279700 -9.033000
37
Fragment
H -7.911200 -5.223300 -18.762300
H -7.874700 -7.479200 -19.247200
C -7.770900 -5.842200 -18.081800
C -7.753600 -7.187500 -18.372200
N -7.678900 -9.997400 -18.910100
N -7.618100 -11.322600 -18.772200
N -7.586100 -5.422800 -16.831100
C -7.556600 -8.102600 -17.352300
C -7.545800 -9.539200 -17.663900
N -7.458500 -11.644000 -17.509200
N -7.412800 -10.527700 -16.773900
H -7.393900 -12.444900 -17.203600
C -7.391000 -6.281300 -15.822800
C -7.371200 -7.632000 -16.054400
H -7.268100 -5.958600 -14.959400
H -7.236500 -8.227500 -15.352300
H -7.234800 -6.971600 -12.832200
O -6.578800 -7.455700 -12.920100
O -5.906100 -6.340200 -11.123900
C -5.712000 -7.189800 -11.979900
O -4.881400 -8.097700 -8.836300
H -4.628100 -8.520900 -13.981200
C -4.474400 -8.010400 -12.029400
C -4.112400 -7.530400 -9.568000
C -4.103500 -8.627200 -13.220300
H -3.824700 -6.069300 -8.623300
C -3.682400 -8.148000 -10.881400
O -3.560400 -6.361800 -9.342200
C -2.957600 -9.397000 -13.275300
H -2.698300 -9.788200 -14.078000
C -2.544500 -8.965900 -10.939900
C -2.199300 -9.584000 -12.139400
O -1.843900 -8.496800 -8.719000
C -1.736700 -9.187300 -9.698800
H -1.447200 -10.129300 -12.174100
O -0.914300 -10.215600 -9.746200
H -0.515600 -10.279700 -9.033000
