16
Fragment
H -7.911200 -5.223300 -18.762300
H -7.874700 -7.479200 -19.247200
C -7.770900 -5.842200 -18.081800
C -7.753600 -7.187500 -18.372200
N -7.678900 -9.997400 -18.910100
N -7.618100 -11.322600 -18.772200
N -7.586100 -5.422800 -16.831100
C -7.556600 -8.102600 -17.352300
C -7.545800 -9.539200 -17.663900
N -7.458500 -11.644000 -17.509200
N -7.412800 -10.527700 -16.773900
H -7.393900 -12.444900 -17.203600
C -7.391000 -6.281300 -15.822800
C -7.371200 -7.632000 -16.054400
H -7.268100 -5.958600 -14.959400
H -7.236500 -8.227500 -15.352300
21
Fragment
H -11.527200 -3.998100 -24.775900
O -10.871200 -4.482200 -24.863800
O -10.198500 -3.366700 -23.067600
C -10.004300 -4.216300 -23.923600
O -9.173800 -5.124200 -20.779900
H -8.920500 -5.547500 -25.924800
C -8.766800 -5.036900 -23.973000
C -8.404800 -4.557000 -21.511700
C -8.395900 -5.653800 -25.163900
H -8.117000 -3.095900 -20.566900
C -7.974800 -5.174500 -22.825000
O -7.852800 -3.388300 -21.285800
C -7.249900 -6.423500 -25.219000
H -6.990700 -6.814700 -26.021600
C -6.836900 -5.992400 -22.883500
C -6.491600 -6.610600 -24.083000
O -6.136300 -5.523400 -20.662600
C -6.029100 -6.213800 -21.642500
H -5.739500 -7.155900 -24.117800
O -5.206700 -7.242100 -21.689900
H -4.808000 -7.306200 -20.976600
37
Fragment
H -7.911200 -5.223300 -18.762300
H -7.874700 -7.479200 -19.247200
C -7.770900 -5.842200 -18.081800
C -7.753600 -7.187500 -18.372200
N -7.678900 -9.997400 -18.910100
N -7.618100 -11.322600 -18.772200
N -7.586100 -5.422800 -16.831100
C -7.556600 -8.102600 -17.352300
C -7.545800 -9.539200 -17.663900
N -7.458500 -11.644000 -17.509200
N -7.412800 -10.527700 -16.773900
H -7.393900 -12.444900 -17.203600
C -7.391000 -6.281300 -15.822800
C -7.371200 -7.632000 -16.054400
H -7.268100 -5.958600 -14.959400
H -7.236500 -8.227500 -15.352300
H -11.527200 -3.998100 -24.775900
O -10.871200 -4.482200 -24.863800
O -10.198500 -3.366700 -23.067600
C -10.004300 -4.216300 -23.923600
O -9.173800 -5.124200 -20.779900
H -8.920500 -5.547500 -25.924800
C -8.766800 -5.036900 -23.973000
C -8.404800 -4.557000 -21.511700
C -8.395900 -5.653800 -25.163900
H -8.117000 -3.095900 -20.566900
C -7.974800 -5.174500 -22.825000
O -7.852800 -3.388300 -21.285800
C -7.249900 -6.423500 -25.219000
H -6.990700 -6.814700 -26.021600
C -6.836900 -5.992400 -22.883500
C -6.491600 -6.610600 -24.083000
O -6.136300 -5.523400 -20.662600
C -6.029100 -6.213800 -21.642500
H -5.739500 -7.155900 -24.117800
O -5.206700 -7.242100 -21.689900
H -4.808000 -7.306200 -20.976600
