16
Fragment
H -7.911200 -5.223300 -18.762300
H -7.874700 -7.479200 -19.247200
C -7.770900 -5.842200 -18.081800
C -7.753600 -7.187500 -18.372200
N -7.678900 -9.997400 -18.910100
N -7.618100 -11.322600 -18.772200
N -7.586100 -5.422800 -16.831100
C -7.556600 -8.102600 -17.352300
C -7.545800 -9.539200 -17.663900
N -7.458500 -11.644000 -17.509200
N -7.412800 -10.527700 -16.773900
H -7.393900 -12.444900 -17.203600
C -7.391000 -6.281300 -15.822800
C -7.371200 -7.632000 -16.054400
H -7.268100 -5.958600 -14.959400
H -7.236500 -8.227500 -15.352300
16
Fragment
H -11.241600 -9.962300 -20.478600
H -11.210000 -12.231200 -20.871500
C -11.106900 -10.557700 -19.776500
C -11.087100 -11.908500 -20.008100
H -11.084200 -5.744900 -18.627300
N -11.065300 -7.662000 -19.057000
N -11.019700 -6.545800 -18.321700
C -10.932300 -8.650500 -18.167000
C -10.921500 -10.087200 -18.478600
N -10.892000 -12.767000 -18.999800
N -10.860000 -6.867200 -17.058700
N -10.799200 -8.192300 -16.920800
C -10.724500 -11.002300 -17.458700
C -10.707200 -12.347600 -17.749100
H -10.603400 -10.710500 -16.583700
H -10.566900 -12.966500 -17.068600
32
Fragment
H -7.911200 -5.223300 -18.762300
H -7.874700 -7.479200 -19.247200
C -7.770900 -5.842200 -18.081800
C -7.753600 -7.187500 -18.372200
N -7.678900 -9.997400 -18.910100
N -7.618100 -11.322600 -18.772200
N -7.586100 -5.422800 -16.831100
C -7.556600 -8.102600 -17.352300
C -7.545800 -9.539200 -17.663900
N -7.458500 -11.644000 -17.509200
N -7.412800 -10.527700 -16.773900
H -7.393900 -12.444900 -17.203600
C -7.391000 -6.281300 -15.822800
C -7.371200 -7.632000 -16.054400
H -7.268100 -5.958600 -14.959400
H -7.236500 -8.227500 -15.352300
H -11.241600 -9.962300 -20.478600
H -11.210000 -12.231200 -20.871500
C -11.106900 -10.557700 -19.776500
C -11.087100 -11.908500 -20.008100
H -11.084200 -5.744900 -18.627300
N -11.065300 -7.662000 -19.057000
N -11.019700 -6.545800 -18.321700
C -10.932300 -8.650500 -18.167000
C -10.921500 -10.087200 -18.478600
N -10.892000 -12.767000 -18.999800
N -10.860000 -6.867200 -17.058700
N -10.799200 -8.192300 -16.920800
C -10.724500 -11.002300 -17.458700
C -10.707200 -12.347600 -17.749100
H -10.603400 -10.710500 -16.583700
H -10.566900 -12.966500 -17.068600
