16
Fragment
H -7.911200 -5.223300 -18.762300
H -7.874700 -7.479200 -19.247200
C -7.770900 -5.842200 -18.081800
C -7.753600 -7.187500 -18.372200
N -7.678900 -9.997400 -18.910100
N -7.618100 -11.322600 -18.772200
N -7.586100 -5.422800 -16.831100
C -7.556600 -8.102600 -17.352300
C -7.545800 -9.539200 -17.663900
N -7.458500 -11.644000 -17.509200
N -7.412800 -10.527700 -16.773900
H -7.393900 -12.444900 -17.203600
C -7.391000 -6.281300 -15.822800
C -7.371200 -7.632000 -16.054400
H -7.268100 -5.958600 -14.959400
H -7.236500 -8.227500 -15.352300
16
Fragment
H -7.538800 -14.260000 -18.762300
H -7.502200 -16.516000 -19.247200
C -7.398500 -14.878900 -18.081800
C -7.381200 -16.224200 -18.372200
N -7.306500 -19.034200 -18.910100
N -7.245700 -20.359300 -18.772200
N -7.213700 -14.459500 -16.831100
C -7.184200 -17.139300 -17.352300
C -7.173400 -18.575900 -17.663900
N -7.086000 -20.680700 -17.509200
N -7.040400 -19.564500 -16.773900
H -7.021500 -21.481600 -17.203600
C -7.018600 -15.318000 -15.822800
C -6.998800 -16.668800 -16.054400
H -6.895600 -14.995300 -14.959400
H -6.864100 -17.264200 -15.352300
32
Fragment
H -7.911200 -5.223300 -18.762300
H -7.874700 -7.479200 -19.247200
C -7.770900 -5.842200 -18.081800
C -7.753600 -7.187500 -18.372200
N -7.678900 -9.997400 -18.910100
N -7.618100 -11.322600 -18.772200
N -7.586100 -5.422800 -16.831100
C -7.556600 -8.102600 -17.352300
C -7.545800 -9.539200 -17.663900
N -7.458500 -11.644000 -17.509200
N -7.412800 -10.527700 -16.773900
H -7.393900 -12.444900 -17.203600
C -7.391000 -6.281300 -15.822800
C -7.371200 -7.632000 -16.054400
H -7.268100 -5.958600 -14.959400
H -7.236500 -8.227500 -15.352300
H -7.538800 -14.260000 -18.762300
H -7.502200 -16.516000 -19.247200
C -7.398500 -14.878900 -18.081800
C -7.381200 -16.224200 -18.372200
N -7.306500 -19.034200 -18.910100
N -7.245700 -20.359300 -18.772200
N -7.213700 -14.459500 -16.831100
C -7.184200 -17.139300 -17.352300
C -7.173400 -18.575900 -17.663900
N -7.086000 -20.680700 -17.509200
N -7.040400 -19.564500 -16.773900
H -7.021500 -21.481600 -17.203600
C -7.018600 -15.318000 -15.822800
C -6.998800 -16.668800 -16.054400
H -6.895600 -14.995300 -14.959400
H -6.864100 -17.264200 -15.352300
