16
Fragment
H -7.911200 -5.223300 -18.762300
H -7.874700 -7.479200 -19.247200
C -7.770900 -5.842200 -18.081800
C -7.753600 -7.187500 -18.372200
N -7.678900 -9.997400 -18.910100
N -7.618100 -11.322600 -18.772200
N -7.586100 -5.422800 -16.831100
C -7.556600 -8.102600 -17.352300
C -7.545800 -9.539200 -17.663900
N -7.458500 -11.644000 -17.509200
N -7.412800 -10.527700 -16.773900
H -7.393900 -12.444900 -17.203600
C -7.391000 -6.281300 -15.822800
C -7.371200 -7.632000 -16.054400
H -7.268100 -5.958600 -14.959400
H -7.236500 -8.227500 -15.352300
21
Fragment
H -6.951800 -10.883600 -14.854300
O -6.553200 -10.947600 -14.141000
H -6.020300 -11.033900 -11.713100
C -5.730700 -11.976000 -14.188400
O -5.623500 -12.666400 -15.168300
C -5.268200 -11.579200 -11.747900
C -4.922900 -12.197400 -12.947400
H -4.769100 -11.375000 -9.809300
C -4.509900 -11.766200 -10.611900
O -3.907000 -14.801400 -14.545100
C -3.785000 -13.015300 -13.005900
H -3.642800 -15.093900 -15.264000
C -3.363900 -12.536000 -10.667000
C -3.355000 -13.632800 -14.319200
C -2.993000 -13.152900 -11.857900
H -2.839300 -12.642300 -9.906000
O -2.586000 -13.065600 -15.051000
C -1.755500 -13.973500 -11.907300
O -1.561300 -14.823100 -12.763300
O -0.888600 -13.707500 -10.967100
H -0.232700 -14.191600 -11.055000
37
Fragment
H -7.911200 -5.223300 -18.762300
H -7.874700 -7.479200 -19.247200
C -7.770900 -5.842200 -18.081800
C -7.753600 -7.187500 -18.372200
N -7.678900 -9.997400 -18.910100
N -7.618100 -11.322600 -18.772200
N -7.586100 -5.422800 -16.831100
C -7.556600 -8.102600 -17.352300
C -7.545800 -9.539200 -17.663900
N -7.458500 -11.644000 -17.509200
N -7.412800 -10.527700 -16.773900
H -7.393900 -12.444900 -17.203600
C -7.391000 -6.281300 -15.822800
C -7.371200 -7.632000 -16.054400
H -7.268100 -5.958600 -14.959400
H -7.236500 -8.227500 -15.352300
H -6.951800 -10.883600 -14.854300
O -6.553200 -10.947600 -14.141000
H -6.020300 -11.033900 -11.713100
C -5.730700 -11.976000 -14.188400
O -5.623500 -12.666400 -15.168300
C -5.268200 -11.579200 -11.747900
C -4.922900 -12.197400 -12.947400
H -4.769100 -11.375000 -9.809300
C -4.509900 -11.766200 -10.611900
O -3.907000 -14.801400 -14.545100
C -3.785000 -13.015300 -13.005900
H -3.642800 -15.093900 -15.264000
C -3.363900 -12.536000 -10.667000
C -3.355000 -13.632800 -14.319200
C -2.993000 -13.152900 -11.857900
H -2.839300 -12.642300 -9.906000
O -2.586000 -13.065600 -15.051000
C -1.755500 -13.973500 -11.907300
O -1.561300 -14.823100 -12.763300
O -0.888600 -13.707500 -10.967100
H -0.232700 -14.191600 -11.055000
