13
Fragment
H -28.735200 -15.950600 -21.511100
H -28.671400 -13.511000 -21.437700
N -28.121800 -15.982800 -22.141700
C -28.032700 -13.585900 -22.135700
H -27.852100 -16.760600 -22.453700
H -27.766800 -11.634200 -22.434300
C -27.600700 -14.857300 -22.622000
C -27.489900 -12.499200 -22.713600
N -26.662400 -14.965300 -23.588800
N -26.552100 -12.616700 -23.692200
H -26.210600 -11.886200 -24.045400
C -26.123500 -13.829300 -24.142900
O -25.251700 -13.896700 -25.034400
22
Fragment
H -35.429200 -15.123500 -21.201000
H -34.908200 -16.620400 -19.542800
H -34.679800 -13.384100 -22.846800
C -34.519300 -15.288400 -20.986600
C -34.209100 -16.181800 -20.014400
C -33.777900 -13.604800 -22.649100
C -33.485300 -14.593000 -21.692500
H -33.182900 -17.819800 -18.167000
H -32.932500 -12.292600 -23.943000
C -32.852600 -16.473600 -19.686600
C -32.755000 -12.962500 -23.293100
C -32.504100 -17.389700 -18.674200
C -32.126700 -14.881000 -21.425500
C -31.790600 -15.864400 -20.414500
C -31.435500 -13.319600 -22.967300
C -31.184300 -17.660700 -18.421600
N -31.107500 -14.250900 -22.079400
H -30.932900 -18.259400 -17.728200
H -30.730300 -12.863900 -23.412900
N -30.481700 -16.150500 -20.181600
C -30.208300 -17.025900 -19.218900
H -29.295500 -17.237200 -19.057000
35
Fragment
H -28.735200 -15.950600 -21.511100
H -28.671400 -13.511000 -21.437700
N -28.121800 -15.982800 -22.141700
C -28.032700 -13.585900 -22.135700
H -27.852100 -16.760600 -22.453700
H -27.766800 -11.634200 -22.434300
C -27.600700 -14.857300 -22.622000
C -27.489900 -12.499200 -22.713600
N -26.662400 -14.965300 -23.588800
N -26.552100 -12.616700 -23.692200
H -26.210600 -11.886200 -24.045400
C -26.123500 -13.829300 -24.142900
O -25.251700 -13.896700 -25.034400
H -35.429200 -15.123500 -21.201000
H -34.908200 -16.620400 -19.542800
H -34.679800 -13.384100 -22.846800
C -34.519300 -15.288400 -20.986600
C -34.209100 -16.181800 -20.014400
C -33.777900 -13.604800 -22.649100
C -33.485300 -14.593000 -21.692500
H -33.182900 -17.819800 -18.167000
H -32.932500 -12.292600 -23.943000
C -32.852600 -16.473600 -19.686600
C -32.755000 -12.962500 -23.293100
C -32.504100 -17.389700 -18.674200
C -32.126700 -14.881000 -21.425500
C -31.790600 -15.864400 -20.414500
C -31.435500 -13.319600 -22.967300
C -31.184300 -17.660700 -18.421600
N -31.107500 -14.250900 -22.079400
H -30.932900 -18.259400 -17.728200
H -30.730300 -12.863900 -23.412900
N -30.481700 -16.150500 -20.181600
C -30.208300 -17.025900 -19.218900
H -29.295500 -17.237200 -19.057000
