13
Fragment
H -28.735200 -15.950600 -21.511100
H -28.671400 -13.511000 -21.437700
N -28.121800 -15.982800 -22.141700
C -28.032700 -13.585900 -22.135700
H -27.852100 -16.760600 -22.453700
H -27.766800 -11.634200 -22.434300
C -27.600700 -14.857300 -22.622000
C -27.489900 -12.499200 -22.713600
N -26.662400 -14.965300 -23.588800
N -26.552100 -12.616700 -23.692200
H -26.210600 -11.886200 -24.045400
C -26.123500 -13.829300 -24.142900
O -25.251700 -13.896700 -25.034400
22
Fragment
H -35.015000 -18.468800 -22.337400
C -34.088700 -18.633700 -22.206700
N -33.737300 -19.523300 -21.292800
H -33.474100 -17.308200 -23.662000
H -33.259700 -22.899800 -18.197400
C -33.171900 -17.916500 -22.998200
N -32.977900 -21.456000 -19.493900
C -32.585500 -22.395800 -18.636900
C -32.410300 -19.761100 -21.105200
C -32.007900 -20.752100 -20.128200
C -31.837000 -18.115400 -22.789600
C -31.405900 -19.063800 -21.826800
C -31.260400 -22.693300 -18.337200
H -31.198200 -17.619000 -23.288300
H -31.044000 -23.376400 -17.713000
C -30.626800 -20.968100 -19.896400
C -30.274100 -21.976100 -18.965300
C -30.029300 -19.327200 -21.552400
C -29.657100 -20.220600 -20.613900
H -29.361100 -18.862000 -22.042600
H -29.359200 -22.153300 -18.777400
H -28.735100 -20.351300 -20.430000
35
Fragment
H -28.735200 -15.950600 -21.511100
H -28.671400 -13.511000 -21.437700
N -28.121800 -15.982800 -22.141700
C -28.032700 -13.585900 -22.135700
H -27.852100 -16.760600 -22.453700
H -27.766800 -11.634200 -22.434300
C -27.600700 -14.857300 -22.622000
C -27.489900 -12.499200 -22.713600
N -26.662400 -14.965300 -23.588800
N -26.552100 -12.616700 -23.692200
H -26.210600 -11.886200 -24.045400
C -26.123500 -13.829300 -24.142900
O -25.251700 -13.896700 -25.034400
H -35.015000 -18.468800 -22.337400
C -34.088700 -18.633700 -22.206700
N -33.737300 -19.523300 -21.292800
H -33.474100 -17.308200 -23.662000
H -33.259700 -22.899800 -18.197400
C -33.171900 -17.916500 -22.998200
N -32.977900 -21.456000 -19.493900
C -32.585500 -22.395800 -18.636900
C -32.410300 -19.761100 -21.105200
C -32.007900 -20.752100 -20.128200
C -31.837000 -18.115400 -22.789600
C -31.405900 -19.063800 -21.826800
C -31.260400 -22.693300 -18.337200
H -31.198200 -17.619000 -23.288300
H -31.044000 -23.376400 -17.713000
C -30.626800 -20.968100 -19.896400
C -30.274100 -21.976100 -18.965300
C -30.029300 -19.327200 -21.552400
C -29.657100 -20.220600 -20.613900
H -29.361100 -18.862000 -22.042600
H -29.359200 -22.153300 -18.777400
H -28.735100 -20.351300 -20.430000
