13
Fragment
H -28.735200 -15.950600 -21.511100
H -28.671400 -13.511000 -21.437700
N -28.121800 -15.982800 -22.141700
C -28.032700 -13.585900 -22.135700
H -27.852100 -16.760600 -22.453700
H -27.766800 -11.634200 -22.434300
C -27.600700 -14.857300 -22.622000
C -27.489900 -12.499200 -22.713600
N -26.662400 -14.965300 -23.588800
N -26.552100 -12.616700 -23.692200
H -26.210600 -11.886200 -24.045400
C -26.123500 -13.829300 -24.142900
O -25.251700 -13.896700 -25.034400
13
Fragment
O -27.088300 -9.159700 -23.410800
C -26.216600 -9.092300 -24.302300
H -26.129500 -7.149200 -24.399800
N -25.788000 -7.879600 -24.753000
N -25.677600 -10.228200 -24.856400
C -24.850100 -7.762100 -25.731600
C -24.739300 -10.120200 -25.823200
H -24.573300 -6.897100 -26.010900
H -24.488000 -12.023600 -25.991500
C -24.307400 -8.848800 -26.309500
N -24.218300 -11.245800 -26.303500
H -23.668700 -8.774000 -27.007500
H -23.604900 -11.213500 -26.934200
26
Fragment
H -28.735200 -15.950600 -21.511100
H -28.671400 -13.511000 -21.437700
N -28.121800 -15.982800 -22.141700
C -28.032700 -13.585900 -22.135700
H -27.852100 -16.760600 -22.453700
H -27.766800 -11.634200 -22.434300
C -27.600700 -14.857300 -22.622000
C -27.489900 -12.499200 -22.713600
N -26.662400 -14.965300 -23.588800
N -26.552100 -12.616700 -23.692200
H -26.210600 -11.886200 -24.045400
C -26.123500 -13.829300 -24.142900
O -25.251700 -13.896700 -25.034400
O -27.088300 -9.159700 -23.410800
C -26.216600 -9.092300 -24.302300
H -26.129500 -7.149200 -24.399800
N -25.788000 -7.879600 -24.753000
N -25.677600 -10.228200 -24.856400
C -24.850100 -7.762100 -25.731600
C -24.739300 -10.120200 -25.823200
H -24.573300 -6.897100 -26.010900
H -24.488000 -12.023600 -25.991500
C -24.307400 -8.848800 -26.309500
N -24.218300 -11.245800 -26.303500
H -23.668700 -8.774000 -27.007500
H -23.604900 -11.213500 -26.934200
