13
Fragment
H -28.735200 -15.950600 -21.511100
H -28.671400 -13.511000 -21.437700
N -28.121800 -15.982800 -22.141700
C -28.032700 -13.585900 -22.135700
H -27.852100 -16.760600 -22.453700
H -27.766800 -11.634200 -22.434300
C -27.600700 -14.857300 -22.622000
C -27.489900 -12.499200 -22.713600
N -26.662400 -14.965300 -23.588800
N -26.552100 -12.616700 -23.692200
H -26.210600 -11.886200 -24.045400
C -26.123500 -13.829300 -24.142900
O -25.251700 -13.896700 -25.034400
13
Fragment
O -27.088300 -18.633800 -23.410800
C -26.216600 -18.566400 -24.302300
H -26.129500 -16.623300 -24.399800
N -25.788000 -17.353700 -24.753000
N -25.677600 -19.702300 -24.856400
C -24.850100 -17.236200 -25.731600
C -24.739300 -19.594300 -25.823200
H -24.573300 -16.371200 -26.010900
H -24.488000 -21.497700 -25.991500
C -24.307400 -18.322900 -26.309500
N -24.218300 -20.719900 -26.303500
H -23.668700 -18.248100 -27.007500
H -23.604900 -20.687600 -26.934200
26
Fragment
H -28.735200 -15.950600 -21.511100
H -28.671400 -13.511000 -21.437700
N -28.121800 -15.982800 -22.141700
C -28.032700 -13.585900 -22.135700
H -27.852100 -16.760600 -22.453700
H -27.766800 -11.634200 -22.434300
C -27.600700 -14.857300 -22.622000
C -27.489900 -12.499200 -22.713600
N -26.662400 -14.965300 -23.588800
N -26.552100 -12.616700 -23.692200
H -26.210600 -11.886200 -24.045400
C -26.123500 -13.829300 -24.142900
O -25.251700 -13.896700 -25.034400
O -27.088300 -18.633800 -23.410800
C -26.216600 -18.566400 -24.302300
H -26.129500 -16.623300 -24.399800
N -25.788000 -17.353700 -24.753000
N -25.677600 -19.702300 -24.856400
C -24.850100 -17.236200 -25.731600
C -24.739300 -19.594300 -25.823200
H -24.573300 -16.371200 -26.010900
H -24.488000 -21.497700 -25.991500
C -24.307400 -18.322900 -26.309500
N -24.218300 -20.719900 -26.303500
H -23.668700 -18.248100 -27.007500
H -23.604900 -20.687600 -26.934200
