13
Fragment
H -28.735200 -15.950600 -21.511100
H -28.671400 -13.511000 -21.437700
N -28.121800 -15.982800 -22.141700
C -28.032700 -13.585900 -22.135700
H -27.852100 -16.760600 -22.453700
H -27.766800 -11.634200 -22.434300
C -27.600700 -14.857300 -22.622000
C -27.489900 -12.499200 -22.713600
N -26.662400 -14.965300 -23.588800
N -26.552100 -12.616700 -23.692200
H -26.210600 -11.886200 -24.045400
C -26.123500 -13.829300 -24.142900
O -25.251700 -13.896700 -25.034400
22
Fragment
H -24.466600 -11.185100 -22.467500
C -23.553900 -11.396400 -22.305600
N -23.280500 -12.271800 -21.342900
H -23.031900 -15.558400 -18.111600
H -22.829300 -10.162900 -23.796300
N -22.654700 -14.171400 -19.445100
C -22.577900 -10.761600 -23.102800
C -22.326700 -15.102700 -18.557100
C -21.971600 -12.557900 -21.109900
C -21.635500 -13.541300 -20.098900
C -21.258100 -11.032600 -22.850200
C -21.007200 -15.459800 -18.231300
C -20.909600 -11.948700 -21.837900
H -20.829700 -16.129700 -17.581500
H -20.579300 -10.602500 -23.357500
C -20.276900 -13.829300 -19.831900
C -19.984300 -14.817500 -18.875400
C -19.553100 -12.240500 -21.510100
C -19.242900 -13.133900 -20.537900
H -19.082300 -15.038200 -18.677700
H -18.854000 -11.801900 -21.981700
H -18.333000 -13.298800 -20.323500
35
Fragment
H -28.735200 -15.950600 -21.511100
H -28.671400 -13.511000 -21.437700
N -28.121800 -15.982800 -22.141700
C -28.032700 -13.585900 -22.135700
H -27.852100 -16.760600 -22.453700
H -27.766800 -11.634200 -22.434300
C -27.600700 -14.857300 -22.622000
C -27.489900 -12.499200 -22.713600
N -26.662400 -14.965300 -23.588800
N -26.552100 -12.616700 -23.692200
H -26.210600 -11.886200 -24.045400
C -26.123500 -13.829300 -24.142900
O -25.251700 -13.896700 -25.034400
H -24.466600 -11.185100 -22.467500
C -23.553900 -11.396400 -22.305600
N -23.280500 -12.271800 -21.342900
H -23.031900 -15.558400 -18.111600
H -22.829300 -10.162900 -23.796300
N -22.654700 -14.171400 -19.445100
C -22.577900 -10.761600 -23.102800
C -22.326700 -15.102700 -18.557100
C -21.971600 -12.557900 -21.109900
C -21.635500 -13.541300 -20.098900
C -21.258100 -11.032600 -22.850200
C -21.007200 -15.459800 -18.231300
C -20.909600 -11.948700 -21.837900
H -20.829700 -16.129700 -17.581500
H -20.579300 -10.602500 -23.357500
C -20.276900 -13.829300 -19.831900
C -19.984300 -14.817500 -18.875400
C -19.553100 -12.240500 -21.510100
C -19.242900 -13.133900 -20.537900
H -19.082300 -15.038200 -18.677700
H -18.854000 -11.801900 -21.981700
H -18.333000 -13.298800 -20.323500
