13
Fragment
H -28.735200 -15.950600 -21.511100
H -28.671400 -13.511000 -21.437700
N -28.121800 -15.982800 -22.141700
C -28.032700 -13.585900 -22.135700
H -27.852100 -16.760600 -22.453700
H -27.766800 -11.634200 -22.434300
C -27.600700 -14.857300 -22.622000
C -27.489900 -12.499200 -22.713600
N -26.662400 -14.965300 -23.588800
N -26.552100 -12.616700 -23.692200
H -26.210600 -11.886200 -24.045400
C -26.123500 -13.829300 -24.142900
O -25.251700 -13.896700 -25.034400
22
Fragment
H -25.027000 -17.545100 -21.094400
H -24.403000 -15.743100 -22.747100
H -24.401100 -19.034400 -19.481900
C -24.105100 -17.675800 -20.910600
C -23.732900 -18.569200 -19.972000
C -23.488100 -15.920300 -22.559100
C -23.135300 -16.928300 -21.628000
H -22.718200 -14.520000 -23.811500
H -22.564000 -20.277400 -18.236200
C -22.501800 -15.203100 -23.187300
C -22.356300 -18.832600 -19.697700
C -21.925200 -19.781000 -18.734900
C -21.754300 -17.144300 -21.396300
C -21.351900 -18.135300 -20.419200
C -21.176700 -15.500600 -22.887600
N -20.784300 -16.440400 -22.030500
C -20.590300 -19.979900 -18.526300
H -20.502500 -14.996600 -23.327100
H -20.288100 -20.588200 -17.862400
N -20.024900 -18.373100 -20.231700
C -19.673500 -19.262700 -19.317700
H -18.747200 -19.427600 -19.187100
35
Fragment
H -28.735200 -15.950600 -21.511100
H -28.671400 -13.511000 -21.437700
N -28.121800 -15.982800 -22.141700
C -28.032700 -13.585900 -22.135700
H -27.852100 -16.760600 -22.453700
H -27.766800 -11.634200 -22.434300
C -27.600700 -14.857300 -22.622000
C -27.489900 -12.499200 -22.713600
N -26.662400 -14.965300 -23.588800
N -26.552100 -12.616700 -23.692200
H -26.210600 -11.886200 -24.045400
C -26.123500 -13.829300 -24.142900
O -25.251700 -13.896700 -25.034400
H -25.027000 -17.545100 -21.094400
H -24.403000 -15.743100 -22.747100
H -24.401100 -19.034400 -19.481900
C -24.105100 -17.675800 -20.910600
C -23.732900 -18.569200 -19.972000
C -23.488100 -15.920300 -22.559100
C -23.135300 -16.928300 -21.628000
H -22.718200 -14.520000 -23.811500
H -22.564000 -20.277400 -18.236200
C -22.501800 -15.203100 -23.187300
C -22.356300 -18.832600 -19.697700
C -21.925200 -19.781000 -18.734900
C -21.754300 -17.144300 -21.396300
C -21.351900 -18.135300 -20.419200
C -21.176700 -15.500600 -22.887600
N -20.784300 -16.440400 -22.030500
C -20.590300 -19.979900 -18.526300
H -20.502500 -14.996600 -23.327100
H -20.288100 -20.588200 -17.862400
N -20.024900 -18.373100 -20.231700
C -19.673500 -19.262700 -19.317700
H -18.747200 -19.427600 -19.187100
