18
Fragment
O -15.813000 -9.212500 -39.781600
O -15.507200 -9.905900 -41.809300
N -15.244400 -9.121400 -40.882500
H -14.983700 -7.986100 -38.524500
H -14.600400 -9.346700 -43.416000
N -14.327700 -7.325900 -38.775900
C -14.268000 -8.109500 -41.099000
N -13.994100 -8.663600 -43.484500
H -13.976800 -6.775100 -38.224400
C -13.832700 -7.238500 -40.010700
C -13.719700 -7.976300 -42.387200
H -13.514200 -8.495700 -44.218900
N -12.915100 -6.285100 -40.162000
C -12.740100 -6.930800 -42.502400
N -12.421200 -6.207000 -41.424500
N -12.020000 -6.490800 -43.536100
N -11.503600 -5.277000 -41.756200
N -11.284700 -5.475200 -43.041500
18
Fragment
N -14.539300 -10.889700 -33.910000
N -14.320400 -11.088000 -35.195300
N -13.804000 -9.874100 -33.415400
N -13.402800 -10.158000 -35.527000
C -13.083900 -9.434200 -34.449100
N -12.908900 -10.079900 -36.789500
H -12.309800 -7.869200 -32.732600
C -12.104300 -8.388700 -34.564300
C -11.991300 -9.126500 -36.940800
H -11.847200 -9.589900 -38.727100
N -11.829900 -7.701300 -33.467000
C -11.556000 -8.255400 -35.852500
N -11.496400 -9.039100 -38.175600
H -11.223600 -7.018200 -33.535500
H -10.840400 -8.378900 -38.427000
N -10.579600 -7.243600 -36.069000
O -10.316800 -6.459000 -35.142200
O -10.011000 -7.152400 -37.169900
36
Fragment
O -15.813000 -9.212500 -39.781600
O -15.507200 -9.905900 -41.809300
N -15.244400 -9.121400 -40.882500
H -14.983700 -7.986100 -38.524500
H -14.600400 -9.346700 -43.416000
N -14.327700 -7.325900 -38.775900
C -14.268000 -8.109500 -41.099000
N -13.994100 -8.663600 -43.484500
H -13.976800 -6.775100 -38.224400
C -13.832700 -7.238500 -40.010700
C -13.719700 -7.976300 -42.387200
H -13.514200 -8.495700 -44.218900
N -12.915100 -6.285100 -40.162000
C -12.740100 -6.930800 -42.502400
N -12.421200 -6.207000 -41.424500
N -12.020000 -6.490800 -43.536100
N -11.503600 -5.277000 -41.756200
N -11.284700 -5.475200 -43.041500
N -14.539300 -10.889700 -33.910000
N -14.320400 -11.088000 -35.195300
N -13.804000 -9.874100 -33.415400
N -13.402800 -10.158000 -35.527000
C -13.083900 -9.434200 -34.449100
N -12.908900 -10.079900 -36.789500
H -12.309800 -7.869200 -32.732600
C -12.104300 -8.388700 -34.564300
C -11.991300 -9.126500 -36.940800
H -11.847200 -9.589900 -38.727100
N -11.829900 -7.701300 -33.467000
C -11.556000 -8.255400 -35.852500
N -11.496400 -9.039100 -38.175600
H -11.223600 -7.018200 -33.535500
H -10.840400 -8.378900 -38.427000
N -10.579600 -7.243600 -36.069000
O -10.316800 -6.459000 -35.142200
O -10.011000 -7.152400 -37.169900
