18
Fragment
O -15.813000 -9.212500 -39.781600
O -15.507200 -9.905900 -41.809300
N -15.244400 -9.121400 -40.882500
H -14.983700 -7.986100 -38.524500
H -14.600400 -9.346700 -43.416000
N -14.327700 -7.325900 -38.775900
C -14.268000 -8.109500 -41.099000
N -13.994100 -8.663600 -43.484500
H -13.976800 -6.775100 -38.224400
C -13.832700 -7.238500 -40.010700
C -13.719700 -7.976300 -42.387200
H -13.514200 -8.495700 -44.218900
N -12.915100 -6.285100 -40.162000
C -12.740100 -6.930800 -42.502400
N -12.421200 -6.207000 -41.424500
N -12.020000 -6.490800 -43.536100
N -11.503600 -5.277000 -41.756200
N -11.284700 -5.475200 -43.041500
18
Fragment
N -20.641100 -13.227600 -33.910000
N -20.422200 -13.425800 -35.195300
N -19.905800 -12.212000 -33.415400
N -19.504600 -12.495800 -35.527000
C -19.185700 -11.772000 -34.449100
N -19.010700 -12.417700 -36.789500
H -18.411600 -10.207100 -32.732600
C -18.206100 -10.726500 -34.564300
C -18.093100 -11.464300 -36.940800
H -17.949000 -11.927700 -38.727100
N -17.931700 -10.039200 -33.467000
C -17.657800 -10.593300 -35.852500
N -17.598200 -11.376900 -38.175600
H -17.325400 -9.356100 -33.535500
H -16.942200 -10.716700 -38.427000
N -16.681400 -9.581400 -36.069000
O -16.418600 -8.796900 -35.142200
O -16.112800 -9.490300 -37.169900
36
Fragment
O -15.813000 -9.212500 -39.781600
O -15.507200 -9.905900 -41.809300
N -15.244400 -9.121400 -40.882500
H -14.983700 -7.986100 -38.524500
H -14.600400 -9.346700 -43.416000
N -14.327700 -7.325900 -38.775900
C -14.268000 -8.109500 -41.099000
N -13.994100 -8.663600 -43.484500
H -13.976800 -6.775100 -38.224400
C -13.832700 -7.238500 -40.010700
C -13.719700 -7.976300 -42.387200
H -13.514200 -8.495700 -44.218900
N -12.915100 -6.285100 -40.162000
C -12.740100 -6.930800 -42.502400
N -12.421200 -6.207000 -41.424500
N -12.020000 -6.490800 -43.536100
N -11.503600 -5.277000 -41.756200
N -11.284700 -5.475200 -43.041500
N -20.641100 -13.227600 -33.910000
N -20.422200 -13.425800 -35.195300
N -19.905800 -12.212000 -33.415400
N -19.504600 -12.495800 -35.527000
C -19.185700 -11.772000 -34.449100
N -19.010700 -12.417700 -36.789500
H -18.411600 -10.207100 -32.732600
C -18.206100 -10.726500 -34.564300
C -18.093100 -11.464300 -36.940800
H -17.949000 -11.927700 -38.727100
N -17.931700 -10.039200 -33.467000
C -17.657800 -10.593300 -35.852500
N -17.598200 -11.376900 -38.175600
H -17.325400 -9.356100 -33.535500
H -16.942200 -10.716700 -38.427000
N -16.681400 -9.581400 -36.069000
O -16.418600 -8.796900 -35.142200
O -16.112800 -9.490300 -37.169900
