18
Fragment
O -15.813000 -9.212500 -39.781600
O -15.507200 -9.905900 -41.809300
N -15.244400 -9.121400 -40.882500
H -14.983700 -7.986100 -38.524500
H -14.600400 -9.346700 -43.416000
N -14.327700 -7.325900 -38.775900
C -14.268000 -8.109500 -41.099000
N -13.994100 -8.663600 -43.484500
H -13.976800 -6.775100 -38.224400
C -13.832700 -7.238500 -40.010700
C -13.719700 -7.976300 -42.387200
H -13.514200 -8.495700 -44.218900
N -12.915100 -6.285100 -40.162000
C -12.740100 -6.930800 -42.502400
N -12.421200 -6.207000 -41.424500
N -12.020000 -6.490800 -43.536100
N -11.503600 -5.277000 -41.756200
N -11.284700 -5.475200 -43.041500
18
Fragment
O -15.813000 -13.888200 -39.781600
O -15.507200 -14.581600 -41.809300
N -15.244400 -13.797100 -40.882500
H -14.983700 -12.661800 -38.524500
H -14.600400 -14.022400 -43.416000
N -14.327700 -12.001600 -38.775900
C -14.268000 -12.785200 -41.099000
N -13.994100 -13.339300 -43.484500
H -13.976800 -11.450800 -38.224400
C -13.832700 -11.914200 -40.010700
C -13.719700 -12.652000 -42.387200
H -13.514200 -13.171400 -44.218900
N -12.915100 -10.960800 -40.162000
C -12.740100 -11.606500 -42.502400
N -12.421200 -10.882700 -41.424500
N -12.020000 -11.166500 -43.536100
N -11.503600 -9.952700 -41.756200
N -11.284700 -10.150900 -43.041500
36
Fragment
O -15.813000 -9.212500 -39.781600
O -15.507200 -9.905900 -41.809300
N -15.244400 -9.121400 -40.882500
H -14.983700 -7.986100 -38.524500
H -14.600400 -9.346700 -43.416000
N -14.327700 -7.325900 -38.775900
C -14.268000 -8.109500 -41.099000
N -13.994100 -8.663600 -43.484500
H -13.976800 -6.775100 -38.224400
C -13.832700 -7.238500 -40.010700
C -13.719700 -7.976300 -42.387200
H -13.514200 -8.495700 -44.218900
N -12.915100 -6.285100 -40.162000
C -12.740100 -6.930800 -42.502400
N -12.421200 -6.207000 -41.424500
N -12.020000 -6.490800 -43.536100
N -11.503600 -5.277000 -41.756200
N -11.284700 -5.475200 -43.041500
O -15.813000 -13.888200 -39.781600
O -15.507200 -14.581600 -41.809300
N -15.244400 -13.797100 -40.882500
H -14.983700 -12.661800 -38.524500
H -14.600400 -14.022400 -43.416000
N -14.327700 -12.001600 -38.775900
C -14.268000 -12.785200 -41.099000
N -13.994100 -13.339300 -43.484500
H -13.976800 -11.450800 -38.224400
C -13.832700 -11.914200 -40.010700
C -13.719700 -12.652000 -42.387200
H -13.514200 -13.171400 -44.218900
N -12.915100 -10.960800 -40.162000
C -12.740100 -11.606500 -42.502400
N -12.421200 -10.882700 -41.424500
N -12.020000 -11.166500 -43.536100
N -11.503600 -9.952700 -41.756200
N -11.284700 -10.150900 -43.041500
