18
Fragment
O -15.813000 -9.212500 -39.781600
O -15.507200 -9.905900 -41.809300
N -15.244400 -9.121400 -40.882500
H -14.983700 -7.986100 -38.524500
H -14.600400 -9.346700 -43.416000
N -14.327700 -7.325900 -38.775900
C -14.268000 -8.109500 -41.099000
N -13.994100 -8.663600 -43.484500
H -13.976800 -6.775100 -38.224400
C -13.832700 -7.238500 -40.010700
C -13.719700 -7.976300 -42.387200
H -13.514200 -8.495700 -44.218900
N -12.915100 -6.285100 -40.162000
C -12.740100 -6.930800 -42.502400
N -12.421200 -6.207000 -41.424500
N -12.020000 -6.490800 -43.536100
N -11.503600 -5.277000 -41.756200
N -11.284700 -5.475200 -43.041500
18
Fragment
O -21.914800 -16.226100 -39.781600
O -21.609000 -16.919500 -41.809300
N -21.346200 -16.134900 -40.882500
H -21.085500 -14.999600 -38.524500
H -20.702200 -16.360300 -43.416000
N -20.429500 -14.339400 -38.775900
C -20.369800 -15.123100 -41.099000
N -20.095900 -15.677200 -43.484500
H -20.078600 -13.788600 -38.224400
C -19.934500 -14.252000 -40.010700
C -19.821500 -14.989800 -42.387200
H -19.616000 -15.509300 -44.218900
N -19.016900 -13.298600 -40.162000
C -18.841900 -13.944300 -42.502400
N -18.523000 -13.220500 -41.424500
N -18.121800 -13.504400 -43.536100
N -17.605400 -12.290500 -41.756200
N -17.386500 -12.488800 -43.041500
36
Fragment
O -15.813000 -9.212500 -39.781600
O -15.507200 -9.905900 -41.809300
N -15.244400 -9.121400 -40.882500
H -14.983700 -7.986100 -38.524500
H -14.600400 -9.346700 -43.416000
N -14.327700 -7.325900 -38.775900
C -14.268000 -8.109500 -41.099000
N -13.994100 -8.663600 -43.484500
H -13.976800 -6.775100 -38.224400
C -13.832700 -7.238500 -40.010700
C -13.719700 -7.976300 -42.387200
H -13.514200 -8.495700 -44.218900
N -12.915100 -6.285100 -40.162000
C -12.740100 -6.930800 -42.502400
N -12.421200 -6.207000 -41.424500
N -12.020000 -6.490800 -43.536100
N -11.503600 -5.277000 -41.756200
N -11.284700 -5.475200 -43.041500
O -21.914800 -16.226100 -39.781600
O -21.609000 -16.919500 -41.809300
N -21.346200 -16.134900 -40.882500
H -21.085500 -14.999600 -38.524500
H -20.702200 -16.360300 -43.416000
N -20.429500 -14.339400 -38.775900
C -20.369800 -15.123100 -41.099000
N -20.095900 -15.677200 -43.484500
H -20.078600 -13.788600 -38.224400
C -19.934500 -14.252000 -40.010700
C -19.821500 -14.989800 -42.387200
H -19.616000 -15.509300 -44.218900
N -19.016900 -13.298600 -40.162000
C -18.841900 -13.944300 -42.502400
N -18.523000 -13.220500 -41.424500
N -18.121800 -13.504400 -43.536100
N -17.605400 -12.290500 -41.756200
N -17.386500 -12.488800 -43.041500
