18
Fragment
N -37.289000 -8.641900 -24.078400
N -36.583700 -9.391800 -24.880200
N -36.533000 -7.669000 -23.495200
N -35.333700 -8.895100 -24.810700
C -35.307100 -7.845300 -23.967700
H -34.826800 -5.981300 -22.414200
N -34.324300 -9.401900 -25.564400
N -34.070200 -6.216300 -22.798100
C -34.057700 -7.185300 -23.682400
H -33.323300 -5.801400 -22.589000
C -33.204500 -8.776500 -25.323900
C -32.977700 -7.722700 -24.415800
N -32.145400 -9.219000 -26.287700
O -31.846200 -8.406800 -27.145000
O -31.766200 -10.365300 -26.180700
N -31.631300 -7.319900 -24.114800
O -31.475800 -6.304700 -23.418100
O -30.704200 -7.997000 -24.540100
18
Fragment
O -30.375300 -7.071700 -20.270500
O -29.603700 -8.764000 -21.392400
N -29.448300 -7.748800 -20.695800
O -29.313300 -4.703400 -18.629800
O -29.233300 -6.661900 -17.665500
N -28.934100 -5.849700 -18.522900
C -28.101800 -7.346000 -20.394800
C -27.875000 -6.292200 -19.486600
H -27.756300 -9.267300 -22.221600
C -27.021900 -7.883400 -21.128200
N -27.009300 -8.852400 -22.012400
N -26.755300 -5.666800 -19.246100
H -26.252700 -9.087400 -22.396300
C -25.772400 -7.223400 -20.842900
N -25.745900 -6.173600 -19.999900
N -24.546600 -7.399700 -21.315300
N -24.495900 -5.676900 -19.930400
N -23.790600 -6.426800 -20.732200
36
Fragment
N -37.289000 -8.641900 -24.078400
N -36.583700 -9.391800 -24.880200
N -36.533000 -7.669000 -23.495200
N -35.333700 -8.895100 -24.810700
C -35.307100 -7.845300 -23.967700
H -34.826800 -5.981300 -22.414200
N -34.324300 -9.401900 -25.564400
N -34.070200 -6.216300 -22.798100
C -34.057700 -7.185300 -23.682400
H -33.323300 -5.801400 -22.589000
C -33.204500 -8.776500 -25.323900
C -32.977700 -7.722700 -24.415800
N -32.145400 -9.219000 -26.287700
O -31.846200 -8.406800 -27.145000
O -31.766200 -10.365300 -26.180700
N -31.631300 -7.319900 -24.114800
O -31.475800 -6.304700 -23.418100
O -30.704200 -7.997000 -24.540100
O -30.375300 -7.071700 -20.270500
O -29.603700 -8.764000 -21.392400
N -29.448300 -7.748800 -20.695800
O -29.313300 -4.703400 -18.629800
O -29.233300 -6.661900 -17.665500
N -28.934100 -5.849700 -18.522900
C -28.101800 -7.346000 -20.394800
C -27.875000 -6.292200 -19.486600
H -27.756300 -9.267300 -22.221600
C -27.021900 -7.883400 -21.128200
N -27.009300 -8.852400 -22.012400
N -26.755300 -5.666800 -19.246100
H -26.252700 -9.087400 -22.396300
C -25.772400 -7.223400 -20.842900
N -25.745900 -6.173600 -19.999900
N -24.546600 -7.399700 -21.315300
N -24.495900 -5.676900 -19.930400
N -23.790600 -6.426800 -20.732200
