18
Fragment
N -37.289000 -8.641900 -24.078400
N -36.583700 -9.391800 -24.880200
N -36.533000 -7.669000 -23.495200
N -35.333700 -8.895100 -24.810700
C -35.307100 -7.845300 -23.967700
H -34.826800 -5.981300 -22.414200
N -34.324300 -9.401900 -25.564400
N -34.070200 -6.216300 -22.798100
C -34.057700 -7.185300 -23.682400
H -33.323300 -5.801400 -22.589000
C -33.204500 -8.776500 -25.323900
C -32.977700 -7.722700 -24.415800
N -32.145400 -9.219000 -26.287700
O -31.846200 -8.406800 -27.145000
O -31.766200 -10.365300 -26.180700
N -31.631300 -7.319900 -24.114800
O -31.475800 -6.304700 -23.418100
O -30.704200 -7.997000 -24.540100
18
Fragment
O -40.555300 -10.508400 -27.738900
O -39.783700 -8.816200 -28.860800
N -39.628200 -9.831300 -28.164200
O -39.493200 -12.876700 -26.098300
O -39.413300 -10.918300 -25.133900
N -39.114100 -11.730500 -25.991300
C -38.281700 -10.234200 -27.863200
C -38.055000 -11.288000 -26.955000
H -37.936200 -8.312900 -29.690000
C -37.201800 -9.696700 -28.596600
N -37.189300 -8.727800 -29.480900
N -36.935200 -11.913300 -26.714600
H -36.432600 -8.492700 -29.864700
C -35.952300 -10.356700 -28.311300
N -35.925800 -11.406500 -27.468300
N -34.726500 -10.180400 -28.783800
N -34.675800 -11.903300 -27.398800
N -33.970500 -11.153300 -28.200600
36
Fragment
N -37.289000 -8.641900 -24.078400
N -36.583700 -9.391800 -24.880200
N -36.533000 -7.669000 -23.495200
N -35.333700 -8.895100 -24.810700
C -35.307100 -7.845300 -23.967700
H -34.826800 -5.981300 -22.414200
N -34.324300 -9.401900 -25.564400
N -34.070200 -6.216300 -22.798100
C -34.057700 -7.185300 -23.682400
H -33.323300 -5.801400 -22.589000
C -33.204500 -8.776500 -25.323900
C -32.977700 -7.722700 -24.415800
N -32.145400 -9.219000 -26.287700
O -31.846200 -8.406800 -27.145000
O -31.766200 -10.365300 -26.180700
N -31.631300 -7.319900 -24.114800
O -31.475800 -6.304700 -23.418100
O -30.704200 -7.997000 -24.540100
O -40.555300 -10.508400 -27.738900
O -39.783700 -8.816200 -28.860800
N -39.628200 -9.831300 -28.164200
O -39.493200 -12.876700 -26.098300
O -39.413300 -10.918300 -25.133900
N -39.114100 -11.730500 -25.991300
C -38.281700 -10.234200 -27.863200
C -38.055000 -11.288000 -26.955000
H -37.936200 -8.312900 -29.690000
C -37.201800 -9.696700 -28.596600
N -37.189300 -8.727800 -29.480900
N -36.935200 -11.913300 -26.714600
H -36.432600 -8.492700 -29.864700
C -35.952300 -10.356700 -28.311300
N -35.925800 -11.406500 -27.468300
N -34.726500 -10.180400 -28.783800
N -34.675800 -11.903300 -27.398800
N -33.970500 -11.153300 -28.200600
