18
Fragment
N -37.289000 -8.641900 -24.078400
N -36.583700 -9.391800 -24.880200
N -36.533000 -7.669000 -23.495200
N -35.333700 -8.895100 -24.810700
C -35.307100 -7.845300 -23.967700
H -34.826800 -5.981300 -22.414200
N -34.324300 -9.401900 -25.564400
N -34.070200 -6.216300 -22.798100
C -34.057700 -7.185300 -23.682400
H -33.323300 -5.801400 -22.589000
C -33.204500 -8.776500 -25.323900
C -32.977700 -7.722700 -24.415800
N -32.145400 -9.219000 -26.287700
O -31.846200 -8.406800 -27.145000
O -31.766200 -10.365300 -26.180700
N -31.631300 -7.319900 -24.114800
O -31.475800 -6.304700 -23.418100
O -30.704200 -7.997000 -24.540100
18
Fragment
N -37.289000 -13.664800 -24.078400
N -36.583700 -14.414700 -24.880200
N -36.533000 -12.691900 -23.495200
N -35.333700 -13.918000 -24.810700
C -35.307100 -12.868200 -23.967700
H -34.826800 -11.004200 -22.414200
N -34.324300 -14.424800 -25.564400
N -34.070200 -11.239200 -22.798100
C -34.057700 -12.208200 -23.682400
H -33.323300 -10.824300 -22.589000
C -33.204500 -13.799400 -25.323900
C -32.977700 -12.745600 -24.415800
N -32.145400 -14.241900 -26.287700
O -31.846200 -13.429700 -27.145000
O -31.766200 -15.388200 -26.180700
N -31.631300 -12.342800 -24.114800
O -31.475800 -11.327600 -23.418100
O -30.704200 -13.019900 -24.540100
36
Fragment
N -37.289000 -8.641900 -24.078400
N -36.583700 -9.391800 -24.880200
N -36.533000 -7.669000 -23.495200
N -35.333700 -8.895100 -24.810700
C -35.307100 -7.845300 -23.967700
H -34.826800 -5.981300 -22.414200
N -34.324300 -9.401900 -25.564400
N -34.070200 -6.216300 -22.798100
C -34.057700 -7.185300 -23.682400
H -33.323300 -5.801400 -22.589000
C -33.204500 -8.776500 -25.323900
C -32.977700 -7.722700 -24.415800
N -32.145400 -9.219000 -26.287700
O -31.846200 -8.406800 -27.145000
O -31.766200 -10.365300 -26.180700
N -31.631300 -7.319900 -24.114800
O -31.475800 -6.304700 -23.418100
O -30.704200 -7.997000 -24.540100
N -37.289000 -13.664800 -24.078400
N -36.583700 -14.414700 -24.880200
N -36.533000 -12.691900 -23.495200
N -35.333700 -13.918000 -24.810700
C -35.307100 -12.868200 -23.967700
H -34.826800 -11.004200 -22.414200
N -34.324300 -14.424800 -25.564400
N -34.070200 -11.239200 -22.798100
C -34.057700 -12.208200 -23.682400
H -33.323300 -10.824300 -22.589000
C -33.204500 -13.799400 -25.323900
C -32.977700 -12.745600 -24.415800
N -32.145400 -14.241900 -26.287700
O -31.846200 -13.429700 -27.145000
O -31.766200 -15.388200 -26.180700
N -31.631300 -12.342800 -24.114800
O -31.475800 -11.327600 -23.418100
O -30.704200 -13.019900 -24.540100
