18
Fragment
N -37.289000 -8.641900 -24.078400
N -36.583700 -9.391800 -24.880200
N -36.533000 -7.669000 -23.495200
N -35.333700 -8.895100 -24.810700
C -35.307100 -7.845300 -23.967700
H -34.826800 -5.981300 -22.414200
N -34.324300 -9.401900 -25.564400
N -34.070200 -6.216300 -22.798100
C -34.057700 -7.185300 -23.682400
H -33.323300 -5.801400 -22.589000
C -33.204500 -8.776500 -25.323900
C -32.977700 -7.722700 -24.415800
N -32.145400 -9.219000 -26.287700
O -31.846200 -8.406800 -27.145000
O -31.766200 -10.365300 -26.180700
N -31.631300 -7.319900 -24.114800
O -31.475800 -6.304700 -23.418100
O -30.704200 -7.997000 -24.540100
18
Fragment
N -38.814500 -6.426800 -16.609900
N -38.109300 -5.676900 -17.411700
N -38.058600 -7.399700 -16.026800
N -36.859300 -6.173600 -17.342300
C -36.832700 -7.223400 -16.499200
H -36.352400 -9.087400 -14.945800
N -35.849900 -5.666800 -18.096000
N -35.595800 -8.852400 -15.329700
C -35.583200 -7.883400 -16.214000
H -34.848800 -9.267300 -15.120600
C -34.730100 -6.292200 -17.855500
C -34.503300 -7.346000 -16.947400
N -33.671000 -5.849700 -18.819200
O -33.371800 -6.661900 -19.676600
O -33.291800 -4.703400 -18.712300
N -33.156900 -7.748800 -16.646400
O -33.001400 -8.764000 -15.949700
O -32.229800 -7.071700 -17.071600
36
Fragment
N -37.289000 -8.641900 -24.078400
N -36.583700 -9.391800 -24.880200
N -36.533000 -7.669000 -23.495200
N -35.333700 -8.895100 -24.810700
C -35.307100 -7.845300 -23.967700
H -34.826800 -5.981300 -22.414200
N -34.324300 -9.401900 -25.564400
N -34.070200 -6.216300 -22.798100
C -34.057700 -7.185300 -23.682400
H -33.323300 -5.801400 -22.589000
C -33.204500 -8.776500 -25.323900
C -32.977700 -7.722700 -24.415800
N -32.145400 -9.219000 -26.287700
O -31.846200 -8.406800 -27.145000
O -31.766200 -10.365300 -26.180700
N -31.631300 -7.319900 -24.114800
O -31.475800 -6.304700 -23.418100
O -30.704200 -7.997000 -24.540100
N -38.814500 -6.426800 -16.609900
N -38.109300 -5.676900 -17.411700
N -38.058600 -7.399700 -16.026800
N -36.859300 -6.173600 -17.342300
C -36.832700 -7.223400 -16.499200
H -36.352400 -9.087400 -14.945800
N -35.849900 -5.666800 -18.096000
N -35.595800 -8.852400 -15.329700
C -35.583200 -7.883400 -16.214000
H -34.848800 -9.267300 -15.120600
C -34.730100 -6.292200 -17.855500
C -34.503300 -7.346000 -16.947400
N -33.671000 -5.849700 -18.819200
O -33.371800 -6.661900 -19.676600
O -33.291800 -4.703400 -18.712300
N -33.156900 -7.748800 -16.646400
O -33.001400 -8.764000 -15.949700
O -32.229800 -7.071700 -17.071600
