18
Fragment
N -37.289000 -8.641900 -24.078400
N -36.583700 -9.391800 -24.880200
N -36.533000 -7.669000 -23.495200
N -35.333700 -8.895100 -24.810700
C -35.307100 -7.845300 -23.967700
H -34.826800 -5.981300 -22.414200
N -34.324300 -9.401900 -25.564400
N -34.070200 -6.216300 -22.798100
C -34.057700 -7.185300 -23.682400
H -33.323300 -5.801400 -22.589000
C -33.204500 -8.776500 -25.323900
C -32.977700 -7.722700 -24.415800
N -32.145400 -9.219000 -26.287700
O -31.846200 -8.406800 -27.145000
O -31.766200 -10.365300 -26.180700
N -31.631300 -7.319900 -24.114800
O -31.475800 -6.304700 -23.418100
O -30.704200 -7.997000 -24.540100
18
Fragment
O -42.080800 -9.583200 -20.270500
O -41.309200 -11.275400 -21.392400
N -41.153800 -10.260300 -20.695800
O -41.018800 -7.214900 -18.629800
O -40.938800 -9.173300 -17.665500
N -40.639600 -8.361100 -18.522900
C -39.807300 -9.857400 -20.394800
C -39.580500 -8.803600 -19.486600
H -39.461800 -11.778700 -22.221600
C -38.727400 -10.394900 -21.128200
N -38.714800 -11.363800 -22.012400
N -38.460800 -8.178300 -19.246100
H -37.958200 -11.598900 -22.396300
C -37.477900 -9.734900 -20.842900
N -37.451400 -8.685100 -19.999900
N -36.252100 -9.911200 -21.315300
N -36.201400 -8.188300 -19.930400
N -35.496100 -8.938300 -20.732200
36
Fragment
N -37.289000 -8.641900 -24.078400
N -36.583700 -9.391800 -24.880200
N -36.533000 -7.669000 -23.495200
N -35.333700 -8.895100 -24.810700
C -35.307100 -7.845300 -23.967700
H -34.826800 -5.981300 -22.414200
N -34.324300 -9.401900 -25.564400
N -34.070200 -6.216300 -22.798100
C -34.057700 -7.185300 -23.682400
H -33.323300 -5.801400 -22.589000
C -33.204500 -8.776500 -25.323900
C -32.977700 -7.722700 -24.415800
N -32.145400 -9.219000 -26.287700
O -31.846200 -8.406800 -27.145000
O -31.766200 -10.365300 -26.180700
N -31.631300 -7.319900 -24.114800
O -31.475800 -6.304700 -23.418100
O -30.704200 -7.997000 -24.540100
O -42.080800 -9.583200 -20.270500
O -41.309200 -11.275400 -21.392400
N -41.153800 -10.260300 -20.695800
O -41.018800 -7.214900 -18.629800
O -40.938800 -9.173300 -17.665500
N -40.639600 -8.361100 -18.522900
C -39.807300 -9.857400 -20.394800
C -39.580500 -8.803600 -19.486600
H -39.461800 -11.778700 -22.221600
C -38.727400 -10.394900 -21.128200
N -38.714800 -11.363800 -22.012400
N -38.460800 -8.178300 -19.246100
H -37.958200 -11.598900 -22.396300
C -37.477900 -9.734900 -20.842900
N -37.451400 -8.685100 -19.999900
N -36.252100 -9.911200 -21.315300
N -36.201400 -8.188300 -19.930400
N -35.496100 -8.938300 -20.732200
