20
Fragment
H -6.734100 -13.891200 -29.897000
H -6.523800 -15.234500 -27.967800
C -6.322700 -13.548000 -29.127800
C -6.205200 -14.325700 -27.981100
H -5.990200 -11.678600 -29.925800
C -5.872300 -12.247100 -29.118100
C -5.630600 -13.806200 -26.838600
H -5.532700 -14.355400 -26.061100
C -5.276400 -11.688200 -27.976200
C -5.155800 -12.495100 -26.831200
H -5.064900 -9.713800 -29.843500
C -4.737800 -10.327300 -27.962400
C -4.706300 -9.496900 -29.000900
O -4.562400 -11.963000 -25.730000
H -4.398200 -12.614800 -25.170600
H -4.385400 -10.033800 -27.130700
O -4.176800 -7.400000 -29.930700
C -4.106300 -8.158700 -28.964200
O -3.481400 -7.833400 -27.851700
H -3.119400 -6.927200 -27.901900
20
Fragment
H -3.735400 -10.654400 -33.800700
O -3.373400 -9.748200 -33.850900
C -2.748500 -9.422900 -32.738400
O -2.677900 -10.181600 -31.771900
H -2.469400 -7.547800 -34.572000
H -2.456600 -4.966800 -36.532100
O -2.292300 -5.618600 -35.972600
C -2.148500 -8.084700 -32.701800
C -2.117000 -7.254300 -33.740200
H -1.789900 -7.867800 -31.859100
C -1.699000 -5.086500 -34.871500
C -1.578400 -5.893400 -33.726500
H -1.322100 -3.226200 -35.641500
C -1.224200 -3.775400 -34.864000
C -0.982400 -5.334500 -32.584500
H -0.864500 -5.903000 -31.776900
C -0.649600 -3.255900 -33.721500
C -0.532100 -4.033600 -32.574900
H -0.330900 -2.347100 -33.734900
H -0.120600 -3.690400 -31.805700
40
Fragment
H -6.734100 -13.891200 -29.897000
H -6.523800 -15.234500 -27.967800
C -6.322700 -13.548000 -29.127800
C -6.205200 -14.325700 -27.981100
H -5.990200 -11.678600 -29.925800
C -5.872300 -12.247100 -29.118100
C -5.630600 -13.806200 -26.838600
H -5.532700 -14.355400 -26.061100
C -5.276400 -11.688200 -27.976200
C -5.155800 -12.495100 -26.831200
H -5.064900 -9.713800 -29.843500
C -4.737800 -10.327300 -27.962400
C -4.706300 -9.496900 -29.000900
O -4.562400 -11.963000 -25.730000
H -4.398200 -12.614800 -25.170600
H -4.385400 -10.033800 -27.130700
O -4.176800 -7.400000 -29.930700
C -4.106300 -8.158700 -28.964200
O -3.481400 -7.833400 -27.851700
H -3.119400 -6.927200 -27.901900
H -3.735400 -10.654400 -33.800700
O -3.373400 -9.748200 -33.850900
C -2.748500 -9.422900 -32.738400
O -2.677900 -10.181600 -31.771900
H -2.469400 -7.547800 -34.572000
H -2.456600 -4.966800 -36.532100
O -2.292300 -5.618600 -35.972600
C -2.148500 -8.084700 -32.701800
C -2.117000 -7.254300 -33.740200
H -1.789900 -7.867800 -31.859100
C -1.699000 -5.086500 -34.871500
C -1.578400 -5.893400 -33.726500
H -1.322100 -3.226200 -35.641500
C -1.224200 -3.775400 -34.864000
C -0.982400 -5.334500 -32.584500
H -0.864500 -5.903000 -31.776900
C -0.649600 -3.255900 -33.721500
C -0.532100 -4.033600 -32.574900
H -0.330900 -2.347100 -33.734900
H -0.120600 -3.690400 -31.805700
