20
Fragment
H -6.734100 -13.891200 -29.897000
H -6.523800 -15.234500 -27.967800
C -6.322700 -13.548000 -29.127800
C -6.205200 -14.325700 -27.981100
H -5.990200 -11.678600 -29.925800
C -5.872300 -12.247100 -29.118100
C -5.630600 -13.806200 -26.838600
H -5.532700 -14.355400 -26.061100
C -5.276400 -11.688200 -27.976200
C -5.155800 -12.495100 -26.831200
H -5.064900 -9.713800 -29.843500
C -4.737800 -10.327300 -27.962400
C -4.706300 -9.496900 -29.000900
O -4.562400 -11.963000 -25.730000
H -4.398200 -12.614800 -25.170600
H -4.385400 -10.033800 -27.130700
O -4.176800 -7.400000 -29.930700
C -4.106300 -8.158700 -28.964200
O -3.481400 -7.833400 -27.851700
H -3.119400 -6.927200 -27.901900
17
Fragment
H -7.134400 -18.126600 -32.326000
O -6.327800 -16.708000 -34.440600
N -6.206800 -18.173400 -32.135600
H -5.853700 -14.522400 -35.466700
H -5.829700 -18.680500 -32.821700
C -5.826900 -16.197100 -33.439300
N -5.739900 -16.842400 -32.273200
C -5.428900 -14.097300 -34.690000
C -5.319300 -14.781300 -33.487700
H -5.277800 -16.526700 -31.583500
H -5.052600 -12.281600 -35.583900
C -4.981900 -12.789900 -34.757300
C -4.766900 -14.122200 -32.398400
H -4.664300 -14.531200 -31.540300
N -4.449500 -12.146200 -33.712100
C -4.351000 -12.816300 -32.551400
H -3.954000 -12.331700 -31.826200
37
Fragment
H -6.734100 -13.891200 -29.897000
H -6.523800 -15.234500 -27.967800
C -6.322700 -13.548000 -29.127800
C -6.205200 -14.325700 -27.981100
H -5.990200 -11.678600 -29.925800
C -5.872300 -12.247100 -29.118100
C -5.630600 -13.806200 -26.838600
H -5.532700 -14.355400 -26.061100
C -5.276400 -11.688200 -27.976200
C -5.155800 -12.495100 -26.831200
H -5.064900 -9.713800 -29.843500
C -4.737800 -10.327300 -27.962400
C -4.706300 -9.496900 -29.000900
O -4.562400 -11.963000 -25.730000
H -4.398200 -12.614800 -25.170600
H -4.385400 -10.033800 -27.130700
O -4.176800 -7.400000 -29.930700
C -4.106300 -8.158700 -28.964200
O -3.481400 -7.833400 -27.851700
H -3.119400 -6.927200 -27.901900
H -7.134400 -18.126600 -32.326000
O -6.327800 -16.708000 -34.440600
N -6.206800 -18.173400 -32.135600
H -5.853700 -14.522400 -35.466700
H -5.829700 -18.680500 -32.821700
C -5.826900 -16.197100 -33.439300
N -5.739900 -16.842400 -32.273200
C -5.428900 -14.097300 -34.690000
C -5.319300 -14.781300 -33.487700
H -5.277800 -16.526700 -31.583500
H -5.052600 -12.281600 -35.583900
C -4.981900 -12.789900 -34.757300
C -4.766900 -14.122200 -32.398400
H -4.664300 -14.531200 -31.540300
N -4.449500 -12.146200 -33.712100
C -4.351000 -12.816300 -32.551400
H -3.954000 -12.331700 -31.826200
