21
Fragment
H -13.397200 -12.451100 -25.239600
O -12.817000 -12.824400 -24.492500
H -12.471900 -14.538100 -20.343100
H -12.201600 -13.750300 -22.428300
C -11.677000 -13.338200 -24.901700
H -11.669200 -15.630300 -18.359100
C -11.520000 -14.901700 -20.313600
O -11.338700 -13.301000 -26.101300
C -11.306200 -14.111400 -22.617600
C -11.084600 -15.534200 -19.180100
C -10.847400 -13.956300 -23.863400
C -10.715000 -14.757100 -21.456500
H -10.013700 -14.321100 -24.162800
H -9.954800 -16.684400 -17.241400
C -9.778100 -16.026600 -19.126300
C -9.408100 -15.281600 -21.379400
O -9.275200 -16.611200 -18.008100
C -8.952000 -15.902300 -20.231700
O -8.598100 -15.120900 -22.465500
H -8.047400 -16.206700 -20.201200
H -7.858100 -15.707000 -22.475700
17
Fragment
H -12.473800 -11.691000 -17.641100
C -11.589700 -12.054200 -17.775900
H -11.316300 -11.325600 -19.692100
N -11.098700 -12.748800 -16.739700
C -10.882700 -11.819800 -18.942700
H -10.187400 -11.278000 -21.436300
C -9.850200 -13.225900 -16.871300
C -9.595100 -12.312700 -19.058200
H -9.515500 -13.704800 -16.123700
N -9.274600 -11.646500 -21.381300
C -9.071600 -13.025800 -17.990200
C -8.718800 -12.161900 -20.267400
N -8.504100 -11.571100 -22.556600
H -8.235000 -12.462600 -22.805200
H -8.178000 -13.346300 -18.040900
H -7.782500 -11.110300 -22.348400
O -7.544600 -12.515200 -20.253900
38
Fragment
H -13.397200 -12.451100 -25.239600
O -12.817000 -12.824400 -24.492500
H -12.471900 -14.538100 -20.343100
H -12.201600 -13.750300 -22.428300
C -11.677000 -13.338200 -24.901700
H -11.669200 -15.630300 -18.359100
C -11.520000 -14.901700 -20.313600
O -11.338700 -13.301000 -26.101300
C -11.306200 -14.111400 -22.617600
C -11.084600 -15.534200 -19.180100
C -10.847400 -13.956300 -23.863400
C -10.715000 -14.757100 -21.456500
H -10.013700 -14.321100 -24.162800
H -9.954800 -16.684400 -17.241400
C -9.778100 -16.026600 -19.126300
C -9.408100 -15.281600 -21.379400
O -9.275200 -16.611200 -18.008100
C -8.952000 -15.902300 -20.231700
O -8.598100 -15.120900 -22.465500
H -8.047400 -16.206700 -20.201200
H -7.858100 -15.707000 -22.475700
H -12.473800 -11.691000 -17.641100
C -11.589700 -12.054200 -17.775900
H -11.316300 -11.325600 -19.692100
N -11.098700 -12.748800 -16.739700
C -10.882700 -11.819800 -18.942700
H -10.187400 -11.278000 -21.436300
C -9.850200 -13.225900 -16.871300
C -9.595100 -12.312700 -19.058200
H -9.515500 -13.704800 -16.123700
N -9.274600 -11.646500 -21.381300
C -9.071600 -13.025800 -17.990200
C -8.718800 -12.161900 -20.267400
N -8.504100 -11.571100 -22.556600
H -8.235000 -12.462600 -22.805200
H -8.178000 -13.346300 -18.040900
H -7.782500 -11.110300 -22.348400
O -7.544600 -12.515200 -20.253900
