21
Fragment
H -13.397200 -12.451100 -25.239600
O -12.817000 -12.824400 -24.492500
H -12.471900 -14.538100 -20.343100
H -12.201600 -13.750300 -22.428300
C -11.677000 -13.338200 -24.901700
H -11.669200 -15.630300 -18.359100
C -11.520000 -14.901700 -20.313600
O -11.338700 -13.301000 -26.101300
C -11.306200 -14.111400 -22.617600
C -11.084600 -15.534200 -19.180100
C -10.847400 -13.956300 -23.863400
C -10.715000 -14.757100 -21.456500
H -10.013700 -14.321100 -24.162800
H -9.954800 -16.684400 -17.241400
C -9.778100 -16.026600 -19.126300
C -9.408100 -15.281600 -21.379400
O -9.275200 -16.611200 -18.008100
C -8.952000 -15.902300 -20.231700
O -8.598100 -15.120900 -22.465500
H -8.047400 -16.206700 -20.201200
H -7.858100 -15.707000 -22.475700
17
Fragment
O -9.149700 -10.915900 -28.694900
H -8.911800 -12.320800 -26.600400
H -8.516300 -10.084700 -30.907900
H -8.459300 -10.968500 -26.143600
N -8.190100 -11.859900 -26.392200
C -7.975500 -11.269200 -28.681400
C -7.622700 -10.405200 -30.958600
N -7.419700 -11.784500 -27.567500
H -7.178700 -9.726300 -32.825100
C -7.099200 -11.118400 -29.890600
C -6.844000 -10.205200 -32.077500
H -6.506800 -12.153000 -27.512500
C -5.811600 -11.611300 -30.006100
N -5.595600 -10.682200 -32.209100
H -5.377900 -12.105400 -29.256700
C -5.104600 -11.376900 -31.172900
H -4.220400 -11.740000 -31.307700
38
Fragment
H -13.397200 -12.451100 -25.239600
O -12.817000 -12.824400 -24.492500
H -12.471900 -14.538100 -20.343100
H -12.201600 -13.750300 -22.428300
C -11.677000 -13.338200 -24.901700
H -11.669200 -15.630300 -18.359100
C -11.520000 -14.901700 -20.313600
O -11.338700 -13.301000 -26.101300
C -11.306200 -14.111400 -22.617600
C -11.084600 -15.534200 -19.180100
C -10.847400 -13.956300 -23.863400
C -10.715000 -14.757100 -21.456500
H -10.013700 -14.321100 -24.162800
H -9.954800 -16.684400 -17.241400
C -9.778100 -16.026600 -19.126300
C -9.408100 -15.281600 -21.379400
O -9.275200 -16.611200 -18.008100
C -8.952000 -15.902300 -20.231700
O -8.598100 -15.120900 -22.465500
H -8.047400 -16.206700 -20.201200
H -7.858100 -15.707000 -22.475700
O -9.149700 -10.915900 -28.694900
H -8.911800 -12.320800 -26.600400
H -8.516300 -10.084700 -30.907900
H -8.459300 -10.968500 -26.143600
N -8.190100 -11.859900 -26.392200
C -7.975500 -11.269200 -28.681400
C -7.622700 -10.405200 -30.958600
N -7.419700 -11.784500 -27.567500
H -7.178700 -9.726300 -32.825100
C -7.099200 -11.118400 -29.890600
C -6.844000 -10.205200 -32.077500
H -6.506800 -12.153000 -27.512500
C -5.811600 -11.611300 -30.006100
N -5.595600 -10.682200 -32.209100
H -5.377900 -12.105400 -29.256700
C -5.104600 -11.376900 -31.172900
H -4.220400 -11.740000 -31.307700
