21
Fragment
H -13.397200 -12.451100 -25.239600
O -12.817000 -12.824400 -24.492500
H -12.471900 -14.538100 -20.343100
H -12.201600 -13.750300 -22.428300
C -11.677000 -13.338200 -24.901700
H -11.669200 -15.630300 -18.359100
C -11.520000 -14.901700 -20.313600
O -11.338700 -13.301000 -26.101300
C -11.306200 -14.111400 -22.617600
C -11.084600 -15.534200 -19.180100
C -10.847400 -13.956300 -23.863400
C -10.715000 -14.757100 -21.456500
H -10.013700 -14.321100 -24.162800
H -9.954800 -16.684400 -17.241400
C -9.778100 -16.026600 -19.126300
C -9.408100 -15.281600 -21.379400
O -9.275200 -16.611200 -18.008100
C -8.952000 -15.902300 -20.231700
O -8.598100 -15.120900 -22.465500
H -8.047400 -16.206700 -20.201200
H -7.858100 -15.707000 -22.475700
17
Fragment
O -14.602600 -17.015000 -12.378700
H -14.364600 -18.419900 -10.284100
H -13.969100 -16.183800 -14.591600
H -13.912100 -17.067600 -9.827300
N -13.643000 -17.959000 -10.075900
C -13.428300 -17.368300 -12.365100
C -13.075500 -16.504300 -14.642400
N -12.872500 -17.883600 -11.251200
H -12.631600 -15.825300 -16.508800
C -12.552000 -17.217500 -13.574300
C -12.296900 -16.304200 -15.761200
H -11.959700 -18.252100 -11.196200
C -11.264400 -17.710400 -13.689800
N -11.048500 -16.781300 -15.892900
H -10.830800 -18.204500 -12.940400
C -10.557500 -17.476000 -14.856600
H -9.673300 -17.839100 -14.991400
38
Fragment
H -13.397200 -12.451100 -25.239600
O -12.817000 -12.824400 -24.492500
H -12.471900 -14.538100 -20.343100
H -12.201600 -13.750300 -22.428300
C -11.677000 -13.338200 -24.901700
H -11.669200 -15.630300 -18.359100
C -11.520000 -14.901700 -20.313600
O -11.338700 -13.301000 -26.101300
C -11.306200 -14.111400 -22.617600
C -11.084600 -15.534200 -19.180100
C -10.847400 -13.956300 -23.863400
C -10.715000 -14.757100 -21.456500
H -10.013700 -14.321100 -24.162800
H -9.954800 -16.684400 -17.241400
C -9.778100 -16.026600 -19.126300
C -9.408100 -15.281600 -21.379400
O -9.275200 -16.611200 -18.008100
C -8.952000 -15.902300 -20.231700
O -8.598100 -15.120900 -22.465500
H -8.047400 -16.206700 -20.201200
H -7.858100 -15.707000 -22.475700
O -14.602600 -17.015000 -12.378700
H -14.364600 -18.419900 -10.284100
H -13.969100 -16.183800 -14.591600
H -13.912100 -17.067600 -9.827300
N -13.643000 -17.959000 -10.075900
C -13.428300 -17.368300 -12.365100
C -13.075500 -16.504300 -14.642400
N -12.872500 -17.883600 -11.251200
H -12.631600 -15.825300 -16.508800
C -12.552000 -17.217500 -13.574300
C -12.296900 -16.304200 -15.761200
H -11.959700 -18.252100 -11.196200
C -11.264400 -17.710400 -13.689800
N -11.048500 -16.781300 -15.892900
H -10.830800 -18.204500 -12.940400
C -10.557500 -17.476000 -14.856600
H -9.673300 -17.839100 -14.991400
