21
Fragment
H -13.397200 -12.451100 -25.239600
O -12.817000 -12.824400 -24.492500
H -12.471900 -14.538100 -20.343100
H -12.201600 -13.750300 -22.428300
C -11.677000 -13.338200 -24.901700
H -11.669200 -15.630300 -18.359100
C -11.520000 -14.901700 -20.313600
O -11.338700 -13.301000 -26.101300
C -11.306200 -14.111400 -22.617600
C -11.084600 -15.534200 -19.180100
C -10.847400 -13.956300 -23.863400
C -10.715000 -14.757100 -21.456500
H -10.013700 -14.321100 -24.162800
H -9.954800 -16.684400 -17.241400
C -9.778100 -16.026600 -19.126300
C -9.408100 -15.281600 -21.379400
O -9.275200 -16.611200 -18.008100
C -8.952000 -15.902300 -20.231700
O -8.598100 -15.120900 -22.465500
H -8.047400 -16.206700 -20.201200
H -7.858100 -15.707000 -22.475700
17
Fragment
H -7.758100 -18.645700 -17.641100
C -6.874000 -19.008900 -17.775900
H -6.600600 -18.280400 -19.692100
N -6.382900 -19.703600 -16.739700
C -6.167000 -18.774500 -18.942700
H -5.471700 -18.232700 -21.436300
C -5.134500 -20.180600 -16.871300
C -4.879400 -19.267400 -19.058200
H -4.799800 -20.659500 -16.123700
N -4.558900 -18.601200 -21.381300
C -4.355900 -19.980600 -17.990200
C -4.003100 -19.116600 -20.267400
N -3.788400 -18.525900 -22.556600
H -3.519300 -19.417300 -22.805200
H -3.462300 -20.301100 -18.040900
H -3.066800 -18.065000 -22.348400
O -2.828900 -19.469900 -20.253900
38
Fragment
H -13.397200 -12.451100 -25.239600
O -12.817000 -12.824400 -24.492500
H -12.471900 -14.538100 -20.343100
H -12.201600 -13.750300 -22.428300
C -11.677000 -13.338200 -24.901700
H -11.669200 -15.630300 -18.359100
C -11.520000 -14.901700 -20.313600
O -11.338700 -13.301000 -26.101300
C -11.306200 -14.111400 -22.617600
C -11.084600 -15.534200 -19.180100
C -10.847400 -13.956300 -23.863400
C -10.715000 -14.757100 -21.456500
H -10.013700 -14.321100 -24.162800
H -9.954800 -16.684400 -17.241400
C -9.778100 -16.026600 -19.126300
C -9.408100 -15.281600 -21.379400
O -9.275200 -16.611200 -18.008100
C -8.952000 -15.902300 -20.231700
O -8.598100 -15.120900 -22.465500
H -8.047400 -16.206700 -20.201200
H -7.858100 -15.707000 -22.475700
H -7.758100 -18.645700 -17.641100
C -6.874000 -19.008900 -17.775900
H -6.600600 -18.280400 -19.692100
N -6.382900 -19.703600 -16.739700
C -6.167000 -18.774500 -18.942700
H -5.471700 -18.232700 -21.436300
C -5.134500 -20.180600 -16.871300
C -4.879400 -19.267400 -19.058200
H -4.799800 -20.659500 -16.123700
N -4.558900 -18.601200 -21.381300
C -4.355900 -19.980600 -17.990200
C -4.003100 -19.116600 -20.267400
N -3.788400 -18.525900 -22.556600
H -3.519300 -19.417300 -22.805200
H -3.462300 -20.301100 -18.040900
H -3.066800 -18.065000 -22.348400
O -2.828900 -19.469900 -20.253900
