21
Fragment
H -13.397200 -12.451100 -25.239600
O -12.817000 -12.824400 -24.492500
H -12.471900 -14.538100 -20.343100
H -12.201600 -13.750300 -22.428300
C -11.677000 -13.338200 -24.901700
H -11.669200 -15.630300 -18.359100
C -11.520000 -14.901700 -20.313600
O -11.338700 -13.301000 -26.101300
C -11.306200 -14.111400 -22.617600
C -11.084600 -15.534200 -19.180100
C -10.847400 -13.956300 -23.863400
C -10.715000 -14.757100 -21.456500
H -10.013700 -14.321100 -24.162800
H -9.954800 -16.684400 -17.241400
C -9.778100 -16.026600 -19.126300
C -9.408100 -15.281600 -21.379400
O -9.275200 -16.611200 -18.008100
C -8.952000 -15.902300 -20.231700
O -8.598100 -15.120900 -22.465500
H -8.047400 -16.206700 -20.201200
H -7.858100 -15.707000 -22.475700
21
Fragment
H -14.970800 -7.724000 -26.473100
H -14.781600 -7.224300 -28.747600
O -14.230900 -8.310100 -26.483300
C -13.877000 -7.528700 -28.717100
O -13.553700 -6.819800 -30.940700
C -13.420900 -8.149400 -27.569400
C -13.050900 -7.404500 -29.822500
H -12.874200 -6.746700 -31.707400
H -12.815300 -9.109900 -24.786000
C -12.113900 -8.673900 -27.492300
C -11.981500 -9.474800 -25.085400
C -11.744400 -7.896800 -29.768700
C -11.522800 -9.319600 -26.331200
O -11.490300 -10.130100 -22.847500
C -11.309000 -8.529400 -28.635200
H -11.159800 -7.800800 -30.589700
C -11.152000 -10.092800 -24.047100
H -10.627400 -9.680800 -26.520500
H -10.357000 -8.893000 -28.605700
O -10.011900 -10.606700 -24.456300
H -9.431800 -10.979900 -23.709200
42
Fragment
H -13.397200 -12.451100 -25.239600
O -12.817000 -12.824400 -24.492500
H -12.471900 -14.538100 -20.343100
H -12.201600 -13.750300 -22.428300
C -11.677000 -13.338200 -24.901700
H -11.669200 -15.630300 -18.359100
C -11.520000 -14.901700 -20.313600
O -11.338700 -13.301000 -26.101300
C -11.306200 -14.111400 -22.617600
C -11.084600 -15.534200 -19.180100
C -10.847400 -13.956300 -23.863400
C -10.715000 -14.757100 -21.456500
H -10.013700 -14.321100 -24.162800
H -9.954800 -16.684400 -17.241400
C -9.778100 -16.026600 -19.126300
C -9.408100 -15.281600 -21.379400
O -9.275200 -16.611200 -18.008100
C -8.952000 -15.902300 -20.231700
O -8.598100 -15.120900 -22.465500
H -8.047400 -16.206700 -20.201200
H -7.858100 -15.707000 -22.475700
H -14.970800 -7.724000 -26.473100
H -14.781600 -7.224300 -28.747600
O -14.230900 -8.310100 -26.483300
C -13.877000 -7.528700 -28.717100
O -13.553700 -6.819800 -30.940700
C -13.420900 -8.149400 -27.569400
C -13.050900 -7.404500 -29.822500
H -12.874200 -6.746700 -31.707400
H -12.815300 -9.109900 -24.786000
C -12.113900 -8.673900 -27.492300
C -11.981500 -9.474800 -25.085400
C -11.744400 -7.896800 -29.768700
C -11.522800 -9.319600 -26.331200
O -11.490300 -10.130100 -22.847500
C -11.309000 -8.529400 -28.635200
H -11.159800 -7.800800 -30.589700
C -11.152000 -10.092800 -24.047100
H -10.627400 -9.680800 -26.520500
H -10.357000 -8.893000 -28.605700
O -10.011900 -10.606700 -24.456300
H -9.431800 -10.979900 -23.709200
