24
Fragment
H -5.087400 -19.083800 -21.992600
H -4.844800 -19.948800 -20.708500
H -4.552300 -16.680800 -21.592600
C -4.421200 -19.423900 -21.391600
C -3.921000 -17.002500 -20.990900
H -3.801200 -19.971200 -21.877400
N -3.704600 -18.305200 -20.773300
N -3.131500 -16.208900 -20.249300
C -2.693100 -18.378100 -19.837100
C -2.374800 -17.082000 -19.530800
O -2.324500 -20.687300 -19.473800
C -2.075600 -19.507700 -19.236000
H -1.661100 -14.806300 -18.684000
N -1.407600 -16.791100 -18.595100
H -1.293900 -15.313800 -17.247200
C -1.111700 -15.414300 -18.183800
N -1.107900 -19.130600 -18.292500
C -0.770600 -17.824800 -17.937900
H -0.716300 -21.049300 -17.869800
H -0.528400 -20.098800 -16.637500
C -0.388600 -20.194500 -17.581900
H -0.186200 -15.222700 -18.352600
O 0.060300 -17.606600 -17.064300
H 0.549100 -20.129600 -17.774000
24
Fragment
H 0.666600 -15.965700 -15.520400
H 0.909200 -15.100700 -14.236300
H 1.201700 -18.368700 -15.120400
C 1.332800 -15.625600 -14.919400
C 1.833000 -18.047000 -14.518600
H 1.952800 -15.078300 -15.405200
N 2.049400 -16.744300 -14.301000
N 2.622500 -18.840600 -13.777000
C 3.060900 -16.671400 -13.364900
C 3.379200 -17.967500 -13.058600
O 3.429500 -14.362200 -13.001500
C 3.678400 -15.541800 -12.763700
H 4.092900 -20.243200 -12.211800
N 4.346400 -18.258400 -12.122900
H 4.460100 -19.735700 -10.775000
C 4.642300 -19.635200 -11.711600
N 4.646100 -15.918900 -11.820200
C 4.983400 -17.224700 -11.465700
H 5.037700 -14.000200 -11.397600
H 5.225600 -14.950700 -10.165300
C 5.365400 -14.855000 -11.109700
H 5.567800 -19.826800 -11.880400
O 5.814300 -17.442900 -10.592100
H 6.303100 -14.919900 -11.301800
48
Fragment
H -5.087400 -19.083800 -21.992600
H -4.844800 -19.948800 -20.708500
H -4.552300 -16.680800 -21.592600
C -4.421200 -19.423900 -21.391600
C -3.921000 -17.002500 -20.990900
H -3.801200 -19.971200 -21.877400
N -3.704600 -18.305200 -20.773300
N -3.131500 -16.208900 -20.249300
C -2.693100 -18.378100 -19.837100
C -2.374800 -17.082000 -19.530800
O -2.324500 -20.687300 -19.473800
C -2.075600 -19.507700 -19.236000
H -1.661100 -14.806300 -18.684000
N -1.407600 -16.791100 -18.595100
H -1.293900 -15.313800 -17.247200
C -1.111700 -15.414300 -18.183800
N -1.107900 -19.130600 -18.292500
C -0.770600 -17.824800 -17.937900
H -0.716300 -21.049300 -17.869800
H -0.528400 -20.098800 -16.637500
C -0.388600 -20.194500 -17.581900
H -0.186200 -15.222700 -18.352600
O 0.060300 -17.606600 -17.064300
H 0.549100 -20.129600 -17.774000
H 0.666600 -15.965700 -15.520400
H 0.909200 -15.100700 -14.236300
H 1.201700 -18.368700 -15.120400
C 1.332800 -15.625600 -14.919400
C 1.833000 -18.047000 -14.518600
H 1.952800 -15.078300 -15.405200
N 2.049400 -16.744300 -14.301000
N 2.622500 -18.840600 -13.777000
C 3.060900 -16.671400 -13.364900
C 3.379200 -17.967500 -13.058600
O 3.429500 -14.362200 -13.001500
C 3.678400 -15.541800 -12.763700
H 4.092900 -20.243200 -12.211800
N 4.346400 -18.258400 -12.122900
H 4.460100 -19.735700 -10.775000
C 4.642300 -19.635200 -11.711600
N 4.646100 -15.918900 -11.820200
C 4.983400 -17.224700 -11.465700
H 5.037700 -14.000200 -11.397600
H 5.225600 -14.950700 -10.165300
C 5.365400 -14.855000 -11.109700
H 5.567800 -19.826800 -11.880400
O 5.814300 -17.442900 -10.592100
H 6.303100 -14.919900 -11.301800
