24
Fragment
H -5.087400 -19.083800 -21.992600
H -4.844800 -19.948800 -20.708500
H -4.552300 -16.680800 -21.592600
C -4.421200 -19.423900 -21.391600
C -3.921000 -17.002500 -20.990900
H -3.801200 -19.971200 -21.877400
N -3.704600 -18.305200 -20.773300
N -3.131500 -16.208900 -20.249300
C -2.693100 -18.378100 -19.837100
C -2.374800 -17.082000 -19.530800
O -2.324500 -20.687300 -19.473800
C -2.075600 -19.507700 -19.236000
H -1.661100 -14.806300 -18.684000
N -1.407600 -16.791100 -18.595100
H -1.293900 -15.313800 -17.247200
C -1.111700 -15.414300 -18.183800
N -1.107900 -19.130600 -18.292500
C -0.770600 -17.824800 -17.937900
H -0.716300 -21.049300 -17.869800
H -0.528400 -20.098800 -16.637500
C -0.388600 -20.194500 -17.581900
H -0.186200 -15.222700 -18.352600
O 0.060300 -17.606600 -17.064300
H 0.549100 -20.129600 -17.774000
24
Fragment
H -10.841400 -15.965700 -28.464800
H -10.598800 -15.100700 -27.180800
H -10.306300 -18.368700 -28.064900
C -10.175100 -15.625600 -27.863800
C -9.674900 -18.047000 -27.463100
H -9.555200 -15.078300 -28.349600
N -9.458500 -16.744300 -27.245500
N -8.885500 -18.840600 -26.721500
C -8.447100 -16.671400 -26.309300
C -8.128800 -17.967500 -26.003100
O -8.078500 -14.362200 -25.946000
C -7.829600 -15.541800 -25.708200
H -7.415100 -20.243200 -25.156200
N -7.161600 -18.258400 -25.067300
H -7.047900 -19.735700 -23.719400
C -6.865700 -19.635200 -24.656100
N -6.861800 -15.918900 -24.764700
C -6.524600 -17.224700 -24.410100
H -6.470300 -14.000200 -24.342000
H -6.282400 -14.950700 -23.109700
C -6.142600 -14.855000 -24.054200
H -5.940100 -19.826800 -24.824900
O -5.693700 -17.442900 -23.536500
H -5.204900 -14.919900 -24.246300
48
Fragment
H -5.087400 -19.083800 -21.992600
H -4.844800 -19.948800 -20.708500
H -4.552300 -16.680800 -21.592600
C -4.421200 -19.423900 -21.391600
C -3.921000 -17.002500 -20.990900
H -3.801200 -19.971200 -21.877400
N -3.704600 -18.305200 -20.773300
N -3.131500 -16.208900 -20.249300
C -2.693100 -18.378100 -19.837100
C -2.374800 -17.082000 -19.530800
O -2.324500 -20.687300 -19.473800
C -2.075600 -19.507700 -19.236000
H -1.661100 -14.806300 -18.684000
N -1.407600 -16.791100 -18.595100
H -1.293900 -15.313800 -17.247200
C -1.111700 -15.414300 -18.183800
N -1.107900 -19.130600 -18.292500
C -0.770600 -17.824800 -17.937900
H -0.716300 -21.049300 -17.869800
H -0.528400 -20.098800 -16.637500
C -0.388600 -20.194500 -17.581900
H -0.186200 -15.222700 -18.352600
O 0.060300 -17.606600 -17.064300
H 0.549100 -20.129600 -17.774000
H -10.841400 -15.965700 -28.464800
H -10.598800 -15.100700 -27.180800
H -10.306300 -18.368700 -28.064900
C -10.175100 -15.625600 -27.863800
C -9.674900 -18.047000 -27.463100
H -9.555200 -15.078300 -28.349600
N -9.458500 -16.744300 -27.245500
N -8.885500 -18.840600 -26.721500
C -8.447100 -16.671400 -26.309300
C -8.128800 -17.967500 -26.003100
O -8.078500 -14.362200 -25.946000
C -7.829600 -15.541800 -25.708200
H -7.415100 -20.243200 -25.156200
N -7.161600 -18.258400 -25.067300
H -7.047900 -19.735700 -23.719400
C -6.865700 -19.635200 -24.656100
N -6.861800 -15.918900 -24.764700
C -6.524600 -17.224700 -24.410100
H -6.470300 -14.000200 -24.342000
H -6.282400 -14.950700 -23.109700
C -6.142600 -14.855000 -24.054200
H -5.940100 -19.826800 -24.824900
O -5.693700 -17.442900 -23.536500
H -5.204900 -14.919900 -24.246300
