24
Fragment
H -5.087400 -19.083800 -21.992600
H -4.844800 -19.948800 -20.708500
H -4.552300 -16.680800 -21.592600
C -4.421200 -19.423900 -21.391600
C -3.921000 -17.002500 -20.990900
H -3.801200 -19.971200 -21.877400
N -3.704600 -18.305200 -20.773300
N -3.131500 -16.208900 -20.249300
C -2.693100 -18.378100 -19.837100
C -2.374800 -17.082000 -19.530800
O -2.324500 -20.687300 -19.473800
C -2.075600 -19.507700 -19.236000
H -1.661100 -14.806300 -18.684000
N -1.407600 -16.791100 -18.595100
H -1.293900 -15.313800 -17.247200
C -1.111700 -15.414300 -18.183800
N -1.107900 -19.130600 -18.292500
C -0.770600 -17.824800 -17.937900
H -0.716300 -21.049300 -17.869800
H -0.528400 -20.098800 -16.637500
C -0.388600 -20.194500 -17.581900
H -0.186200 -15.222700 -18.352600
O 0.060300 -17.606600 -17.064300
H 0.549100 -20.129600 -17.774000
18
Fragment
H -7.010600 -23.048600 -24.870200
O -6.503300 -25.244100 -24.422200
O -6.484600 -23.006600 -24.228100
C -6.084600 -24.234900 -23.895700
C -5.062100 -24.220200 -22.809300
H -4.915900 -26.232400 -22.637300
H -4.869900 -22.210200 -22.639800
C -4.591900 -25.428300 -22.300600
C -4.555700 -23.019500 -22.306000
O -3.678500 -27.789100 -21.203800
C -3.635300 -25.432500 -21.285100
C -3.588000 -23.024600 -21.312800
H -3.354500 -28.519100 -20.746100
H -3.250800 -22.220000 -20.989400
C -3.158200 -26.699900 -20.670700
C -3.123300 -24.224800 -20.800200
H -2.473100 -24.227600 -20.135100
O -2.359300 -26.738300 -19.749700
42
Fragment
H -5.087400 -19.083800 -21.992600
H -4.844800 -19.948800 -20.708500
H -4.552300 -16.680800 -21.592600
C -4.421200 -19.423900 -21.391600
C -3.921000 -17.002500 -20.990900
H -3.801200 -19.971200 -21.877400
N -3.704600 -18.305200 -20.773300
N -3.131500 -16.208900 -20.249300
C -2.693100 -18.378100 -19.837100
C -2.374800 -17.082000 -19.530800
O -2.324500 -20.687300 -19.473800
C -2.075600 -19.507700 -19.236000
H -1.661100 -14.806300 -18.684000
N -1.407600 -16.791100 -18.595100
H -1.293900 -15.313800 -17.247200
C -1.111700 -15.414300 -18.183800
N -1.107900 -19.130600 -18.292500
C -0.770600 -17.824800 -17.937900
H -0.716300 -21.049300 -17.869800
H -0.528400 -20.098800 -16.637500
C -0.388600 -20.194500 -17.581900
H -0.186200 -15.222700 -18.352600
O 0.060300 -17.606600 -17.064300
H 0.549100 -20.129600 -17.774000
H -7.010600 -23.048600 -24.870200
O -6.503300 -25.244100 -24.422200
O -6.484600 -23.006600 -24.228100
C -6.084600 -24.234900 -23.895700
C -5.062100 -24.220200 -22.809300
H -4.915900 -26.232400 -22.637300
H -4.869900 -22.210200 -22.639800
C -4.591900 -25.428300 -22.300600
C -4.555700 -23.019500 -22.306000
O -3.678500 -27.789100 -21.203800
C -3.635300 -25.432500 -21.285100
C -3.588000 -23.024600 -21.312800
H -3.354500 -28.519100 -20.746100
H -3.250800 -22.220000 -20.989400
C -3.158200 -26.699900 -20.670700
C -3.123300 -24.224800 -20.800200
H -2.473100 -24.227600 -20.135100
O -2.359300 -26.738300 -19.749700
