16
Fragment
H -36.584200 -41.452900 -10.081700
H -35.923600 -40.036200 -10.316600
N -35.895800 -40.976300 -10.213800
N -34.861100 -43.006000 -10.478200
C -34.802900 -41.655200 -10.542800
H -34.593200 -45.458100 -11.020800
C -33.727500 -43.630400 -10.790200
C -33.723300 -45.116900 -10.726400
N -33.709600 -40.954500 -10.903300
H -33.554800 -45.402800 -9.804800
H -33.019400 -45.466000 -11.311600
C -32.633000 -41.686800 -11.195600
N -32.577800 -43.043400 -11.152200
H -31.540600 -40.189000 -11.704400
N -31.524900 -41.055600 -11.579600
H -30.845300 -41.495100 -11.836600
16
Fragment
H -39.409600 -43.117200 -6.152500
H -38.957600 -43.293600 -4.618600
C -38.643300 -43.061300 -5.529100
O -38.584400 -40.659000 -5.147300
C -38.052500 -41.687000 -5.546800
H -37.849700 -44.623400 -6.666500
C -37.528700 -44.001900 -5.966000
H -37.198400 -44.531200 -5.198000
N -36.833100 -41.756000 -6.108500
H -36.486800 -39.794000 -6.151100
C -36.420800 -43.091900 -6.514500
H -36.361600 -43.159300 -7.500700
C -36.007500 -40.612400 -6.395600
H -35.796100 -40.594500 -7.352300
H -35.543500 -43.325200 -6.121700
H -35.177300 -40.670900 -5.878600
32
Fragment
H -36.584200 -41.452900 -10.081700
H -35.923600 -40.036200 -10.316600
N -35.895800 -40.976300 -10.213800
N -34.861100 -43.006000 -10.478200
C -34.802900 -41.655200 -10.542800
H -34.593200 -45.458100 -11.020800
C -33.727500 -43.630400 -10.790200
C -33.723300 -45.116900 -10.726400
N -33.709600 -40.954500 -10.903300
H -33.554800 -45.402800 -9.804800
H -33.019400 -45.466000 -11.311600
C -32.633000 -41.686800 -11.195600
N -32.577800 -43.043400 -11.152200
H -31.540600 -40.189000 -11.704400
N -31.524900 -41.055600 -11.579600
H -30.845300 -41.495100 -11.836600
H -39.409600 -43.117200 -6.152500
H -38.957600 -43.293600 -4.618600
C -38.643300 -43.061300 -5.529100
O -38.584400 -40.659000 -5.147300
C -38.052500 -41.687000 -5.546800
H -37.849700 -44.623400 -6.666500
C -37.528700 -44.001900 -5.966000
H -37.198400 -44.531200 -5.198000
N -36.833100 -41.756000 -6.108500
H -36.486800 -39.794000 -6.151100
C -36.420800 -43.091900 -6.514500
H -36.361600 -43.159300 -7.500700
C -36.007500 -40.612400 -6.395600
H -35.796100 -40.594500 -7.352300
H -35.543500 -43.325200 -6.121700
H -35.177300 -40.670900 -5.878600
