16
Fragment
H -36.584200 -41.452900 -10.081700
H -35.923600 -40.036200 -10.316600
N -35.895800 -40.976300 -10.213800
N -34.861100 -43.006000 -10.478200
C -34.802900 -41.655200 -10.542800
H -34.593200 -45.458100 -11.020800
C -33.727500 -43.630400 -10.790200
C -33.723300 -45.116900 -10.726400
N -33.709600 -40.954500 -10.903300
H -33.554800 -45.402800 -9.804800
H -33.019400 -45.466000 -11.311600
C -32.633000 -41.686800 -11.195600
N -32.577800 -43.043400 -11.152200
H -31.540600 -40.189000 -11.704400
N -31.524900 -41.055600 -11.579600
H -30.845300 -41.495100 -11.836600
16
Fragment
H -34.356700 -38.327200 -13.221400
H -33.990500 -35.672900 -13.464500
H -33.737900 -38.403600 -14.695100
C -33.526500 -38.385700 -13.738400
H -33.172400 -35.838800 -14.843500
C -33.113200 -35.906200 -13.857300
H -33.047200 -39.204100 -13.493900
N -32.700900 -37.242100 -13.451300
H -32.335600 -34.466900 -12.540800
C -32.005300 -34.996200 -13.308800
H -31.684300 -34.374700 -14.009300
C -31.481500 -37.311100 -12.889600
O -30.949600 -38.339100 -12.490100
C -30.890700 -35.936800 -12.871900
H -30.576400 -35.704500 -11.961400
H -30.124400 -35.880900 -13.495300
32
Fragment
H -36.584200 -41.452900 -10.081700
H -35.923600 -40.036200 -10.316600
N -35.895800 -40.976300 -10.213800
N -34.861100 -43.006000 -10.478200
C -34.802900 -41.655200 -10.542800
H -34.593200 -45.458100 -11.020800
C -33.727500 -43.630400 -10.790200
C -33.723300 -45.116900 -10.726400
N -33.709600 -40.954500 -10.903300
H -33.554800 -45.402800 -9.804800
H -33.019400 -45.466000 -11.311600
C -32.633000 -41.686800 -11.195600
N -32.577800 -43.043400 -11.152200
H -31.540600 -40.189000 -11.704400
N -31.524900 -41.055600 -11.579600
H -30.845300 -41.495100 -11.836600
H -34.356700 -38.327200 -13.221400
H -33.990500 -35.672900 -13.464500
H -33.737900 -38.403600 -14.695100
C -33.526500 -38.385700 -13.738400
H -33.172400 -35.838800 -14.843500
C -33.113200 -35.906200 -13.857300
H -33.047200 -39.204100 -13.493900
N -32.700900 -37.242100 -13.451300
H -32.335600 -34.466900 -12.540800
C -32.005300 -34.996200 -13.308800
H -31.684300 -34.374700 -14.009300
C -31.481500 -37.311100 -12.889600
O -30.949600 -38.339100 -12.490100
C -30.890700 -35.936800 -12.871900
H -30.576400 -35.704500 -11.961400
H -30.124400 -35.880900 -13.495300
