16
Fragment
H -36.584200 -41.452900 -10.081700
H -35.923600 -40.036200 -10.316600
N -35.895800 -40.976300 -10.213800
N -34.861100 -43.006000 -10.478200
C -34.802900 -41.655200 -10.542800
H -34.593200 -45.458100 -11.020800
C -33.727500 -43.630400 -10.790200
C -33.723300 -45.116900 -10.726400
N -33.709600 -40.954500 -10.903300
H -33.554800 -45.402800 -9.804800
H -33.019400 -45.466000 -11.311600
C -32.633000 -41.686800 -11.195600
N -32.577800 -43.043400 -11.152200
H -31.540600 -40.189000 -11.704400
N -31.524900 -41.055600 -11.579600
H -30.845300 -41.495100 -11.836600
16
Fragment
H -34.356700 -51.493600 -9.550000
H -33.990500 -48.839300 -9.793100
H -33.737900 -51.570000 -11.023700
C -33.526500 -51.552100 -10.067000
H -33.172400 -49.005200 -11.172100
C -33.113200 -49.072600 -10.185900
H -33.047200 -52.370500 -9.822500
N -32.700900 -50.408400 -9.779900
H -32.335600 -47.633200 -8.869400
C -32.005300 -48.162500 -9.637400
H -31.684300 -47.541100 -10.337900
C -31.481500 -50.477400 -9.218200
O -30.949600 -51.505400 -8.818700
C -30.890700 -49.103100 -9.200500
H -30.576400 -48.870900 -8.290000
H -30.124400 -49.047300 -9.823900
32
Fragment
H -36.584200 -41.452900 -10.081700
H -35.923600 -40.036200 -10.316600
N -35.895800 -40.976300 -10.213800
N -34.861100 -43.006000 -10.478200
C -34.802900 -41.655200 -10.542800
H -34.593200 -45.458100 -11.020800
C -33.727500 -43.630400 -10.790200
C -33.723300 -45.116900 -10.726400
N -33.709600 -40.954500 -10.903300
H -33.554800 -45.402800 -9.804800
H -33.019400 -45.466000 -11.311600
C -32.633000 -41.686800 -11.195600
N -32.577800 -43.043400 -11.152200
H -31.540600 -40.189000 -11.704400
N -31.524900 -41.055600 -11.579600
H -30.845300 -41.495100 -11.836600
H -34.356700 -51.493600 -9.550000
H -33.990500 -48.839300 -9.793100
H -33.737900 -51.570000 -11.023700
C -33.526500 -51.552100 -10.067000
H -33.172400 -49.005200 -11.172100
C -33.113200 -49.072600 -10.185900
H -33.047200 -52.370500 -9.822500
N -32.700900 -50.408400 -9.779900
H -32.335600 -47.633200 -8.869400
C -32.005300 -48.162500 -9.637400
H -31.684300 -47.541100 -10.337900
C -31.481500 -50.477400 -9.218200
O -30.949600 -51.505400 -8.818700
C -30.890700 -49.103100 -9.200500
H -30.576400 -48.870900 -8.290000
H -30.124400 -49.047300 -9.823900
