18
Fragment
H -6.125900 -9.438600 -29.181400
O -6.088200 -9.907900 -31.474400
O -5.414300 -9.924000 -29.350000
C -5.310600 -10.235100 -30.606400
F -4.418600 -10.795500 -33.262200
C -4.115200 -11.095100 -30.920200
C -3.748600 -11.350700 -32.239300
F -3.587500 -11.580200 -28.646600
C -3.333500 -11.722500 -29.953400
C -2.689800 -12.165300 -32.571900
F -2.435800 -12.307600 -33.878700
C -2.274700 -12.537100 -30.286000
C -1.908100 -12.792700 -31.605100
F -1.604700 -13.092300 -29.263100
C -0.712700 -13.652700 -31.919000
O -0.609000 -13.963800 -33.175300
O 0.064900 -13.979900 -31.050900
H 0.102600 -14.449200 -33.343900
14
Fragment
H -5.409200 -14.150300 -27.875700
H -5.065600 -14.264600 -25.564900
C -4.667800 -14.616100 -27.507200
C -4.454100 -14.693400 -26.152300
H -4.147900 -15.096400 -30.257900
C -3.725000 -15.268300 -28.310600
N -3.588900 -15.414000 -29.657000
C -3.352000 -15.390900 -25.603700
H -3.248400 -15.419600 -24.659800
C -2.635000 -15.959400 -27.780600
N -2.510800 -16.137800 -29.957800
C -2.426700 -16.027900 -26.394000
N -1.918100 -16.477800 -28.839800
H -1.685300 -16.490500 -26.022200
32
Fragment
H -6.125900 -9.438600 -29.181400
O -6.088200 -9.907900 -31.474400
O -5.414300 -9.924000 -29.350000
C -5.310600 -10.235100 -30.606400
F -4.418600 -10.795500 -33.262200
C -4.115200 -11.095100 -30.920200
C -3.748600 -11.350700 -32.239300
F -3.587500 -11.580200 -28.646600
C -3.333500 -11.722500 -29.953400
C -2.689800 -12.165300 -32.571900
F -2.435800 -12.307600 -33.878700
C -2.274700 -12.537100 -30.286000
C -1.908100 -12.792700 -31.605100
F -1.604700 -13.092300 -29.263100
C -0.712700 -13.652700 -31.919000
O -0.609000 -13.963800 -33.175300
O 0.064900 -13.979900 -31.050900
H 0.102600 -14.449200 -33.343900
H -5.409200 -14.150300 -27.875700
H -5.065600 -14.264600 -25.564900
C -4.667800 -14.616100 -27.507200
C -4.454100 -14.693400 -26.152300
H -4.147900 -15.096400 -30.257900
C -3.725000 -15.268300 -28.310600
N -3.588900 -15.414000 -29.657000
C -3.352000 -15.390900 -25.603700
H -3.248400 -15.419600 -24.659800
C -2.635000 -15.959400 -27.780600
N -2.510800 -16.137800 -29.957800
C -2.426700 -16.027900 -26.394000
N -1.918100 -16.477800 -28.839800
H -1.685300 -16.490500 -26.022200
