16
Fragment
O -16.709600 -9.066600 -17.361600
H -16.025500 -6.765900 -18.703100
O -15.991700 -8.752300 -15.314900
N -15.845400 -8.713000 -16.539900
H -15.301300 -7.000000 -20.924400
C -15.053600 -6.771100 -18.891900
H -14.864800 -8.840100 -18.899500
N -14.845000 -6.568600 -20.302100
N -14.663300 -8.292800 -16.989600
H -14.643400 -6.021400 -18.392300
C -14.454700 -8.090400 -18.399900
H -14.207000 -7.861500 -16.367400
N -13.662900 -6.148500 -20.751900
O -13.516500 -6.109100 -21.976900
H -13.482700 -8.095500 -18.588700
O -12.798700 -5.794900 -19.930200
16
Fragment
O -11.113600 -9.066600 -17.361600
H -10.429500 -6.765900 -18.703100
O -10.395700 -8.752300 -15.314900
N -10.249400 -8.713000 -16.539900
H -9.705300 -7.000000 -20.924400
C -9.457600 -6.771100 -18.891900
H -9.268800 -8.840100 -18.899500
N -9.249000 -6.568600 -20.302100
N -9.067300 -8.292800 -16.989600
H -9.047400 -6.021400 -18.392300
C -8.858700 -8.090400 -18.399900
H -8.611000 -7.861500 -16.367400
N -8.066900 -6.148500 -20.751900
O -7.920500 -6.109100 -21.976900
H -7.886700 -8.095500 -18.588700
O -7.202700 -5.794900 -19.930200
32
Fragment
O -16.709600 -9.066600 -17.361600
H -16.025500 -6.765900 -18.703100
O -15.991700 -8.752300 -15.314900
N -15.845400 -8.713000 -16.539900
H -15.301300 -7.000000 -20.924400
C -15.053600 -6.771100 -18.891900
H -14.864800 -8.840100 -18.899500
N -14.845000 -6.568600 -20.302100
N -14.663300 -8.292800 -16.989600
H -14.643400 -6.021400 -18.392300
C -14.454700 -8.090400 -18.399900
H -14.207000 -7.861500 -16.367400
N -13.662900 -6.148500 -20.751900
O -13.516500 -6.109100 -21.976900
H -13.482700 -8.095500 -18.588700
O -12.798700 -5.794900 -19.930200
O -11.113600 -9.066600 -17.361600
H -10.429500 -6.765900 -18.703100
O -10.395700 -8.752300 -15.314900
N -10.249400 -8.713000 -16.539900
H -9.705300 -7.000000 -20.924400
C -9.457600 -6.771100 -18.891900
H -9.268800 -8.840100 -18.899500
N -9.249000 -6.568600 -20.302100
N -9.067300 -8.292800 -16.989600
H -9.047400 -6.021400 -18.392300
C -8.858700 -8.090400 -18.399900
H -8.611000 -7.861500 -16.367400
N -8.066900 -6.148500 -20.751900
O -7.920500 -6.109100 -21.976900
H -7.886700 -8.095500 -18.588700
O -7.202700 -5.794900 -19.930200
