26
Fragment
H -16.160300 -12.300600 -17.951600
C -15.271000 -12.628800 -18.009100
N -14.878800 -13.534300 -17.109200
H -14.805000 -11.499900 -19.627200
C -14.468700 -12.141600 -19.012200
H -13.622800 -11.384000 -21.518500
C -13.613000 -13.954500 -17.199400
H -13.300000 -14.582600 -16.559900
H -13.217300 -10.241500 -23.551800
H -13.185600 -12.888500 -21.831700
C -13.159800 -12.597600 -19.119000
C -12.846900 -11.996400 -21.567000
C -12.739400 -13.523700 -18.173900
C -12.328800 -10.576400 -23.577300
C -12.221300 -12.103700 -20.184200
C -11.908400 -11.502500 -22.632200
H -11.882600 -11.211600 -19.919500
H -11.850900 -13.858600 -18.199300
H -11.768200 -9.517500 -25.191300
C -11.455200 -10.145700 -24.551800
H -11.445400 -12.716100 -20.232600
C -10.599500 -11.958500 -22.738900
H -10.263200 -12.600200 -22.123900
N -10.189400 -10.565800 -24.641900
C -9.797200 -11.471300 -23.742100
H -8.907900 -11.799500 -23.799500
26
Fragment
H -13.264600 -14.796400 -24.059800
H -12.930100 -13.285700 -25.756300
H -12.671700 -11.707400 -29.774100
C -12.397900 -14.728700 -24.442400
H -12.224700 -10.237800 -31.477600
C -12.207900 -13.823000 -25.451800
H -11.993300 -13.690600 -28.509100
C -11.795300 -11.661800 -30.137600
C -11.520400 -10.785100 -31.150400
N -11.436100 -15.522800 -23.965400
H -11.252100 -11.951900 -27.042200
C -11.041300 -13.417200 -28.507700
C -10.947700 -13.696600 -26.026600
C -10.794800 -12.486400 -29.641600
C -10.701200 -12.765700 -27.160500
H -10.490400 -14.231100 -28.626000
N -10.306400 -10.660200 -31.702800
C -10.222100 -15.397800 -24.517800
C -9.947200 -14.521200 -25.530500
H -9.749200 -12.492400 -27.159100
C -9.534600 -12.360000 -30.216400
H -9.517800 -15.945100 -24.190600
C -9.344600 -11.454200 -31.225800
H -9.070800 -14.475600 -25.894100
H -8.812500 -12.897300 -29.911900
H -8.478000 -11.386500 -31.608400
52
Fragment
H -16.160300 -12.300600 -17.951600
C -15.271000 -12.628800 -18.009100
N -14.878800 -13.534300 -17.109200
H -14.805000 -11.499900 -19.627200
C -14.468700 -12.141600 -19.012200
H -13.622800 -11.384000 -21.518500
C -13.613000 -13.954500 -17.199400
H -13.300000 -14.582600 -16.559900
H -13.217300 -10.241500 -23.551800
H -13.185600 -12.888500 -21.831700
C -13.159800 -12.597600 -19.119000
C -12.846900 -11.996400 -21.567000
C -12.739400 -13.523700 -18.173900
C -12.328800 -10.576400 -23.577300
C -12.221300 -12.103700 -20.184200
C -11.908400 -11.502500 -22.632200
H -11.882600 -11.211600 -19.919500
H -11.850900 -13.858600 -18.199300
H -11.768200 -9.517500 -25.191300
C -11.455200 -10.145700 -24.551800
H -11.445400 -12.716100 -20.232600
C -10.599500 -11.958500 -22.738900
H -10.263200 -12.600200 -22.123900
N -10.189400 -10.565800 -24.641900
C -9.797200 -11.471300 -23.742100
H -8.907900 -11.799500 -23.799500
H -13.264600 -14.796400 -24.059800
H -12.930100 -13.285700 -25.756300
H -12.671700 -11.707400 -29.774100
C -12.397900 -14.728700 -24.442400
H -12.224700 -10.237800 -31.477600
C -12.207900 -13.823000 -25.451800
H -11.993300 -13.690600 -28.509100
C -11.795300 -11.661800 -30.137600
C -11.520400 -10.785100 -31.150400
N -11.436100 -15.522800 -23.965400
H -11.252100 -11.951900 -27.042200
C -11.041300 -13.417200 -28.507700
C -10.947700 -13.696600 -26.026600
C -10.794800 -12.486400 -29.641600
C -10.701200 -12.765700 -27.160500
H -10.490400 -14.231100 -28.626000
N -10.306400 -10.660200 -31.702800
C -10.222100 -15.397800 -24.517800
C -9.947200 -14.521200 -25.530500
H -9.749200 -12.492400 -27.159100
C -9.534600 -12.360000 -30.216400
H -9.517800 -15.945100 -24.190600
C -9.344600 -11.454200 -31.225800
H -9.070800 -14.475600 -25.894100
H -8.812500 -12.897300 -29.911900
H -8.478000 -11.386500 -31.608400
