26
Fragment
H -16.160300 -12.300600 -17.951600
C -15.271000 -12.628800 -18.009100
N -14.878800 -13.534300 -17.109200
H -14.805000 -11.499900 -19.627200
C -14.468700 -12.141600 -19.012200
H -13.622800 -11.384000 -21.518500
C -13.613000 -13.954500 -17.199400
H -13.300000 -14.582600 -16.559900
H -13.217300 -10.241500 -23.551800
H -13.185600 -12.888500 -21.831700
C -13.159800 -12.597600 -19.119000
C -12.846900 -11.996400 -21.567000
C -12.739400 -13.523700 -18.173900
C -12.328800 -10.576400 -23.577300
C -12.221300 -12.103700 -20.184200
C -11.908400 -11.502500 -22.632200
H -11.882600 -11.211600 -19.919500
H -11.850900 -13.858600 -18.199300
H -11.768200 -9.517500 -25.191300
C -11.455200 -10.145700 -24.551800
H -11.445400 -12.716100 -20.232600
C -10.599500 -11.958500 -22.738900
H -10.263200 -12.600200 -22.123900
N -10.189400 -10.565800 -24.641900
C -9.797200 -11.471300 -23.742100
H -8.907900 -11.799500 -23.799500
26
Fragment
H -16.590200 -12.713600 -10.142700
H -16.255700 -11.202900 -11.839200
H -15.997300 -9.624500 -15.857100
C -15.723600 -12.645900 -10.525300
H -15.550400 -8.155000 -17.560500
C -15.533600 -11.740100 -11.534700
H -15.319000 -11.607700 -14.592000
C -15.121000 -9.578900 -16.220600
C -14.846100 -8.702300 -17.233300
N -14.761800 -13.439900 -10.048400
H -14.577800 -9.869000 -13.125200
C -14.367000 -11.334400 -14.590600
C -14.273400 -11.613700 -12.109500
C -14.120500 -10.403500 -15.724600
C -14.026900 -10.682900 -13.243500
H -13.816100 -12.148200 -14.708900
N -13.632100 -8.577300 -17.785700
C -13.547700 -13.315000 -10.600800
C -13.272900 -12.438300 -11.613500
H -13.074900 -10.409500 -13.242100
C -12.860300 -10.277100 -16.299400
H -12.843500 -13.862300 -10.273600
C -12.670300 -9.371400 -17.308800
H -12.396500 -12.392700 -11.977000
H -12.138100 -10.814400 -15.994900
H -11.803600 -9.303700 -17.691400
52
Fragment
H -16.160300 -12.300600 -17.951600
C -15.271000 -12.628800 -18.009100
N -14.878800 -13.534300 -17.109200
H -14.805000 -11.499900 -19.627200
C -14.468700 -12.141600 -19.012200
H -13.622800 -11.384000 -21.518500
C -13.613000 -13.954500 -17.199400
H -13.300000 -14.582600 -16.559900
H -13.217300 -10.241500 -23.551800
H -13.185600 -12.888500 -21.831700
C -13.159800 -12.597600 -19.119000
C -12.846900 -11.996400 -21.567000
C -12.739400 -13.523700 -18.173900
C -12.328800 -10.576400 -23.577300
C -12.221300 -12.103700 -20.184200
C -11.908400 -11.502500 -22.632200
H -11.882600 -11.211600 -19.919500
H -11.850900 -13.858600 -18.199300
H -11.768200 -9.517500 -25.191300
C -11.455200 -10.145700 -24.551800
H -11.445400 -12.716100 -20.232600
C -10.599500 -11.958500 -22.738900
H -10.263200 -12.600200 -22.123900
N -10.189400 -10.565800 -24.641900
C -9.797200 -11.471300 -23.742100
H -8.907900 -11.799500 -23.799500
H -16.590200 -12.713600 -10.142700
H -16.255700 -11.202900 -11.839200
H -15.997300 -9.624500 -15.857100
C -15.723600 -12.645900 -10.525300
H -15.550400 -8.155000 -17.560500
C -15.533600 -11.740100 -11.534700
H -15.319000 -11.607700 -14.592000
C -15.121000 -9.578900 -16.220600
C -14.846100 -8.702300 -17.233300
N -14.761800 -13.439900 -10.048400
H -14.577800 -9.869000 -13.125200
C -14.367000 -11.334400 -14.590600
C -14.273400 -11.613700 -12.109500
C -14.120500 -10.403500 -15.724600
C -14.026900 -10.682900 -13.243500
H -13.816100 -12.148200 -14.708900
N -13.632100 -8.577300 -17.785700
C -13.547700 -13.315000 -10.600800
C -13.272900 -12.438300 -11.613500
H -13.074900 -10.409500 -13.242100
C -12.860300 -10.277100 -16.299400
H -12.843500 -13.862300 -10.273600
C -12.670300 -9.371400 -17.308800
H -12.396500 -12.392700 -11.977000
H -12.138100 -10.814400 -15.994900
H -11.803600 -9.303700 -17.691400
