26
Fragment
H -16.160300 -12.300600 -17.951600
C -15.271000 -12.628800 -18.009100
N -14.878800 -13.534300 -17.109200
H -14.805000 -11.499900 -19.627200
C -14.468700 -12.141600 -19.012200
H -13.622800 -11.384000 -21.518500
C -13.613000 -13.954500 -17.199400
H -13.300000 -14.582600 -16.559900
H -13.217300 -10.241500 -23.551800
H -13.185600 -12.888500 -21.831700
C -13.159800 -12.597600 -19.119000
C -12.846900 -11.996400 -21.567000
C -12.739400 -13.523700 -18.173900
C -12.328800 -10.576400 -23.577300
C -12.221300 -12.103700 -20.184200
C -11.908400 -11.502500 -22.632200
H -11.882600 -11.211600 -19.919500
H -11.850900 -13.858600 -18.199300
H -11.768200 -9.517500 -25.191300
C -11.455200 -10.145700 -24.551800
H -11.445400 -12.716100 -20.232600
C -10.599500 -11.958500 -22.738900
H -10.263200 -12.600200 -22.123900
N -10.189400 -10.565800 -24.641900
C -9.797200 -11.471300 -23.742100
H -8.907900 -11.799500 -23.799500
26
Fragment
H -9.807300 -12.300600 -17.951600
C -8.918000 -12.628800 -18.009100
N -8.525800 -13.534300 -17.109200
H -8.452000 -11.499900 -19.627200
C -8.115700 -12.141600 -19.012200
H -7.269800 -11.384000 -21.518500
C -7.260000 -13.954500 -17.199400
H -6.947000 -14.582600 -16.559900
H -6.864300 -10.241500 -23.551800
H -6.832600 -12.888500 -21.831700
C -6.806800 -12.597600 -19.119000
C -6.493900 -11.996400 -21.567000
C -6.386400 -13.523700 -18.173900
C -5.975800 -10.576400 -23.577300
C -5.868300 -12.103700 -20.184200
C -5.555400 -11.502500 -22.632200
H -5.529600 -11.211600 -19.919500
H -5.497900 -13.858600 -18.199300
H -5.415200 -9.517500 -25.191300
C -5.102200 -10.145700 -24.551800
H -5.092400 -12.716100 -20.232600
C -4.246500 -11.958500 -22.738900
H -3.910200 -12.600200 -22.123900
N -3.836400 -10.565800 -24.641900
C -3.444200 -11.471300 -23.742100
H -2.554900 -11.799500 -23.799500
52
Fragment
H -16.160300 -12.300600 -17.951600
C -15.271000 -12.628800 -18.009100
N -14.878800 -13.534300 -17.109200
H -14.805000 -11.499900 -19.627200
C -14.468700 -12.141600 -19.012200
H -13.622800 -11.384000 -21.518500
C -13.613000 -13.954500 -17.199400
H -13.300000 -14.582600 -16.559900
H -13.217300 -10.241500 -23.551800
H -13.185600 -12.888500 -21.831700
C -13.159800 -12.597600 -19.119000
C -12.846900 -11.996400 -21.567000
C -12.739400 -13.523700 -18.173900
C -12.328800 -10.576400 -23.577300
C -12.221300 -12.103700 -20.184200
C -11.908400 -11.502500 -22.632200
H -11.882600 -11.211600 -19.919500
H -11.850900 -13.858600 -18.199300
H -11.768200 -9.517500 -25.191300
C -11.455200 -10.145700 -24.551800
H -11.445400 -12.716100 -20.232600
C -10.599500 -11.958500 -22.738900
H -10.263200 -12.600200 -22.123900
N -10.189400 -10.565800 -24.641900
C -9.797200 -11.471300 -23.742100
H -8.907900 -11.799500 -23.799500
H -9.807300 -12.300600 -17.951600
C -8.918000 -12.628800 -18.009100
N -8.525800 -13.534300 -17.109200
H -8.452000 -11.499900 -19.627200
C -8.115700 -12.141600 -19.012200
H -7.269800 -11.384000 -21.518500
C -7.260000 -13.954500 -17.199400
H -6.947000 -14.582600 -16.559900
H -6.864300 -10.241500 -23.551800
H -6.832600 -12.888500 -21.831700
C -6.806800 -12.597600 -19.119000
C -6.493900 -11.996400 -21.567000
C -6.386400 -13.523700 -18.173900
C -5.975800 -10.576400 -23.577300
C -5.868300 -12.103700 -20.184200
C -5.555400 -11.502500 -22.632200
H -5.529600 -11.211600 -19.919500
H -5.497900 -13.858600 -18.199300
H -5.415200 -9.517500 -25.191300
C -5.102200 -10.145700 -24.551800
H -5.092400 -12.716100 -20.232600
C -4.246500 -11.958500 -22.738900
H -3.910200 -12.600200 -22.123900
N -3.836400 -10.565800 -24.641900
C -3.444200 -11.471300 -23.742100
H -2.554900 -11.799500 -23.799500
