16
Fragment
O -8.327600 -12.775900 -12.293200
H -8.231300 -10.349500 -12.565400
H -7.863200 -9.792600 -15.495200
N -7.379700 -12.539300 -11.551400
C -7.241200 -10.360200 -12.558000
N -7.187900 -9.638800 -14.899700
H -7.041300 -11.529600 -14.261700
O -7.029100 -7.662700 -15.822100
O -6.940200 -13.335000 -10.703900
H -6.928000 -9.468000 -12.264300
N -6.781400 -11.358800 -11.626400
C -6.728100 -10.637400 -13.968100
N -6.589600 -8.458400 -14.974600
H -6.106100 -11.205000 -11.030900
H -5.737900 -10.648200 -13.960700
O -5.641700 -8.221800 -14.232800
16
Fragment
O -3.065600 -6.851400 -12.293200
H -2.969400 -4.425000 -12.565400
H -2.601300 -3.868200 -15.495200
N -2.117700 -6.614800 -11.551400
C -1.979300 -4.435800 -12.558000
N -1.926000 -3.714400 -14.899700
H -1.779400 -5.605200 -14.261700
O -1.767200 -1.738300 -15.822100
O -1.678200 -7.410500 -10.703900
H -1.666000 -3.543600 -12.264300
N -1.519500 -5.434400 -11.626400
C -1.466100 -4.713000 -13.968100
N -1.327700 -2.533900 -14.974600
H -0.844100 -5.280600 -11.030900
H -0.476000 -4.723800 -13.960700
O -0.379800 -2.297400 -14.232800
32
Fragment
O -8.327600 -12.775900 -12.293200
H -8.231300 -10.349500 -12.565400
H -7.863200 -9.792600 -15.495200
N -7.379700 -12.539300 -11.551400
C -7.241200 -10.360200 -12.558000
N -7.187900 -9.638800 -14.899700
H -7.041300 -11.529600 -14.261700
O -7.029100 -7.662700 -15.822100
O -6.940200 -13.335000 -10.703900
H -6.928000 -9.468000 -12.264300
N -6.781400 -11.358800 -11.626400
C -6.728100 -10.637400 -13.968100
N -6.589600 -8.458400 -14.974600
H -6.106100 -11.205000 -11.030900
H -5.737900 -10.648200 -13.960700
O -5.641700 -8.221800 -14.232800
O -3.065600 -6.851400 -12.293200
H -2.969400 -4.425000 -12.565400
H -2.601300 -3.868200 -15.495200
N -2.117700 -6.614800 -11.551400
C -1.979300 -4.435800 -12.558000
N -1.926000 -3.714400 -14.899700
H -1.779400 -5.605200 -14.261700
O -1.767200 -1.738300 -15.822100
O -1.678200 -7.410500 -10.703900
H -1.666000 -3.543600 -12.264300
N -1.519500 -5.434400 -11.626400
C -1.466100 -4.713000 -13.968100
N -1.327700 -2.533900 -14.974600
H -0.844100 -5.280600 -11.030900
H -0.476000 -4.723800 -13.960700
O -0.379800 -2.297400 -14.232800
