16
Fragment
O -16.709600 -9.066600 -17.361600
H -16.025500 -6.765900 -18.703100
O -15.991700 -8.752300 -15.314900
N -15.845400 -8.713000 -16.539900
H -15.301300 -7.000000 -20.924400
C -15.053600 -6.771100 -18.891900
H -14.864800 -8.840100 -18.899500
N -14.845000 -6.568600 -20.302100
N -14.663300 -8.292800 -16.989600
H -14.643400 -6.021400 -18.392300
C -14.454700 -8.090400 -18.399900
H -14.207000 -7.861500 -16.367400
N -13.662900 -6.148500 -20.751900
O -13.516500 -6.109100 -21.976900
H -13.482700 -8.095500 -18.588700
O -12.798700 -5.794900 -19.930200
16
Fragment
O -14.321400 -3.631100 -17.361600
H -13.637300 -1.330500 -18.703100
O -13.603500 -3.316900 -15.314900
N -13.457200 -3.277600 -16.539900
H -12.913000 -1.564600 -20.924400
C -12.665300 -1.335700 -18.891900
H -12.476600 -3.404700 -18.899500
N -12.456800 -1.133200 -20.302100
N -12.275000 -2.857400 -16.989600
H -12.255200 -0.585900 -18.392300
C -12.066500 -2.654900 -18.399900
H -11.818800 -2.426000 -16.367400
N -11.274600 -0.713000 -20.751900
O -11.128300 -0.673700 -21.976900
H -11.094500 -2.660100 -18.588700
O -10.410400 -0.359500 -19.930200
32
Fragment
O -16.709600 -9.066600 -17.361600
H -16.025500 -6.765900 -18.703100
O -15.991700 -8.752300 -15.314900
N -15.845400 -8.713000 -16.539900
H -15.301300 -7.000000 -20.924400
C -15.053600 -6.771100 -18.891900
H -14.864800 -8.840100 -18.899500
N -14.845000 -6.568600 -20.302100
N -14.663300 -8.292800 -16.989600
H -14.643400 -6.021400 -18.392300
C -14.454700 -8.090400 -18.399900
H -14.207000 -7.861500 -16.367400
N -13.662900 -6.148500 -20.751900
O -13.516500 -6.109100 -21.976900
H -13.482700 -8.095500 -18.588700
O -12.798700 -5.794900 -19.930200
O -14.321400 -3.631100 -17.361600
H -13.637300 -1.330500 -18.703100
O -13.603500 -3.316900 -15.314900
N -13.457200 -3.277600 -16.539900
H -12.913000 -1.564600 -20.924400
C -12.665300 -1.335700 -18.891900
H -12.476600 -3.404700 -18.899500
N -12.456800 -1.133200 -20.302100
N -12.275000 -2.857400 -16.989600
H -12.255200 -0.585900 -18.392300
C -12.066500 -2.654900 -18.399900
H -11.818800 -2.426000 -16.367400
N -11.274600 -0.713000 -20.751900
O -11.128300 -0.673700 -21.976900
H -11.094500 -2.660100 -18.588700
O -10.410400 -0.359500 -19.930200
