20
Fragment
H -34.532400 -14.413700 -17.611900
C -33.617700 -14.158500 -17.619100
N -33.326200 -12.860200 -17.762900
H -32.932200 -16.054000 -17.397300
C -32.668200 -15.145300 -17.480300
C -32.033900 -12.537100 -17.770200
H -31.799300 -11.623000 -17.881000
H -31.424100 -17.494800 -17.521400
C -31.320500 -14.804300 -17.461600
C -31.012200 -13.460100 -17.626100
C -30.547500 -17.197400 -17.304000
C -30.268500 -15.832900 -17.245600
H -30.105000 -13.176100 -17.639200
H -29.775000 -19.035300 -17.088600
C -29.556000 -18.111300 -17.047300
C -28.956600 -15.475400 -16.928600
H -28.708800 -14.559300 -16.875300
N -28.294400 -17.773600 -16.740800
C -28.022000 -16.463900 -16.693600
H -27.134700 -16.198700 -16.485900
16
Fragment
H -34.248500 -16.596000 -22.538800
H -33.793500 -15.073400 -22.365200
H -33.565600 -15.724200 -20.254500
C -33.481400 -16.011400 -22.312000
H -33.275500 -17.244900 -20.651400
C -33.047300 -16.306000 -20.866100
O -32.458300 -18.388100 -22.945500
N -32.442400 -16.209800 -23.290700
N -31.974200 -17.413500 -23.542800
O -31.877200 -13.924100 -20.876200
H -31.875100 -15.521900 -23.628800
N -31.650300 -16.106000 -20.614700
N -31.126600 -14.886800 -20.700600
O -31.067000 -17.506000 -24.388000
H -30.971600 -16.897100 -20.531100
O -29.894100 -14.799000 -20.569500
36
Fragment
H -34.532400 -14.413700 -17.611900
C -33.617700 -14.158500 -17.619100
N -33.326200 -12.860200 -17.762900
H -32.932200 -16.054000 -17.397300
C -32.668200 -15.145300 -17.480300
C -32.033900 -12.537100 -17.770200
H -31.799300 -11.623000 -17.881000
H -31.424100 -17.494800 -17.521400
C -31.320500 -14.804300 -17.461600
C -31.012200 -13.460100 -17.626100
C -30.547500 -17.197400 -17.304000
C -30.268500 -15.832900 -17.245600
H -30.105000 -13.176100 -17.639200
H -29.775000 -19.035300 -17.088600
C -29.556000 -18.111300 -17.047300
C -28.956600 -15.475400 -16.928600
H -28.708800 -14.559300 -16.875300
N -28.294400 -17.773600 -16.740800
C -28.022000 -16.463900 -16.693600
H -27.134700 -16.198700 -16.485900
H -34.248500 -16.596000 -22.538800
H -33.793500 -15.073400 -22.365200
H -33.565600 -15.724200 -20.254500
C -33.481400 -16.011400 -22.312000
H -33.275500 -17.244900 -20.651400
C -33.047300 -16.306000 -20.866100
O -32.458300 -18.388100 -22.945500
N -32.442400 -16.209800 -23.290700
N -31.974200 -17.413500 -23.542800
O -31.877200 -13.924100 -20.876200
H -31.875100 -15.521900 -23.628800
N -31.650300 -16.106000 -20.614700
N -31.126600 -14.886800 -20.700600
O -31.067000 -17.506000 -24.388000
H -30.971600 -16.897100 -20.531100
O -29.894100 -14.799000 -20.569500
