16
Fragment
O -16.709600 -9.066600 -17.361600
H -16.025500 -6.765900 -18.703100
O -15.991700 -8.752300 -15.314900
N -15.845400 -8.713000 -16.539900
H -15.301300 -7.000000 -20.924400
C -15.053600 -6.771100 -18.891900
H -14.864800 -8.840100 -18.899500
N -14.845000 -6.568600 -20.302100
N -14.663300 -8.292800 -16.989600
H -14.643400 -6.021400 -18.392300
C -14.454700 -8.090400 -18.399900
H -14.207000 -7.861500 -16.367400
N -13.662900 -6.148500 -20.751900
O -13.516500 -6.109100 -21.976900
H -13.482700 -8.095500 -18.588700
O -12.798700 -5.794900 -19.930200
16
Fragment
O -22.305600 -9.066600 -17.361600
H -21.621500 -6.765900 -18.703100
O -21.587700 -8.752300 -15.314900
N -21.441400 -8.713000 -16.539900
H -20.897300 -7.000000 -20.924400
C -20.649600 -6.771100 -18.891900
H -20.460800 -8.840100 -18.899500
N -20.441000 -6.568600 -20.302100
N -20.259300 -8.292800 -16.989600
H -20.239400 -6.021400 -18.392300
C -20.050700 -8.090400 -18.399900
H -19.803000 -7.861500 -16.367400
N -19.258900 -6.148500 -20.751900
O -19.112500 -6.109100 -21.976900
H -19.078700 -8.095500 -18.588700
O -18.394700 -5.794900 -19.930200
32
Fragment
O -16.709600 -9.066600 -17.361600
H -16.025500 -6.765900 -18.703100
O -15.991700 -8.752300 -15.314900
N -15.845400 -8.713000 -16.539900
H -15.301300 -7.000000 -20.924400
C -15.053600 -6.771100 -18.891900
H -14.864800 -8.840100 -18.899500
N -14.845000 -6.568600 -20.302100
N -14.663300 -8.292800 -16.989600
H -14.643400 -6.021400 -18.392300
C -14.454700 -8.090400 -18.399900
H -14.207000 -7.861500 -16.367400
N -13.662900 -6.148500 -20.751900
O -13.516500 -6.109100 -21.976900
H -13.482700 -8.095500 -18.588700
O -12.798700 -5.794900 -19.930200
O -22.305600 -9.066600 -17.361600
H -21.621500 -6.765900 -18.703100
O -21.587700 -8.752300 -15.314900
N -21.441400 -8.713000 -16.539900
H -20.897300 -7.000000 -20.924400
C -20.649600 -6.771100 -18.891900
H -20.460800 -8.840100 -18.899500
N -20.441000 -6.568600 -20.302100
N -20.259300 -8.292800 -16.989600
H -20.239400 -6.021400 -18.392300
C -20.050700 -8.090400 -18.399900
H -19.803000 -7.861500 -16.367400
N -19.258900 -6.148500 -20.751900
O -19.112500 -6.109100 -21.976900
H -19.078700 -8.095500 -18.588700
O -18.394700 -5.794900 -19.930200
