20
Fragment
H -34.532400 -14.413700 -17.611900
C -33.617700 -14.158500 -17.619100
N -33.326200 -12.860200 -17.762900
H -32.932200 -16.054000 -17.397300
C -32.668200 -15.145300 -17.480300
C -32.033900 -12.537100 -17.770200
H -31.799300 -11.623000 -17.881000
H -31.424100 -17.494800 -17.521400
C -31.320500 -14.804300 -17.461600
C -31.012200 -13.460100 -17.626100
C -30.547500 -17.197400 -17.304000
C -30.268500 -15.832900 -17.245600
H -30.105000 -13.176100 -17.639200
H -29.775000 -19.035300 -17.088600
C -29.556000 -18.111300 -17.047300
C -28.956600 -15.475400 -16.928600
H -28.708800 -14.559300 -16.875300
N -28.294400 -17.773600 -16.740800
C -28.022000 -16.463900 -16.693600
H -27.134700 -16.198700 -16.485900
16
Fragment
O -37.872100 -10.305100 -22.833900
H -36.794600 -12.403200 -22.872400
O -36.699200 -13.012100 -19.015400
N -36.639600 -10.392900 -22.702900
N -36.115900 -11.612100 -22.788800
H -35.891100 -11.028000 -19.774600
O -35.889000 -9.430200 -22.527300
N -35.792000 -12.919600 -19.860700
N -35.323800 -11.715900 -20.112800
O -35.308000 -13.894200 -20.457900
C -34.718900 -11.812100 -22.537300
H -34.490800 -12.751000 -22.752100
C -34.284800 -11.517500 -21.091500
H -34.200600 -11.230300 -23.148900
H -33.972700 -10.579500 -21.038300
H -33.517800 -12.102100 -20.864700
36
Fragment
H -34.532400 -14.413700 -17.611900
C -33.617700 -14.158500 -17.619100
N -33.326200 -12.860200 -17.762900
H -32.932200 -16.054000 -17.397300
C -32.668200 -15.145300 -17.480300
C -32.033900 -12.537100 -17.770200
H -31.799300 -11.623000 -17.881000
H -31.424100 -17.494800 -17.521400
C -31.320500 -14.804300 -17.461600
C -31.012200 -13.460100 -17.626100
C -30.547500 -17.197400 -17.304000
C -30.268500 -15.832900 -17.245600
H -30.105000 -13.176100 -17.639200
H -29.775000 -19.035300 -17.088600
C -29.556000 -18.111300 -17.047300
C -28.956600 -15.475400 -16.928600
H -28.708800 -14.559300 -16.875300
N -28.294400 -17.773600 -16.740800
C -28.022000 -16.463900 -16.693600
H -27.134700 -16.198700 -16.485900
O -37.872100 -10.305100 -22.833900
H -36.794600 -12.403200 -22.872400
O -36.699200 -13.012100 -19.015400
N -36.639600 -10.392900 -22.702900
N -36.115900 -11.612100 -22.788800
H -35.891100 -11.028000 -19.774600
O -35.889000 -9.430200 -22.527300
N -35.792000 -12.919600 -19.860700
N -35.323800 -11.715900 -20.112800
O -35.308000 -13.894200 -20.457900
C -34.718900 -11.812100 -22.537300
H -34.490800 -12.751000 -22.752100
C -34.284800 -11.517500 -21.091500
H -34.200600 -11.230300 -23.148900
H -33.972700 -10.579500 -21.038300
H -33.517800 -12.102100 -20.864700
