16
Fragment
O -8.327600 -12.775900 -12.293200
H -8.231300 -10.349500 -12.565400
H -7.863200 -9.792600 -15.495200
N -7.379700 -12.539300 -11.551400
C -7.241200 -10.360200 -12.558000
N -7.187900 -9.638800 -14.899700
H -7.041300 -11.529600 -14.261700
O -7.029100 -7.662700 -15.822100
O -6.940200 -13.335000 -10.703900
H -6.928000 -9.468000 -12.264300
N -6.781400 -11.358800 -11.626400
C -6.728100 -10.637400 -13.968100
N -6.589600 -8.458400 -14.974600
H -6.106100 -11.205000 -11.030900
H -5.737900 -10.648200 -13.960700
O -5.641700 -8.221800 -14.232800
16
Fragment
O -8.969200 -18.700300 -12.293200
H -8.872900 -16.273900 -12.565400
H -8.504800 -15.717100 -15.495200
N -8.021300 -18.463800 -11.551400
C -7.882800 -16.284700 -12.558000
N -7.829500 -15.563300 -14.899700
H -7.682900 -17.454100 -14.261700
O -7.670700 -13.587200 -15.822100
O -7.581800 -19.259400 -10.703900
H -7.569600 -15.392500 -12.264300
N -7.423000 -17.283300 -11.626400
C -7.369700 -16.561900 -13.968100
N -7.231200 -14.382800 -14.974600
H -6.747700 -17.129500 -11.030900
H -6.379600 -16.572700 -13.960700
O -6.283300 -14.146300 -14.232800
32
Fragment
O -8.327600 -12.775900 -12.293200
H -8.231300 -10.349500 -12.565400
H -7.863200 -9.792600 -15.495200
N -7.379700 -12.539300 -11.551400
C -7.241200 -10.360200 -12.558000
N -7.187900 -9.638800 -14.899700
H -7.041300 -11.529600 -14.261700
O -7.029100 -7.662700 -15.822100
O -6.940200 -13.335000 -10.703900
H -6.928000 -9.468000 -12.264300
N -6.781400 -11.358800 -11.626400
C -6.728100 -10.637400 -13.968100
N -6.589600 -8.458400 -14.974600
H -6.106100 -11.205000 -11.030900
H -5.737900 -10.648200 -13.960700
O -5.641700 -8.221800 -14.232800
O -8.969200 -18.700300 -12.293200
H -8.872900 -16.273900 -12.565400
H -8.504800 -15.717100 -15.495200
N -8.021300 -18.463800 -11.551400
C -7.882800 -16.284700 -12.558000
N -7.829500 -15.563300 -14.899700
H -7.682900 -17.454100 -14.261700
O -7.670700 -13.587200 -15.822100
O -7.581800 -19.259400 -10.703900
H -7.569600 -15.392500 -12.264300
N -7.423000 -17.283300 -11.626400
C -7.369700 -16.561900 -13.968100
N -7.231200 -14.382800 -14.974600
H -6.747700 -17.129500 -11.030900
H -6.379600 -16.572700 -13.960700
O -6.283300 -14.146300 -14.232800
