20
Fragment
H -34.532400 -14.413700 -17.611900
C -33.617700 -14.158500 -17.619100
N -33.326200 -12.860200 -17.762900
H -32.932200 -16.054000 -17.397300
C -32.668200 -15.145300 -17.480300
C -32.033900 -12.537100 -17.770200
H -31.799300 -11.623000 -17.881000
H -31.424100 -17.494800 -17.521400
C -31.320500 -14.804300 -17.461600
C -31.012200 -13.460100 -17.626100
C -30.547500 -17.197400 -17.304000
C -30.268500 -15.832900 -17.245600
H -30.105000 -13.176100 -17.639200
H -29.775000 -19.035300 -17.088600
C -29.556000 -18.111300 -17.047300
C -28.956600 -15.475400 -16.928600
H -28.708800 -14.559300 -16.875300
N -28.294400 -17.773600 -16.740800
C -28.022000 -16.463900 -16.693600
H -27.134700 -16.198700 -16.485900
16
Fragment
O -40.451200 -16.658300 -16.633400
H -39.373800 -14.560200 -16.671900
O -39.278300 -13.951300 -12.814900
N -39.218700 -16.570500 -16.502400
N -38.695000 -15.351300 -16.588300
H -38.470200 -15.935400 -13.574100
O -38.468100 -17.533200 -16.326800
N -38.371100 -14.043800 -13.660200
N -37.902900 -15.247500 -13.912300
O -37.887100 -13.069200 -14.257400
C -37.298000 -15.151300 -16.336800
H -37.069900 -14.212400 -16.551600
C -36.863900 -15.445900 -14.891000
H -36.779800 -15.733100 -16.948400
H -36.551800 -16.383900 -14.837800
H -36.096900 -14.861300 -14.664200
36
Fragment
H -34.532400 -14.413700 -17.611900
C -33.617700 -14.158500 -17.619100
N -33.326200 -12.860200 -17.762900
H -32.932200 -16.054000 -17.397300
C -32.668200 -15.145300 -17.480300
C -32.033900 -12.537100 -17.770200
H -31.799300 -11.623000 -17.881000
H -31.424100 -17.494800 -17.521400
C -31.320500 -14.804300 -17.461600
C -31.012200 -13.460100 -17.626100
C -30.547500 -17.197400 -17.304000
C -30.268500 -15.832900 -17.245600
H -30.105000 -13.176100 -17.639200
H -29.775000 -19.035300 -17.088600
C -29.556000 -18.111300 -17.047300
C -28.956600 -15.475400 -16.928600
H -28.708800 -14.559300 -16.875300
N -28.294400 -17.773600 -16.740800
C -28.022000 -16.463900 -16.693600
H -27.134700 -16.198700 -16.485900
O -40.451200 -16.658300 -16.633400
H -39.373800 -14.560200 -16.671900
O -39.278300 -13.951300 -12.814900
N -39.218700 -16.570500 -16.502400
N -38.695000 -15.351300 -16.588300
H -38.470200 -15.935400 -13.574100
O -38.468100 -17.533200 -16.326800
N -38.371100 -14.043800 -13.660200
N -37.902900 -15.247500 -13.912300
O -37.887100 -13.069200 -14.257400
C -37.298000 -15.151300 -16.336800
H -37.069900 -14.212400 -16.551600
C -36.863900 -15.445900 -14.891000
H -36.779800 -15.733100 -16.948400
H -36.551800 -16.383900 -14.837800
H -36.096900 -14.861300 -14.664200
