16
Fragment
O -8.327600 -12.775900 -12.293200
H -8.231300 -10.349500 -12.565400
H -7.863200 -9.792600 -15.495200
N -7.379700 -12.539300 -11.551400
C -7.241200 -10.360200 -12.558000
N -7.187900 -9.638800 -14.899700
H -7.041300 -11.529600 -14.261700
O -7.029100 -7.662700 -15.822100
O -6.940200 -13.335000 -10.703900
H -6.928000 -9.468000 -12.264300
N -6.781400 -11.358800 -11.626400
C -6.728100 -10.637400 -13.968100
N -6.589600 -8.458400 -14.974600
H -6.106100 -11.205000 -11.030900
H -5.737900 -10.648200 -13.960700
O -5.641700 -8.221800 -14.232800
16
Fragment
O -3.707300 -12.775900 -12.293200
H -3.611000 -10.349500 -12.565400
H -3.242900 -9.792600 -15.495200
N -2.759400 -12.539300 -11.551400
C -2.620900 -10.360200 -12.558000
N -2.567600 -9.638800 -14.899700
H -2.421000 -11.529600 -14.261700
O -2.408800 -7.662700 -15.822100
O -2.319900 -13.335000 -10.703900
H -2.307700 -9.468000 -12.264300
N -2.161100 -11.358800 -11.626400
C -2.107800 -10.637400 -13.968100
N -1.969300 -8.458400 -14.974600
H -1.485800 -11.205000 -11.030900
H -1.117600 -10.648200 -13.960700
O -1.021400 -8.221800 -14.232800
32
Fragment
O -8.327600 -12.775900 -12.293200
H -8.231300 -10.349500 -12.565400
H -7.863200 -9.792600 -15.495200
N -7.379700 -12.539300 -11.551400
C -7.241200 -10.360200 -12.558000
N -7.187900 -9.638800 -14.899700
H -7.041300 -11.529600 -14.261700
O -7.029100 -7.662700 -15.822100
O -6.940200 -13.335000 -10.703900
H -6.928000 -9.468000 -12.264300
N -6.781400 -11.358800 -11.626400
C -6.728100 -10.637400 -13.968100
N -6.589600 -8.458400 -14.974600
H -6.106100 -11.205000 -11.030900
H -5.737900 -10.648200 -13.960700
O -5.641700 -8.221800 -14.232800
O -3.707300 -12.775900 -12.293200
H -3.611000 -10.349500 -12.565400
H -3.242900 -9.792600 -15.495200
N -2.759400 -12.539300 -11.551400
C -2.620900 -10.360200 -12.558000
N -2.567600 -9.638800 -14.899700
H -2.421000 -11.529600 -14.261700
O -2.408800 -7.662700 -15.822100
O -2.319900 -13.335000 -10.703900
H -2.307700 -9.468000 -12.264300
N -2.161100 -11.358800 -11.626400
C -2.107800 -10.637400 -13.968100
N -1.969300 -8.458400 -14.974600
H -1.485800 -11.205000 -11.030900
H -1.117600 -10.648200 -13.960700
O -1.021400 -8.221800 -14.232800
