26
Fragment
H -16.160300 -12.300600 -17.951600
C -15.271000 -12.628800 -18.009100
N -14.878800 -13.534300 -17.109200
H -14.805000 -11.499900 -19.627200
C -14.468700 -12.141600 -19.012200
H -13.622800 -11.384000 -21.518500
C -13.613000 -13.954500 -17.199400
H -13.300000 -14.582600 -16.559900
H -13.217300 -10.241500 -23.551800
H -13.185600 -12.888500 -21.831700
C -13.159800 -12.597600 -19.119000
C -12.846900 -11.996400 -21.567000
C -12.739400 -13.523700 -18.173900
C -12.328800 -10.576400 -23.577300
C -12.221300 -12.103700 -20.184200
C -11.908400 -11.502500 -22.632200
H -11.882600 -11.211600 -19.919500
H -11.850900 -13.858600 -18.199300
H -11.768200 -9.517500 -25.191300
C -11.455200 -10.145700 -24.551800
H -11.445400 -12.716100 -20.232600
C -10.599500 -11.958500 -22.738900
H -10.263200 -12.600200 -22.123900
N -10.189400 -10.565800 -24.641900
C -9.797200 -11.471300 -23.742100
H -8.907900 -11.799500 -23.799500
16
Fragment
O -19.058900 -6.121100 -28.646400
O -18.828700 -7.568200 -27.041400
N -18.553700 -7.133800 -28.154500
N -17.683300 -7.802300 -28.908600
H -17.557800 -9.475500 -27.827100
H -17.355000 -7.335000 -29.508300
C -16.935800 -8.878900 -28.313700
H -16.504200 -9.409100 -29.029600
H -16.304200 -7.848100 -26.638600
C -15.872600 -8.378300 -27.354500
H -15.453400 -9.922200 -26.159900
H -15.250600 -7.781700 -27.841100
N -15.125100 -9.454900 -26.759600
N -14.254700 -10.123400 -27.513700
O -13.979700 -9.689000 -28.626800
O -13.749500 -11.136100 -27.021800
42
Fragment
H -16.160300 -12.300600 -17.951600
C -15.271000 -12.628800 -18.009100
N -14.878800 -13.534300 -17.109200
H -14.805000 -11.499900 -19.627200
C -14.468700 -12.141600 -19.012200
H -13.622800 -11.384000 -21.518500
C -13.613000 -13.954500 -17.199400
H -13.300000 -14.582600 -16.559900
H -13.217300 -10.241500 -23.551800
H -13.185600 -12.888500 -21.831700
C -13.159800 -12.597600 -19.119000
C -12.846900 -11.996400 -21.567000
C -12.739400 -13.523700 -18.173900
C -12.328800 -10.576400 -23.577300
C -12.221300 -12.103700 -20.184200
C -11.908400 -11.502500 -22.632200
H -11.882600 -11.211600 -19.919500
H -11.850900 -13.858600 -18.199300
H -11.768200 -9.517500 -25.191300
C -11.455200 -10.145700 -24.551800
H -11.445400 -12.716100 -20.232600
C -10.599500 -11.958500 -22.738900
H -10.263200 -12.600200 -22.123900
N -10.189400 -10.565800 -24.641900
C -9.797200 -11.471300 -23.742100
H -8.907900 -11.799500 -23.799500
O -19.058900 -6.121100 -28.646400
O -18.828700 -7.568200 -27.041400
N -18.553700 -7.133800 -28.154500
N -17.683300 -7.802300 -28.908600
H -17.557800 -9.475500 -27.827100
H -17.355000 -7.335000 -29.508300
C -16.935800 -8.878900 -28.313700
H -16.504200 -9.409100 -29.029600
H -16.304200 -7.848100 -26.638600
C -15.872600 -8.378300 -27.354500
H -15.453400 -9.922200 -26.159900
H -15.250600 -7.781700 -27.841100
N -15.125100 -9.454900 -26.759600
N -14.254700 -10.123400 -27.513700
O -13.979700 -9.689000 -28.626800
O -13.749500 -11.136100 -27.021800
