16
Fragment
O -16.709600 -9.066600 -17.361600
H -16.025500 -6.765900 -18.703100
O -15.991700 -8.752300 -15.314900
N -15.845400 -8.713000 -16.539900
H -15.301300 -7.000000 -20.924400
C -15.053600 -6.771100 -18.891900
H -14.864800 -8.840100 -18.899500
N -14.845000 -6.568600 -20.302100
N -14.663300 -8.292800 -16.989600
H -14.643400 -6.021400 -18.392300
C -14.454700 -8.090400 -18.399900
H -14.207000 -7.861500 -16.367400
N -13.662900 -6.148500 -20.751900
O -13.516500 -6.109100 -21.976900
H -13.482700 -8.095500 -18.588700
O -12.798700 -5.794900 -19.930200
16
Fragment
O -19.097900 -14.502000 -17.361600
H -18.413800 -12.201400 -18.703100
O -18.380000 -14.187800 -15.314900
N -18.233700 -14.148500 -16.539900
H -17.689500 -12.435500 -20.924400
C -17.441800 -12.206600 -18.891900
H -17.253100 -14.275600 -18.899500
N -17.233300 -12.004100 -20.302100
N -17.051500 -13.728300 -16.989600
H -17.031700 -11.456800 -18.392300
C -16.843000 -13.525800 -18.399900
H -16.595300 -13.296900 -16.367400
N -16.051100 -11.583900 -20.751900
O -15.904800 -11.544600 -21.976900
H -15.871000 -13.531000 -18.588700
O -15.186900 -11.230400 -19.930200
32
Fragment
O -16.709600 -9.066600 -17.361600
H -16.025500 -6.765900 -18.703100
O -15.991700 -8.752300 -15.314900
N -15.845400 -8.713000 -16.539900
H -15.301300 -7.000000 -20.924400
C -15.053600 -6.771100 -18.891900
H -14.864800 -8.840100 -18.899500
N -14.845000 -6.568600 -20.302100
N -14.663300 -8.292800 -16.989600
H -14.643400 -6.021400 -18.392300
C -14.454700 -8.090400 -18.399900
H -14.207000 -7.861500 -16.367400
N -13.662900 -6.148500 -20.751900
O -13.516500 -6.109100 -21.976900
H -13.482700 -8.095500 -18.588700
O -12.798700 -5.794900 -19.930200
O -19.097900 -14.502000 -17.361600
H -18.413800 -12.201400 -18.703100
O -18.380000 -14.187800 -15.314900
N -18.233700 -14.148500 -16.539900
H -17.689500 -12.435500 -20.924400
C -17.441800 -12.206600 -18.891900
H -17.253100 -14.275600 -18.899500
N -17.233300 -12.004100 -20.302100
N -17.051500 -13.728300 -16.989600
H -17.031700 -11.456800 -18.392300
C -16.843000 -13.525800 -18.399900
H -16.595300 -13.296900 -16.367400
N -16.051100 -11.583900 -20.751900
O -15.904800 -11.544600 -21.976900
H -15.871000 -13.531000 -18.588700
O -15.186900 -11.230400 -19.930200
