23
Fragment
H -21.646400 -8.854600 -39.538300
H -21.293800 -10.987500 -38.681600
C -21.005100 -9.426100 -39.945700
C -20.798200 -10.693400 -39.436700
H -20.423900 -8.106000 -41.385700
C -20.287000 -8.982300 -41.043000
C -19.874200 -11.533500 -40.021300
H -19.718900 -12.396100 -39.654600
C -19.360600 -9.836100 -41.641000
C -19.172800 -11.118200 -41.141600
N -18.596700 -8.272400 -43.062000
N -18.591500 -9.493300 -42.784300
H -18.563600 -11.709900 -41.567700
H -18.544200 -6.062300 -44.357700
C -17.970000 -6.699800 -44.764100
C -17.817800 -7.969400 -44.220700
H -17.388700 -5.525800 -46.291000
C -17.265100 -6.386700 -45.910200
C -16.926200 -8.844500 -44.820400
H -16.780600 -9.711300 -44.461300
N -16.422600 -7.225000 -46.508900
C -16.253800 -8.429200 -45.951100
H -15.638400 -9.030500 -46.354200
23
Fragment
H -21.646400 -2.913500 -39.538300
H -21.293800 -5.046400 -38.681600
C -21.005100 -3.485000 -39.945700
C -20.798200 -4.752300 -39.436700
H -20.423900 -2.164900 -41.385700
C -20.287000 -3.041200 -41.043000
C -19.874200 -5.592400 -40.021300
H -19.718900 -6.455000 -39.654600
C -19.360600 -3.895000 -41.641000
C -19.172800 -5.177100 -41.141600
N -18.596700 -2.331300 -43.062000
N -18.591500 -3.552200 -42.784300
H -18.563600 -5.768800 -41.567700
H -18.544200 -0.121200 -44.357700
C -17.970000 -0.758700 -44.764100
C -17.817800 -2.028300 -44.220700
H -17.388700 0.415300 -46.291000
C -17.265100 -0.445600 -45.910200
C -16.926200 -2.903400 -44.820400
H -16.780600 -3.770200 -44.461300
N -16.422600 -1.283900 -46.508900
C -16.253800 -2.488100 -45.951100
H -15.638400 -3.089400 -46.354200
46
Fragment
H -21.646400 -8.854600 -39.538300
H -21.293800 -10.987500 -38.681600
C -21.005100 -9.426100 -39.945700
C -20.798200 -10.693400 -39.436700
H -20.423900 -8.106000 -41.385700
C -20.287000 -8.982300 -41.043000
C -19.874200 -11.533500 -40.021300
H -19.718900 -12.396100 -39.654600
C -19.360600 -9.836100 -41.641000
C -19.172800 -11.118200 -41.141600
N -18.596700 -8.272400 -43.062000
N -18.591500 -9.493300 -42.784300
H -18.563600 -11.709900 -41.567700
H -18.544200 -6.062300 -44.357700
C -17.970000 -6.699800 -44.764100
C -17.817800 -7.969400 -44.220700
H -17.388700 -5.525800 -46.291000
C -17.265100 -6.386700 -45.910200
C -16.926200 -8.844500 -44.820400
H -16.780600 -9.711300 -44.461300
N -16.422600 -7.225000 -46.508900
C -16.253800 -8.429200 -45.951100
H -15.638400 -9.030500 -46.354200
H -21.646400 -2.913500 -39.538300
H -21.293800 -5.046400 -38.681600
C -21.005100 -3.485000 -39.945700
C -20.798200 -4.752300 -39.436700
H -20.423900 -2.164900 -41.385700
C -20.287000 -3.041200 -41.043000
C -19.874200 -5.592400 -40.021300
H -19.718900 -6.455000 -39.654600
C -19.360600 -3.895000 -41.641000
C -19.172800 -5.177100 -41.141600
N -18.596700 -2.331300 -43.062000
N -18.591500 -3.552200 -42.784300
H -18.563600 -5.768800 -41.567700
H -18.544200 -0.121200 -44.357700
C -17.970000 -0.758700 -44.764100
C -17.817800 -2.028300 -44.220700
H -17.388700 0.415300 -46.291000
C -17.265100 -0.445600 -45.910200
C -16.926200 -2.903400 -44.820400
H -16.780600 -3.770200 -44.461300
N -16.422600 -1.283900 -46.508900
C -16.253800 -2.488100 -45.951100
H -15.638400 -3.089400 -46.354200
