23
Fragment
H -21.646400 -8.854600 -39.538300
H -21.293800 -10.987500 -38.681600
C -21.005100 -9.426100 -39.945700
C -20.798200 -10.693400 -39.436700
H -20.423900 -8.106000 -41.385700
C -20.287000 -8.982300 -41.043000
C -19.874200 -11.533500 -40.021300
H -19.718900 -12.396100 -39.654600
C -19.360600 -9.836100 -41.641000
C -19.172800 -11.118200 -41.141600
N -18.596700 -8.272400 -43.062000
N -18.591500 -9.493300 -42.784300
H -18.563600 -11.709900 -41.567700
H -18.544200 -6.062300 -44.357700
C -17.970000 -6.699800 -44.764100
C -17.817800 -7.969400 -44.220700
H -17.388700 -5.525800 -46.291000
C -17.265100 -6.386700 -45.910200
C -16.926200 -8.844500 -44.820400
H -16.780600 -9.711300 -44.461300
N -16.422600 -7.225000 -46.508900
C -16.253800 -8.429200 -45.951100
H -15.638400 -9.030500 -46.354200
16
Fragment
H -17.790400 -10.403500 -38.310100
O -17.727900 -7.993000 -38.492000
N -17.028400 -8.278900 -39.464000
C -16.829800 -10.482500 -38.540100
O -16.782500 -7.506300 -40.395000
H -16.735000 -11.103900 -35.477100
H -16.677300 -11.385500 -38.916600
N -16.489600 -9.487900 -39.529500
N -16.331900 -11.305900 -36.287000
H -16.144200 -9.408300 -36.899900
H -16.086500 -9.689900 -40.339400
O -16.039000 -13.287500 -35.421500
C -15.991700 -10.311400 -37.276500
N -15.793100 -12.514900 -36.352500
O -15.093600 -12.800800 -37.324500
H -15.031100 -10.390400 -37.506400
39
Fragment
H -21.646400 -8.854600 -39.538300
H -21.293800 -10.987500 -38.681600
C -21.005100 -9.426100 -39.945700
C -20.798200 -10.693400 -39.436700
H -20.423900 -8.106000 -41.385700
C -20.287000 -8.982300 -41.043000
C -19.874200 -11.533500 -40.021300
H -19.718900 -12.396100 -39.654600
C -19.360600 -9.836100 -41.641000
C -19.172800 -11.118200 -41.141600
N -18.596700 -8.272400 -43.062000
N -18.591500 -9.493300 -42.784300
H -18.563600 -11.709900 -41.567700
H -18.544200 -6.062300 -44.357700
C -17.970000 -6.699800 -44.764100
C -17.817800 -7.969400 -44.220700
H -17.388700 -5.525800 -46.291000
C -17.265100 -6.386700 -45.910200
C -16.926200 -8.844500 -44.820400
H -16.780600 -9.711300 -44.461300
N -16.422600 -7.225000 -46.508900
C -16.253800 -8.429200 -45.951100
H -15.638400 -9.030500 -46.354200
H -17.790400 -10.403500 -38.310100
O -17.727900 -7.993000 -38.492000
N -17.028400 -8.278900 -39.464000
C -16.829800 -10.482500 -38.540100
O -16.782500 -7.506300 -40.395000
H -16.735000 -11.103900 -35.477100
H -16.677300 -11.385500 -38.916600
N -16.489600 -9.487900 -39.529500
N -16.331900 -11.305900 -36.287000
H -16.144200 -9.408300 -36.899900
H -16.086500 -9.689900 -40.339400
O -16.039000 -13.287500 -35.421500
C -15.991700 -10.311400 -37.276500
N -15.793100 -12.514900 -36.352500
O -15.093600 -12.800800 -37.324500
H -15.031100 -10.390400 -37.506400
