16
Fragment
O -13.408600 -11.152100 -16.997800
H -13.279100 -8.804600 -15.557900
H -13.084200 -8.975900 -13.210900
N -12.495700 -8.541100 -13.733200
N -12.448200 -10.684700 -17.607500
C -12.376100 -8.725200 -15.160000
O -12.339600 -10.692900 -18.850300
H -12.004700 -10.768200 -15.097100
H -11.935600 -7.932600 -15.556900
O -11.600800 -8.007900 -11.803700
C -11.564300 -9.975600 -15.494100
N -11.492200 -8.016100 -13.046600
N -11.444600 -10.159700 -16.920800
H -10.856100 -9.724800 -17.443200
H -10.661200 -9.896200 -15.096100
O -10.531800 -7.548700 -13.656300
16
Fragment
O -11.461300 -5.975900 -16.997800
H -11.331900 -3.628400 -15.557900
H -11.137000 -3.799800 -13.210900
N -10.548500 -3.364900 -13.733200
N -10.501000 -5.508500 -17.607500
C -10.428900 -3.549000 -15.160000
O -10.392400 -5.516800 -18.850300
H -10.057500 -5.592000 -15.097100
H -9.988400 -2.756500 -15.556900
O -9.653500 -2.831700 -11.803700
C -9.617000 -4.799500 -15.494100
N -9.544900 -2.840000 -13.046600
N -9.497400 -4.983600 -16.920800
H -8.908900 -4.548700 -17.443200
H -8.714000 -4.720100 -15.096100
O -8.584600 -2.372500 -13.656300
32
Fragment
O -13.408600 -11.152100 -16.997800
H -13.279100 -8.804600 -15.557900
H -13.084200 -8.975900 -13.210900
N -12.495700 -8.541100 -13.733200
N -12.448200 -10.684700 -17.607500
C -12.376100 -8.725200 -15.160000
O -12.339600 -10.692900 -18.850300
H -12.004700 -10.768200 -15.097100
H -11.935600 -7.932600 -15.556900
O -11.600800 -8.007900 -11.803700
C -11.564300 -9.975600 -15.494100
N -11.492200 -8.016100 -13.046600
N -11.444600 -10.159700 -16.920800
H -10.856100 -9.724800 -17.443200
H -10.661200 -9.896200 -15.096100
O -10.531800 -7.548700 -13.656300
O -11.461300 -5.975900 -16.997800
H -11.331900 -3.628400 -15.557900
H -11.137000 -3.799800 -13.210900
N -10.548500 -3.364900 -13.733200
N -10.501000 -5.508500 -17.607500
C -10.428900 -3.549000 -15.160000
O -10.392400 -5.516800 -18.850300
H -10.057500 -5.592000 -15.097100
H -9.988400 -2.756500 -15.556900
O -9.653500 -2.831700 -11.803700
C -9.617000 -4.799500 -15.494100
N -9.544900 -2.840000 -13.046600
N -9.497400 -4.983600 -16.920800
H -8.908900 -4.548700 -17.443200
H -8.714000 -4.720100 -15.096100
O -8.584600 -2.372500 -13.656300
