23
Fragment
H -21.646400 -8.854600 -39.538300
H -21.293800 -10.987500 -38.681600
C -21.005100 -9.426100 -39.945700
C -20.798200 -10.693400 -39.436700
H -20.423900 -8.106000 -41.385700
C -20.287000 -8.982300 -41.043000
C -19.874200 -11.533500 -40.021300
H -19.718900 -12.396100 -39.654600
C -19.360600 -9.836100 -41.641000
C -19.172800 -11.118200 -41.141600
N -18.596700 -8.272400 -43.062000
N -18.591500 -9.493300 -42.784300
H -18.563600 -11.709900 -41.567700
H -18.544200 -6.062300 -44.357700
C -17.970000 -6.699800 -44.764100
C -17.817800 -7.969400 -44.220700
H -17.388700 -5.525800 -46.291000
C -17.265100 -6.386700 -45.910200
C -16.926200 -8.844500 -44.820400
H -16.780600 -9.711300 -44.461300
N -16.422600 -7.225000 -46.508900
C -16.253800 -8.429200 -45.951100
H -15.638400 -9.030500 -46.354200
23
Fragment
H -25.162600 -14.733900 -29.462300
C -24.547200 -15.335200 -29.865400
N -24.378400 -16.539400 -29.307600
H -24.020400 -14.053100 -31.355200
C -23.874800 -14.919900 -30.996100
C -23.535900 -17.377700 -29.906300
H -23.412300 -18.238600 -29.525500
C -22.983200 -15.795000 -31.595800
C -22.831000 -17.064600 -31.052400
H -22.256800 -17.702100 -31.458800
H -22.237400 -12.054500 -34.248800
N -22.209500 -14.271100 -33.032200
N -22.204300 -15.492000 -32.754500
C -21.628200 -12.646200 -34.674900
C -21.440400 -13.928300 -34.175600
H -21.082200 -11.368300 -36.161900
C -20.926800 -12.230900 -35.795300
C -20.514000 -14.782100 -34.773500
H -20.377100 -15.658400 -34.430800
C -20.002800 -13.071000 -36.379800
C -19.795900 -14.338300 -35.870800
H -19.507200 -12.776900 -37.134900
H -19.154600 -14.909800 -36.278200
46
Fragment
H -21.646400 -8.854600 -39.538300
H -21.293800 -10.987500 -38.681600
C -21.005100 -9.426100 -39.945700
C -20.798200 -10.693400 -39.436700
H -20.423900 -8.106000 -41.385700
C -20.287000 -8.982300 -41.043000
C -19.874200 -11.533500 -40.021300
H -19.718900 -12.396100 -39.654600
C -19.360600 -9.836100 -41.641000
C -19.172800 -11.118200 -41.141600
N -18.596700 -8.272400 -43.062000
N -18.591500 -9.493300 -42.784300
H -18.563600 -11.709900 -41.567700
H -18.544200 -6.062300 -44.357700
C -17.970000 -6.699800 -44.764100
C -17.817800 -7.969400 -44.220700
H -17.388700 -5.525800 -46.291000
C -17.265100 -6.386700 -45.910200
C -16.926200 -8.844500 -44.820400
H -16.780600 -9.711300 -44.461300
N -16.422600 -7.225000 -46.508900
C -16.253800 -8.429200 -45.951100
H -15.638400 -9.030500 -46.354200
H -25.162600 -14.733900 -29.462300
C -24.547200 -15.335200 -29.865400
N -24.378400 -16.539400 -29.307600
H -24.020400 -14.053100 -31.355200
C -23.874800 -14.919900 -30.996100
C -23.535900 -17.377700 -29.906300
H -23.412300 -18.238600 -29.525500
C -22.983200 -15.795000 -31.595800
C -22.831000 -17.064600 -31.052400
H -22.256800 -17.702100 -31.458800
H -22.237400 -12.054500 -34.248800
N -22.209500 -14.271100 -33.032200
N -22.204300 -15.492000 -32.754500
C -21.628200 -12.646200 -34.674900
C -21.440400 -13.928300 -34.175600
H -21.082200 -11.368300 -36.161900
C -20.926800 -12.230900 -35.795300
C -20.514000 -14.782100 -34.773500
H -20.377100 -15.658400 -34.430800
C -20.002800 -13.071000 -36.379800
C -19.795900 -14.338300 -35.870800
H -19.507200 -12.776900 -37.134900
H -19.154600 -14.909800 -36.278200
