16
Fragment
O -13.408600 -11.152100 -16.997800
H -13.279100 -8.804600 -15.557900
H -13.084200 -8.975900 -13.210900
N -12.495700 -8.541100 -13.733200
N -12.448200 -10.684700 -17.607500
C -12.376100 -8.725200 -15.160000
O -12.339600 -10.692900 -18.850300
H -12.004700 -10.768200 -15.097100
H -11.935600 -7.932600 -15.556900
O -11.600800 -8.007900 -11.803700
C -11.564300 -9.975600 -15.494100
N -11.492200 -8.016100 -13.046600
N -11.444600 -10.159700 -16.920800
H -10.856100 -9.724800 -17.443200
H -10.661200 -9.896200 -15.096100
O -10.531800 -7.548700 -13.656300
12
Fragment
H -17.135100 -11.921500 -9.890000
C -16.385600 -11.352500 -10.020600
O -16.335500 -10.824800 -7.767400
H -16.242400 -11.675500 -12.001100
C -15.857700 -11.207100 -11.269600
N -15.851100 -10.692600 -8.962900
N -14.791200 -10.401500 -11.473100
C -14.784600 -9.887000 -9.166500
H -14.399800 -9.418600 -8.435000
O -14.306700 -10.269300 -12.668600
C -14.256700 -9.741600 -10.415400
H -13.507200 -9.172600 -10.546000
28
Fragment
O -13.408600 -11.152100 -16.997800
H -13.279100 -8.804600 -15.557900
H -13.084200 -8.975900 -13.210900
N -12.495700 -8.541100 -13.733200
N -12.448200 -10.684700 -17.607500
C -12.376100 -8.725200 -15.160000
O -12.339600 -10.692900 -18.850300
H -12.004700 -10.768200 -15.097100
H -11.935600 -7.932600 -15.556900
O -11.600800 -8.007900 -11.803700
C -11.564300 -9.975600 -15.494100
N -11.492200 -8.016100 -13.046600
N -11.444600 -10.159700 -16.920800
H -10.856100 -9.724800 -17.443200
H -10.661200 -9.896200 -15.096100
O -10.531800 -7.548700 -13.656300
H -17.135100 -11.921500 -9.890000
C -16.385600 -11.352500 -10.020600
O -16.335500 -10.824800 -7.767400
H -16.242400 -11.675500 -12.001100
C -15.857700 -11.207100 -11.269600
N -15.851100 -10.692600 -8.962900
N -14.791200 -10.401500 -11.473100
C -14.784600 -9.887000 -9.166500
H -14.399800 -9.418600 -8.435000
O -14.306700 -10.269300 -12.668600
C -14.256700 -9.741600 -10.415400
H -13.507200 -9.172600 -10.546000
