16
Fragment
O -13.408600 -11.152100 -16.997800
H -13.279100 -8.804600 -15.557900
H -13.084200 -8.975900 -13.210900
N -12.495700 -8.541100 -13.733200
N -12.448200 -10.684700 -17.607500
C -12.376100 -8.725200 -15.160000
O -12.339600 -10.692900 -18.850300
H -12.004700 -10.768200 -15.097100
H -11.935600 -7.932600 -15.556900
O -11.600800 -8.007900 -11.803700
C -11.564300 -9.975600 -15.494100
N -11.492200 -8.016100 -13.046600
N -11.444600 -10.159700 -16.920800
H -10.856100 -9.724800 -17.443200
H -10.661200 -9.896200 -15.096100
O -10.531800 -7.548700 -13.656300
12
Fragment
H -10.433200 -9.528200 -20.108000
C -9.683700 -8.959200 -20.238600
O -9.633600 -8.431400 -17.985400
H -9.540600 -9.282200 -22.219100
C -9.155800 -8.813800 -21.487600
N -9.149200 -8.299300 -19.181000
N -8.089300 -8.008200 -21.691100
C -8.082700 -7.493600 -19.384500
H -7.697900 -7.025300 -18.653000
O -7.604900 -7.876000 -22.886600
C -7.554800 -7.348300 -20.633400
H -6.805300 -6.779200 -20.764000
28
Fragment
O -13.408600 -11.152100 -16.997800
H -13.279100 -8.804600 -15.557900
H -13.084200 -8.975900 -13.210900
N -12.495700 -8.541100 -13.733200
N -12.448200 -10.684700 -17.607500
C -12.376100 -8.725200 -15.160000
O -12.339600 -10.692900 -18.850300
H -12.004700 -10.768200 -15.097100
H -11.935600 -7.932600 -15.556900
O -11.600800 -8.007900 -11.803700
C -11.564300 -9.975600 -15.494100
N -11.492200 -8.016100 -13.046600
N -11.444600 -10.159700 -16.920800
H -10.856100 -9.724800 -17.443200
H -10.661200 -9.896200 -15.096100
O -10.531800 -7.548700 -13.656300
H -10.433200 -9.528200 -20.108000
C -9.683700 -8.959200 -20.238600
O -9.633600 -8.431400 -17.985400
H -9.540600 -9.282200 -22.219100
C -9.155800 -8.813800 -21.487600
N -9.149200 -8.299300 -19.181000
N -8.089300 -8.008200 -21.691100
C -8.082700 -7.493600 -19.384500
H -7.697900 -7.025300 -18.653000
O -7.604900 -7.876000 -22.886600
C -7.554800 -7.348300 -20.633400
H -6.805300 -6.779200 -20.764000
