23
Fragment
H -21.646400 -8.854600 -39.538300
H -21.293800 -10.987500 -38.681600
C -21.005100 -9.426100 -39.945700
C -20.798200 -10.693400 -39.436700
H -20.423900 -8.106000 -41.385700
C -20.287000 -8.982300 -41.043000
C -19.874200 -11.533500 -40.021300
H -19.718900 -12.396100 -39.654600
C -19.360600 -9.836100 -41.641000
C -19.172800 -11.118200 -41.141600
N -18.596700 -8.272400 -43.062000
N -18.591500 -9.493300 -42.784300
H -18.563600 -11.709900 -41.567700
H -18.544200 -6.062300 -44.357700
C -17.970000 -6.699800 -44.764100
C -17.817800 -7.969400 -44.220700
H -17.388700 -5.525800 -46.291000
C -17.265100 -6.386700 -45.910200
C -16.926200 -8.844500 -44.820400
H -16.780600 -9.711300 -44.461300
N -16.422600 -7.225000 -46.508900
C -16.253800 -8.429200 -45.951100
H -15.638400 -9.030500 -46.354200
23
Fragment
H -23.983200 -3.089400 -42.098400
C -23.367900 -2.488100 -42.501500
N -23.199100 -1.283900 -41.943700
H -22.841000 -3.770200 -43.991300
C -22.695500 -2.903400 -43.632200
C -22.356600 -0.445600 -42.542400
H -22.233000 0.415300 -42.161600
C -21.803900 -2.028300 -44.231900
C -21.651600 -0.758700 -43.688500
H -21.077500 -0.121200 -44.094900
H -21.058100 -5.768800 -46.884900
N -21.030200 -3.552200 -45.668300
N -21.025000 -2.331300 -45.390600
C -20.448900 -5.177100 -47.311000
C -20.261000 -3.895000 -46.811600
H -19.902800 -6.455000 -48.798000
C -19.747500 -5.592400 -48.431300
C -19.334700 -3.041200 -47.409600
H -19.197800 -2.164900 -47.066900
C -18.823400 -4.752300 -49.015900
C -18.616600 -3.485000 -48.506900
H -18.327800 -5.046400 -49.771000
H -17.975300 -2.913500 -48.914300
46
Fragment
H -21.646400 -8.854600 -39.538300
H -21.293800 -10.987500 -38.681600
C -21.005100 -9.426100 -39.945700
C -20.798200 -10.693400 -39.436700
H -20.423900 -8.106000 -41.385700
C -20.287000 -8.982300 -41.043000
C -19.874200 -11.533500 -40.021300
H -19.718900 -12.396100 -39.654600
C -19.360600 -9.836100 -41.641000
C -19.172800 -11.118200 -41.141600
N -18.596700 -8.272400 -43.062000
N -18.591500 -9.493300 -42.784300
H -18.563600 -11.709900 -41.567700
H -18.544200 -6.062300 -44.357700
C -17.970000 -6.699800 -44.764100
C -17.817800 -7.969400 -44.220700
H -17.388700 -5.525800 -46.291000
C -17.265100 -6.386700 -45.910200
C -16.926200 -8.844500 -44.820400
H -16.780600 -9.711300 -44.461300
N -16.422600 -7.225000 -46.508900
C -16.253800 -8.429200 -45.951100
H -15.638400 -9.030500 -46.354200
H -23.983200 -3.089400 -42.098400
C -23.367900 -2.488100 -42.501500
N -23.199100 -1.283900 -41.943700
H -22.841000 -3.770200 -43.991300
C -22.695500 -2.903400 -43.632200
C -22.356600 -0.445600 -42.542400
H -22.233000 0.415300 -42.161600
C -21.803900 -2.028300 -44.231900
C -21.651600 -0.758700 -43.688500
H -21.077500 -0.121200 -44.094900
H -21.058100 -5.768800 -46.884900
N -21.030200 -3.552200 -45.668300
N -21.025000 -2.331300 -45.390600
C -20.448900 -5.177100 -47.311000
C -20.261000 -3.895000 -46.811600
H -19.902800 -6.455000 -48.798000
C -19.747500 -5.592400 -48.431300
C -19.334700 -3.041200 -47.409600
H -19.197800 -2.164900 -47.066900
C -18.823400 -4.752300 -49.015900
C -18.616600 -3.485000 -48.506900
H -18.327800 -5.046400 -49.771000
H -17.975300 -2.913500 -48.914300
