23
Fragment
H -21.646400 -8.854600 -39.538300
H -21.293800 -10.987500 -38.681600
C -21.005100 -9.426100 -39.945700
C -20.798200 -10.693400 -39.436700
H -20.423900 -8.106000 -41.385700
C -20.287000 -8.982300 -41.043000
C -19.874200 -11.533500 -40.021300
H -19.718900 -12.396100 -39.654600
C -19.360600 -9.836100 -41.641000
C -19.172800 -11.118200 -41.141600
N -18.596700 -8.272400 -43.062000
N -18.591500 -9.493300 -42.784300
H -18.563600 -11.709900 -41.567700
H -18.544200 -6.062300 -44.357700
C -17.970000 -6.699800 -44.764100
C -17.817800 -7.969400 -44.220700
H -17.388700 -5.525800 -46.291000
C -17.265100 -6.386700 -45.910200
C -16.926200 -8.844500 -44.820400
H -16.780600 -9.711300 -44.461300
N -16.422600 -7.225000 -46.508900
C -16.253800 -8.429200 -45.951100
H -15.638400 -9.030500 -46.354200
23
Fragment
H -21.646400 -14.795700 -39.538300
H -21.293800 -16.928600 -38.681600
C -21.005100 -15.367200 -39.945700
C -20.798200 -16.634500 -39.436700
H -20.423900 -14.047100 -41.385700
C -20.287000 -14.923400 -41.043000
C -19.874200 -17.474600 -40.021300
H -19.718900 -18.337200 -39.654600
C -19.360600 -15.777200 -41.641000
C -19.172800 -17.059300 -41.141600
N -18.596700 -14.213500 -43.062000
N -18.591500 -15.434400 -42.784300
H -18.563600 -17.651000 -41.567700
H -18.544200 -12.003400 -44.357700
C -17.970000 -12.640900 -44.764100
C -17.817800 -13.910500 -44.220700
H -17.388700 -11.466900 -46.291000
C -17.265100 -12.327800 -45.910200
C -16.926200 -14.785600 -44.820400
H -16.780600 -15.652400 -44.461300
N -16.422600 -13.166100 -46.508900
C -16.253800 -14.370300 -45.951100
H -15.638400 -14.971600 -46.354200
46
Fragment
H -21.646400 -8.854600 -39.538300
H -21.293800 -10.987500 -38.681600
C -21.005100 -9.426100 -39.945700
C -20.798200 -10.693400 -39.436700
H -20.423900 -8.106000 -41.385700
C -20.287000 -8.982300 -41.043000
C -19.874200 -11.533500 -40.021300
H -19.718900 -12.396100 -39.654600
C -19.360600 -9.836100 -41.641000
C -19.172800 -11.118200 -41.141600
N -18.596700 -8.272400 -43.062000
N -18.591500 -9.493300 -42.784300
H -18.563600 -11.709900 -41.567700
H -18.544200 -6.062300 -44.357700
C -17.970000 -6.699800 -44.764100
C -17.817800 -7.969400 -44.220700
H -17.388700 -5.525800 -46.291000
C -17.265100 -6.386700 -45.910200
C -16.926200 -8.844500 -44.820400
H -16.780600 -9.711300 -44.461300
N -16.422600 -7.225000 -46.508900
C -16.253800 -8.429200 -45.951100
H -15.638400 -9.030500 -46.354200
H -21.646400 -14.795700 -39.538300
H -21.293800 -16.928600 -38.681600
C -21.005100 -15.367200 -39.945700
C -20.798200 -16.634500 -39.436700
H -20.423900 -14.047100 -41.385700
C -20.287000 -14.923400 -41.043000
C -19.874200 -17.474600 -40.021300
H -19.718900 -18.337200 -39.654600
C -19.360600 -15.777200 -41.641000
C -19.172800 -17.059300 -41.141600
N -18.596700 -14.213500 -43.062000
N -18.591500 -15.434400 -42.784300
H -18.563600 -17.651000 -41.567700
H -18.544200 -12.003400 -44.357700
C -17.970000 -12.640900 -44.764100
C -17.817800 -13.910500 -44.220700
H -17.388700 -11.466900 -46.291000
C -17.265100 -12.327800 -45.910200
C -16.926200 -14.785600 -44.820400
H -16.780600 -15.652400 -44.461300
N -16.422600 -13.166100 -46.508900
C -16.253800 -14.370300 -45.951100
H -15.638400 -14.971600 -46.354200
