16
Fragment
O -13.408600 -11.152100 -16.997800
H -13.279100 -8.804600 -15.557900
H -13.084200 -8.975900 -13.210900
N -12.495700 -8.541100 -13.733200
N -12.448200 -10.684700 -17.607500
C -12.376100 -8.725200 -15.160000
O -12.339600 -10.692900 -18.850300
H -12.004700 -10.768200 -15.097100
H -11.935600 -7.932600 -15.556900
O -11.600800 -8.007900 -11.803700
C -11.564300 -9.975600 -15.494100
N -11.492200 -8.016100 -13.046600
N -11.444600 -10.159700 -16.920800
H -10.856100 -9.724800 -17.443200
H -10.661200 -9.896200 -15.096100
O -10.531800 -7.548700 -13.656300
16
Fragment
O -8.507200 -11.152100 -16.997800
H -8.377700 -8.804600 -15.557900
H -8.182800 -8.975900 -13.210900
N -7.594300 -8.541100 -13.733200
N -7.546800 -10.684700 -17.607500
C -7.474700 -8.725200 -15.160000
O -7.438200 -10.692900 -18.850300
H -7.103300 -10.768200 -15.097100
H -7.034200 -7.932600 -15.556900
O -6.699400 -8.007900 -11.803700
C -6.662900 -9.975600 -15.494100
N -6.590800 -8.016100 -13.046600
N -6.543200 -10.159700 -16.920800
H -5.954700 -9.724800 -17.443200
H -5.759800 -9.896200 -15.096100
O -5.630400 -7.548700 -13.656300
32
Fragment
O -13.408600 -11.152100 -16.997800
H -13.279100 -8.804600 -15.557900
H -13.084200 -8.975900 -13.210900
N -12.495700 -8.541100 -13.733200
N -12.448200 -10.684700 -17.607500
C -12.376100 -8.725200 -15.160000
O -12.339600 -10.692900 -18.850300
H -12.004700 -10.768200 -15.097100
H -11.935600 -7.932600 -15.556900
O -11.600800 -8.007900 -11.803700
C -11.564300 -9.975600 -15.494100
N -11.492200 -8.016100 -13.046600
N -11.444600 -10.159700 -16.920800
H -10.856100 -9.724800 -17.443200
H -10.661200 -9.896200 -15.096100
O -10.531800 -7.548700 -13.656300
O -8.507200 -11.152100 -16.997800
H -8.377700 -8.804600 -15.557900
H -8.182800 -8.975900 -13.210900
N -7.594300 -8.541100 -13.733200
N -7.546800 -10.684700 -17.607500
C -7.474700 -8.725200 -15.160000
O -7.438200 -10.692900 -18.850300
H -7.103300 -10.768200 -15.097100
H -7.034200 -7.932600 -15.556900
O -6.699400 -8.007900 -11.803700
C -6.662900 -9.975600 -15.494100
N -6.590800 -8.016100 -13.046600
N -6.543200 -10.159700 -16.920800
H -5.954700 -9.724800 -17.443200
H -5.759800 -9.896200 -15.096100
O -5.630400 -7.548700 -13.656300
