16
Fragment
O -13.408600 -11.152100 -16.997800
H -13.279100 -8.804600 -15.557900
H -13.084200 -8.975900 -13.210900
N -12.495700 -8.541100 -13.733200
N -12.448200 -10.684700 -17.607500
C -12.376100 -8.725200 -15.160000
O -12.339600 -10.692900 -18.850300
H -12.004700 -10.768200 -15.097100
H -11.935600 -7.932600 -15.556900
O -11.600800 -8.007900 -11.803700
C -11.564300 -9.975600 -15.494100
N -11.492200 -8.016100 -13.046600
N -11.444600 -10.159700 -16.920800
H -10.856100 -9.724800 -17.443200
H -10.661200 -9.896200 -15.096100
O -10.531800 -7.548700 -13.656300
16
Fragment
O -13.261800 -8.369300 -6.779800
H -13.132400 -6.021700 -5.339900
H -12.937500 -6.193100 -2.992900
N -12.349000 -5.758200 -3.515200
N -12.301400 -7.901900 -7.389500
C -12.229300 -5.942300 -4.941900
O -12.192800 -7.910100 -8.632300
H -11.858000 -7.985300 -4.879100
H -11.788900 -5.149800 -5.338900
O -11.454000 -5.225000 -1.585700
C -11.417500 -7.192800 -5.276100
N -11.345400 -5.233300 -2.828600
N -11.297900 -7.376900 -6.702800
H -10.709400 -6.942000 -7.225200
H -10.514500 -7.113400 -4.878100
O -10.385000 -4.765900 -3.438300
32
Fragment
O -13.408600 -11.152100 -16.997800
H -13.279100 -8.804600 -15.557900
H -13.084200 -8.975900 -13.210900
N -12.495700 -8.541100 -13.733200
N -12.448200 -10.684700 -17.607500
C -12.376100 -8.725200 -15.160000
O -12.339600 -10.692900 -18.850300
H -12.004700 -10.768200 -15.097100
H -11.935600 -7.932600 -15.556900
O -11.600800 -8.007900 -11.803700
C -11.564300 -9.975600 -15.494100
N -11.492200 -8.016100 -13.046600
N -11.444600 -10.159700 -16.920800
H -10.856100 -9.724800 -17.443200
H -10.661200 -9.896200 -15.096100
O -10.531800 -7.548700 -13.656300
O -13.261800 -8.369300 -6.779800
H -13.132400 -6.021700 -5.339900
H -12.937500 -6.193100 -2.992900
N -12.349000 -5.758200 -3.515200
N -12.301400 -7.901900 -7.389500
C -12.229300 -5.942300 -4.941900
O -12.192800 -7.910100 -8.632300
H -11.858000 -7.985300 -4.879100
H -11.788900 -5.149800 -5.338900
O -11.454000 -5.225000 -1.585700
C -11.417500 -7.192800 -5.276100
N -11.345400 -5.233300 -2.828600
N -11.297900 -7.376900 -6.702800
H -10.709400 -6.942000 -7.225200
H -10.514500 -7.113400 -4.878100
O -10.385000 -4.765900 -3.438300
