22
Fragment
H -8.895200 -8.027800 -9.494700
H -8.384100 -6.512400 -7.878100
C -8.152700 -7.479700 -9.607600
H -7.841200 -9.884600 -15.486100
C -7.838700 -6.568500 -8.629200
N -7.421900 -7.596600 -10.713400
C -6.908700 -9.817300 -15.703500
H -6.811700 -9.516700 -16.609700
N -6.779200 -5.761500 -8.716700
N -6.756500 -8.602100 -13.582300
H -6.494800 -10.678600 -15.606000
C -6.378300 -6.779400 -10.822000
C -6.253800 -8.845600 -14.784800
C -6.052600 -5.867300 -9.820200
N -5.854900 -7.674300 -13.116700
C -5.592300 -6.858500 -12.042000
H -5.308100 -5.320800 -9.928300
N -5.115300 -8.170700 -15.138900
C -4.914300 -7.438200 -14.054100
N -4.521200 -6.142900 -12.300300
N -4.100200 -6.502500 -13.549000
H -3.345100 -6.098000 -13.920200
22
Fragment
H -9.755000 -3.016400 -7.695000
N -8.999900 -2.611800 -8.066300
N -8.578900 -2.971500 -9.315000
C -8.185800 -1.676200 -7.561100
N -7.984800 -0.943700 -6.476400
H -7.792000 -3.793500 -11.686900
C -7.507800 -2.255900 -9.573300
N -7.245300 -1.440100 -8.498600
C -7.047500 -3.247100 -11.795000
C -6.846300 -0.268800 -6.830400
C -6.721800 -2.334900 -10.793200
H -6.605400 1.564200 -6.009200
N -6.343600 -0.512300 -8.033000
N -6.320900 -3.352900 -12.898600
H -6.288400 0.402300 -5.005500
C -6.191400 0.702900 -5.911800
N -5.678200 -1.517800 -10.901900
C -5.261400 -2.545900 -12.986000
H -5.258900 0.770200 -6.129100
C -4.947400 -1.634700 -12.007600
H -4.716000 -2.602000 -13.737100
H -4.204900 -1.086500 -12.120500
44
Fragment
H -8.895200 -8.027800 -9.494700
H -8.384100 -6.512400 -7.878100
C -8.152700 -7.479700 -9.607600
H -7.841200 -9.884600 -15.486100
C -7.838700 -6.568500 -8.629200
N -7.421900 -7.596600 -10.713400
C -6.908700 -9.817300 -15.703500
H -6.811700 -9.516700 -16.609700
N -6.779200 -5.761500 -8.716700
N -6.756500 -8.602100 -13.582300
H -6.494800 -10.678600 -15.606000
C -6.378300 -6.779400 -10.822000
C -6.253800 -8.845600 -14.784800
C -6.052600 -5.867300 -9.820200
N -5.854900 -7.674300 -13.116700
C -5.592300 -6.858500 -12.042000
H -5.308100 -5.320800 -9.928300
N -5.115300 -8.170700 -15.138900
C -4.914300 -7.438200 -14.054100
N -4.521200 -6.142900 -12.300300
N -4.100200 -6.502500 -13.549000
H -3.345100 -6.098000 -13.920200
H -9.755000 -3.016400 -7.695000
N -8.999900 -2.611800 -8.066300
N -8.578900 -2.971500 -9.315000
C -8.185800 -1.676200 -7.561100
N -7.984800 -0.943700 -6.476400
H -7.792000 -3.793500 -11.686900
C -7.507800 -2.255900 -9.573300
N -7.245300 -1.440100 -8.498600
C -7.047500 -3.247100 -11.795000
C -6.846300 -0.268800 -6.830400
C -6.721800 -2.334900 -10.793200
H -6.605400 1.564200 -6.009200
N -6.343600 -0.512300 -8.033000
N -6.320900 -3.352900 -12.898600
H -6.288400 0.402300 -5.005500
C -6.191400 0.702900 -5.911800
N -5.678200 -1.517800 -10.901900
C -5.261400 -2.545900 -12.986000
H -5.258900 0.770200 -6.129100
C -4.947400 -1.634700 -12.007600
H -4.716000 -2.602000 -13.737100
H -4.204900 -1.086500 -12.120500
