22
Fragment
H -8.895200 -8.027800 -9.494700
H -8.384100 -6.512400 -7.878100
C -8.152700 -7.479700 -9.607600
H -7.841200 -9.884600 -15.486100
C -7.838700 -6.568500 -8.629200
N -7.421900 -7.596600 -10.713400
C -6.908700 -9.817300 -15.703500
H -6.811700 -9.516700 -16.609700
N -6.779200 -5.761500 -8.716700
N -6.756500 -8.602100 -13.582300
H -6.494800 -10.678600 -15.606000
C -6.378300 -6.779400 -10.822000
C -6.253800 -8.845600 -14.784800
C -6.052600 -5.867300 -9.820200
N -5.854900 -7.674300 -13.116700
C -5.592300 -6.858500 -12.042000
H -5.308100 -5.320800 -9.928300
N -5.115300 -8.170700 -15.138900
C -4.914300 -7.438200 -14.054100
N -4.521200 -6.142900 -12.300300
N -4.100200 -6.502500 -13.549000
H -3.345100 -6.098000 -13.920200
22
Fragment
H -7.268400 -16.030000 -18.502600
N -6.513300 -15.625500 -18.873900
N -6.092300 -15.985100 -20.122600
C -5.699200 -14.689800 -18.368700
N -5.498300 -13.957300 -17.284000
H -5.305400 -16.807100 -22.494500
C -5.021200 -15.269500 -20.380900
N -4.758700 -14.453700 -19.306200
C -4.560900 -16.260700 -22.602600
C -4.359800 -13.282400 -17.638000
C -4.235300 -15.348600 -21.600900
H -4.118800 -11.449400 -16.816900
N -3.857100 -13.525900 -18.840600
N -3.834300 -16.366500 -23.706200
H -3.801900 -12.611300 -15.813200
C -3.704800 -12.310700 -16.719400
N -3.191600 -14.531400 -21.709500
C -2.774800 -15.559500 -23.793600
H -2.772300 -12.243400 -16.936700
C -2.460800 -14.648300 -22.815200
H -2.229400 -15.615600 -24.544700
H -1.718400 -14.100200 -22.928100
44
Fragment
H -8.895200 -8.027800 -9.494700
H -8.384100 -6.512400 -7.878100
C -8.152700 -7.479700 -9.607600
H -7.841200 -9.884600 -15.486100
C -7.838700 -6.568500 -8.629200
N -7.421900 -7.596600 -10.713400
C -6.908700 -9.817300 -15.703500
H -6.811700 -9.516700 -16.609700
N -6.779200 -5.761500 -8.716700
N -6.756500 -8.602100 -13.582300
H -6.494800 -10.678600 -15.606000
C -6.378300 -6.779400 -10.822000
C -6.253800 -8.845600 -14.784800
C -6.052600 -5.867300 -9.820200
N -5.854900 -7.674300 -13.116700
C -5.592300 -6.858500 -12.042000
H -5.308100 -5.320800 -9.928300
N -5.115300 -8.170700 -15.138900
C -4.914300 -7.438200 -14.054100
N -4.521200 -6.142900 -12.300300
N -4.100200 -6.502500 -13.549000
H -3.345100 -6.098000 -13.920200
H -7.268400 -16.030000 -18.502600
N -6.513300 -15.625500 -18.873900
N -6.092300 -15.985100 -20.122600
C -5.699200 -14.689800 -18.368700
N -5.498300 -13.957300 -17.284000
H -5.305400 -16.807100 -22.494500
C -5.021200 -15.269500 -20.380900
N -4.758700 -14.453700 -19.306200
C -4.560900 -16.260700 -22.602600
C -4.359800 -13.282400 -17.638000
C -4.235300 -15.348600 -21.600900
H -4.118800 -11.449400 -16.816900
N -3.857100 -13.525900 -18.840600
N -3.834300 -16.366500 -23.706200
H -3.801900 -12.611300 -15.813200
C -3.704800 -12.310700 -16.719400
N -3.191600 -14.531400 -21.709500
C -2.774800 -15.559500 -23.793600
H -2.772300 -12.243400 -16.936700
C -2.460800 -14.648300 -22.815200
H -2.229400 -15.615600 -24.544700
H -1.718400 -14.100200 -22.928100
