26
Fragment
H -17.197700 -14.049500 -10.131400
H -17.097900 -16.265500 -8.728500
C -16.441900 -13.730100 -9.690600
H -16.418600 -11.956500 -10.952500
C -16.140100 -15.826700 -8.389700
C -15.970900 -12.498200 -10.094000
C -15.679000 -14.557100 -8.830500
C -15.361600 -16.612400 -7.559100
H -15.361400 -17.728400 -7.389300
C -14.734800 -12.020300 -9.656400
C -14.403500 -14.070500 -8.409700
H -14.270000 -11.304800 -9.876400
C -14.079000 -16.152600 -7.103200
C -13.930000 -12.815400 -8.839300
H -13.739000 -17.663200 -6.066100
C -13.605500 -14.897500 -7.532800
C -13.274100 -16.947700 -6.286100
H -12.647500 -11.239600 -8.553100
C -12.647400 -12.355600 -8.383300
C -12.330000 -14.410900 -7.111900
C -12.038000 -16.469800 -5.848500
C -11.868900 -13.141300 -7.552700
H -11.590400 -17.011500 -4.990000
C -11.567100 -15.237900 -6.251800
H -10.911100 -12.702500 -7.214000
H -10.811300 -14.918500 -5.811000
26
Fragment
H -10.031200 -11.297500 -10.131400
H -9.931400 -9.081500 -8.728500
C -9.275400 -11.616900 -9.690600
H -9.252100 -13.390500 -10.952500
C -8.973600 -9.520300 -8.389700
C -8.804400 -12.848800 -10.094000
C -8.512500 -10.789900 -8.830500
C -8.195100 -8.734600 -7.559100
H -8.194900 -7.618600 -7.389300
C -7.568300 -13.326700 -9.656400
C -7.237000 -11.276500 -8.409700
H -7.103500 -14.042200 -9.876400
C -6.912500 -9.194400 -7.103200
C -6.763500 -12.531600 -8.839300
H -6.572500 -7.683800 -6.066100
C -6.439000 -10.449500 -7.532800
C -6.107600 -8.399300 -6.286100
H -5.481000 -14.107400 -8.553100
C -5.480900 -12.991400 -8.383300
C -5.163500 -10.936100 -7.111900
C -4.871500 -8.877200 -5.848500
C -4.702400 -12.205700 -7.552700
H -4.423900 -8.335500 -4.990000
C -4.400600 -10.109100 -6.251800
H -3.744600 -12.644500 -7.214000
H -3.644800 -10.428500 -5.811000
52
Fragment
H -17.197700 -14.049500 -10.131400
H -17.097900 -16.265500 -8.728500
C -16.441900 -13.730100 -9.690600
H -16.418600 -11.956500 -10.952500
C -16.140100 -15.826700 -8.389700
C -15.970900 -12.498200 -10.094000
C -15.679000 -14.557100 -8.830500
C -15.361600 -16.612400 -7.559100
H -15.361400 -17.728400 -7.389300
C -14.734800 -12.020300 -9.656400
C -14.403500 -14.070500 -8.409700
H -14.270000 -11.304800 -9.876400
C -14.079000 -16.152600 -7.103200
C -13.930000 -12.815400 -8.839300
H -13.739000 -17.663200 -6.066100
C -13.605500 -14.897500 -7.532800
C -13.274100 -16.947700 -6.286100
H -12.647500 -11.239600 -8.553100
C -12.647400 -12.355600 -8.383300
C -12.330000 -14.410900 -7.111900
C -12.038000 -16.469800 -5.848500
C -11.868900 -13.141300 -7.552700
H -11.590400 -17.011500 -4.990000
C -11.567100 -15.237900 -6.251800
H -10.911100 -12.702500 -7.214000
H -10.811300 -14.918500 -5.811000
H -10.031200 -11.297500 -10.131400
H -9.931400 -9.081500 -8.728500
C -9.275400 -11.616900 -9.690600
H -9.252100 -13.390500 -10.952500
C -8.973600 -9.520300 -8.389700
C -8.804400 -12.848800 -10.094000
C -8.512500 -10.789900 -8.830500
C -8.195100 -8.734600 -7.559100
H -8.194900 -7.618600 -7.389300
C -7.568300 -13.326700 -9.656400
C -7.237000 -11.276500 -8.409700
H -7.103500 -14.042200 -9.876400
C -6.912500 -9.194400 -7.103200
C -6.763500 -12.531600 -8.839300
H -6.572500 -7.683800 -6.066100
C -6.439000 -10.449500 -7.532800
C -6.107600 -8.399300 -6.286100
H -5.481000 -14.107400 -8.553100
C -5.480900 -12.991400 -8.383300
C -5.163500 -10.936100 -7.111900
C -4.871500 -8.877200 -5.848500
C -4.702400 -12.205700 -7.552700
H -4.423900 -8.335500 -4.990000
C -4.400600 -10.109100 -6.251800
H -3.744600 -12.644500 -7.214000
H -3.644800 -10.428500 -5.811000
