20
Fragment
H -11.968000 -13.186700 -11.283500
H -11.102100 -12.139100 -9.423900
C -11.045200 -13.173000 -11.168900
C -10.537900 -12.540200 -10.044000
N -10.284800 -13.768100 -12.101900
H -9.660800 -15.032100 -14.185700
C -9.164700 -12.525100 -9.875500
C -8.951300 -13.750000 -11.926100
H -8.787900 -12.108200 -9.135000
C -8.736500 -15.035000 -14.085200
C -8.354700 -13.137000 -10.819400
H -8.303200 -16.063900 -15.769600
C -8.139900 -14.422100 -12.978600
C -7.926500 -15.646900 -15.029100
H -7.430300 -13.140000 -10.719000
N -6.806300 -14.404000 -12.802700
C -6.553200 -15.631900 -14.860600
C -6.046000 -14.999100 -13.735700
H -5.989000 -16.033000 -15.480700
H -5.123100 -14.985300 -13.621200
12
Fragment
H -15.184700 -10.259100 -7.193300
H -15.031500 -9.148100 -5.234100
C -14.361100 -10.064800 -6.808100
N -14.296300 -9.386300 -5.610900
F -13.258500 -11.095600 -8.595400
C -13.224300 -10.442100 -7.412800
C -13.128600 -9.078500 -5.001100
O -13.082000 -8.461700 -3.924600
N -11.990600 -9.489100 -5.642700
C -11.915200 -10.183900 -6.845300
H -11.244000 -9.297100 -5.261500
O -10.846300 -10.522800 -7.332000
32
Fragment
H -11.968000 -13.186700 -11.283500
H -11.102100 -12.139100 -9.423900
C -11.045200 -13.173000 -11.168900
C -10.537900 -12.540200 -10.044000
N -10.284800 -13.768100 -12.101900
H -9.660800 -15.032100 -14.185700
C -9.164700 -12.525100 -9.875500
C -8.951300 -13.750000 -11.926100
H -8.787900 -12.108200 -9.135000
C -8.736500 -15.035000 -14.085200
C -8.354700 -13.137000 -10.819400
H -8.303200 -16.063900 -15.769600
C -8.139900 -14.422100 -12.978600
C -7.926500 -15.646900 -15.029100
H -7.430300 -13.140000 -10.719000
N -6.806300 -14.404000 -12.802700
C -6.553200 -15.631900 -14.860600
C -6.046000 -14.999100 -13.735700
H -5.989000 -16.033000 -15.480700
H -5.123100 -14.985300 -13.621200
H -15.184700 -10.259100 -7.193300
H -15.031500 -9.148100 -5.234100
C -14.361100 -10.064800 -6.808100
N -14.296300 -9.386300 -5.610900
F -13.258500 -11.095600 -8.595400
C -13.224300 -10.442100 -7.412800
C -13.128600 -9.078500 -5.001100
O -13.082000 -8.461700 -3.924600
N -11.990600 -9.489100 -5.642700
C -11.915200 -10.183900 -6.845300
H -11.244000 -9.297100 -5.261500
O -10.846300 -10.522800 -7.332000
