20
Fragment
H -11.968000 -13.186700 -11.283500
H -11.102100 -12.139100 -9.423900
C -11.045200 -13.173000 -11.168900
C -10.537900 -12.540200 -10.044000
N -10.284800 -13.768100 -12.101900
H -9.660800 -15.032100 -14.185700
C -9.164700 -12.525100 -9.875500
C -8.951300 -13.750000 -11.926100
H -8.787900 -12.108200 -9.135000
C -8.736500 -15.035000 -14.085200
C -8.354700 -13.137000 -10.819400
H -8.303200 -16.063900 -15.769600
C -8.139900 -14.422100 -12.978600
C -7.926500 -15.646900 -15.029100
H -7.430300 -13.140000 -10.719000
N -6.806300 -14.404000 -12.802700
C -6.553200 -15.631900 -14.860600
C -6.046000 -14.999100 -13.735700
H -5.989000 -16.033000 -15.480700
H -5.123100 -14.985300 -13.621200
12
Fragment
O -6.124700 -15.730700 -9.271100
H -5.727000 -16.956400 -11.341600
C -5.055800 -16.069600 -9.757800
N -4.980400 -16.764500 -10.960400
O -3.889000 -17.791900 -12.678500
C -3.842400 -17.175000 -11.602000
C -3.746700 -15.811400 -9.190300
F -3.712500 -15.157900 -8.007700
N -2.674700 -16.867200 -10.992200
C -2.609900 -16.188800 -9.795000
H -1.939500 -17.105500 -11.369000
H -1.786300 -15.994400 -9.409800
32
Fragment
H -11.968000 -13.186700 -11.283500
H -11.102100 -12.139100 -9.423900
C -11.045200 -13.173000 -11.168900
C -10.537900 -12.540200 -10.044000
N -10.284800 -13.768100 -12.101900
H -9.660800 -15.032100 -14.185700
C -9.164700 -12.525100 -9.875500
C -8.951300 -13.750000 -11.926100
H -8.787900 -12.108200 -9.135000
C -8.736500 -15.035000 -14.085200
C -8.354700 -13.137000 -10.819400
H -8.303200 -16.063900 -15.769600
C -8.139900 -14.422100 -12.978600
C -7.926500 -15.646900 -15.029100
H -7.430300 -13.140000 -10.719000
N -6.806300 -14.404000 -12.802700
C -6.553200 -15.631900 -14.860600
C -6.046000 -14.999100 -13.735700
H -5.989000 -16.033000 -15.480700
H -5.123100 -14.985300 -13.621200
O -6.124700 -15.730700 -9.271100
H -5.727000 -16.956400 -11.341600
C -5.055800 -16.069600 -9.757800
N -4.980400 -16.764500 -10.960400
O -3.889000 -17.791900 -12.678500
C -3.842400 -17.175000 -11.602000
C -3.746700 -15.811400 -9.190300
F -3.712500 -15.157900 -8.007700
N -2.674700 -16.867200 -10.992200
C -2.609900 -16.188800 -9.795000
H -1.939500 -17.105500 -11.369000
H -1.786300 -15.994400 -9.409800
