20
Fragment
H -11.968000 -13.186700 -11.283500
H -11.102100 -12.139100 -9.423900
C -11.045200 -13.173000 -11.168900
C -10.537900 -12.540200 -10.044000
N -10.284800 -13.768100 -12.101900
H -9.660800 -15.032100 -14.185700
C -9.164700 -12.525100 -9.875500
C -8.951300 -13.750000 -11.926100
H -8.787900 -12.108200 -9.135000
C -8.736500 -15.035000 -14.085200
C -8.354700 -13.137000 -10.819400
H -8.303200 -16.063900 -15.769600
C -8.139900 -14.422100 -12.978600
C -7.926500 -15.646900 -15.029100
H -7.430300 -13.140000 -10.719000
N -6.806300 -14.404000 -12.802700
C -6.553200 -15.631900 -14.860600
C -6.046000 -14.999100 -13.735700
H -5.989000 -16.033000 -15.480700
H -5.123100 -14.985300 -13.621200
20
Fragment
H -12.088200 -15.105300 -19.585000
H -11.222300 -14.057600 -17.725500
C -11.165300 -15.091500 -19.470500
C -10.658100 -14.458700 -18.345600
N -10.405000 -15.686600 -20.403500
H -9.781000 -16.950600 -22.487200
C -9.284800 -14.443600 -18.177100
C -9.071500 -15.668500 -20.227600
H -8.908100 -14.026700 -17.436600
C -8.856700 -16.953500 -22.386800
C -8.474800 -15.055500 -19.121000
H -8.423400 -17.982400 -24.071200
C -8.260000 -16.340600 -21.280100
C -8.046600 -17.565500 -23.330700
H -7.550500 -15.058500 -19.020500
N -6.926500 -16.322500 -21.104300
C -6.673400 -17.550400 -23.162200
C -6.166200 -16.917600 -22.037300
H -6.109200 -17.951500 -23.782300
H -5.243300 -16.903800 -21.922700
40
Fragment
H -11.968000 -13.186700 -11.283500
H -11.102100 -12.139100 -9.423900
C -11.045200 -13.173000 -11.168900
C -10.537900 -12.540200 -10.044000
N -10.284800 -13.768100 -12.101900
H -9.660800 -15.032100 -14.185700
C -9.164700 -12.525100 -9.875500
C -8.951300 -13.750000 -11.926100
H -8.787900 -12.108200 -9.135000
C -8.736500 -15.035000 -14.085200
C -8.354700 -13.137000 -10.819400
H -8.303200 -16.063900 -15.769600
C -8.139900 -14.422100 -12.978600
C -7.926500 -15.646900 -15.029100
H -7.430300 -13.140000 -10.719000
N -6.806300 -14.404000 -12.802700
C -6.553200 -15.631900 -14.860600
C -6.046000 -14.999100 -13.735700
H -5.989000 -16.033000 -15.480700
H -5.123100 -14.985300 -13.621200
H -12.088200 -15.105300 -19.585000
H -11.222300 -14.057600 -17.725500
C -11.165300 -15.091500 -19.470500
C -10.658100 -14.458700 -18.345600
N -10.405000 -15.686600 -20.403500
H -9.781000 -16.950600 -22.487200
C -9.284800 -14.443600 -18.177100
C -9.071500 -15.668500 -20.227600
H -8.908100 -14.026700 -17.436600
C -8.856700 -16.953500 -22.386800
C -8.474800 -15.055500 -19.121000
H -8.423400 -17.982400 -24.071200
C -8.260000 -16.340600 -21.280100
C -8.046600 -17.565500 -23.330700
H -7.550500 -15.058500 -19.020500
N -6.926500 -16.322500 -21.104300
C -6.673400 -17.550400 -23.162200
C -6.166200 -16.917600 -22.037300
H -6.109200 -17.951500 -23.782300
H -5.243300 -16.903800 -21.922700
