20
Fragment
H -11.968000 -13.186700 -11.283500
H -11.102100 -12.139100 -9.423900
C -11.045200 -13.173000 -11.168900
C -10.537900 -12.540200 -10.044000
N -10.284800 -13.768100 -12.101900
H -9.660800 -15.032100 -14.185700
C -9.164700 -12.525100 -9.875500
C -8.951300 -13.750000 -11.926100
H -8.787900 -12.108200 -9.135000
C -8.736500 -15.035000 -14.085200
C -8.354700 -13.137000 -10.819400
H -8.303200 -16.063900 -15.769600
C -8.139900 -14.422100 -12.978600
C -7.926500 -15.646900 -15.029100
H -7.430300 -13.140000 -10.719000
N -6.806300 -14.404000 -12.802700
C -6.553200 -15.631900 -14.860600
C -6.046000 -14.999100 -13.735700
H -5.989000 -16.033000 -15.480700
H -5.123100 -14.985300 -13.621200
20
Fragment
H -5.070700 -13.186700 -11.283500
H -4.204800 -12.139100 -9.423900
C -4.147900 -13.173000 -11.168900
C -3.640600 -12.540200 -10.044000
N -3.387500 -13.768100 -12.101900
H -2.763500 -15.032100 -14.185700
C -2.267400 -12.525100 -9.875500
C -2.054000 -13.750000 -11.926100
H -1.890600 -12.108200 -9.135000
C -1.839200 -15.035000 -14.085200
C -1.457400 -13.137000 -10.819400
H -1.405900 -16.063900 -15.769600
C -1.242600 -14.422100 -12.978600
C -1.029200 -15.646900 -15.029100
H -0.533000 -13.140000 -10.719000
N 0.091000 -14.404000 -12.802700
C 0.344100 -15.631900 -14.860600
C 0.851300 -14.999100 -13.735700
H 0.908300 -16.033000 -15.480700
H 1.774200 -14.985300 -13.621200
40
Fragment
H -11.968000 -13.186700 -11.283500
H -11.102100 -12.139100 -9.423900
C -11.045200 -13.173000 -11.168900
C -10.537900 -12.540200 -10.044000
N -10.284800 -13.768100 -12.101900
H -9.660800 -15.032100 -14.185700
C -9.164700 -12.525100 -9.875500
C -8.951300 -13.750000 -11.926100
H -8.787900 -12.108200 -9.135000
C -8.736500 -15.035000 -14.085200
C -8.354700 -13.137000 -10.819400
H -8.303200 -16.063900 -15.769600
C -8.139900 -14.422100 -12.978600
C -7.926500 -15.646900 -15.029100
H -7.430300 -13.140000 -10.719000
N -6.806300 -14.404000 -12.802700
C -6.553200 -15.631900 -14.860600
C -6.046000 -14.999100 -13.735700
H -5.989000 -16.033000 -15.480700
H -5.123100 -14.985300 -13.621200
H -5.070700 -13.186700 -11.283500
H -4.204800 -12.139100 -9.423900
C -4.147900 -13.173000 -11.168900
C -3.640600 -12.540200 -10.044000
N -3.387500 -13.768100 -12.101900
H -2.763500 -15.032100 -14.185700
C -2.267400 -12.525100 -9.875500
C -2.054000 -13.750000 -11.926100
H -1.890600 -12.108200 -9.135000
C -1.839200 -15.035000 -14.085200
C -1.457400 -13.137000 -10.819400
H -1.405900 -16.063900 -15.769600
C -1.242600 -14.422100 -12.978600
C -1.029200 -15.646900 -15.029100
H -0.533000 -13.140000 -10.719000
N 0.091000 -14.404000 -12.802700
C 0.344100 -15.631900 -14.860600
C 0.851300 -14.999100 -13.735700
H 0.908300 -16.033000 -15.480700
H 1.774200 -14.985300 -13.621200
