20
Fragment
H -11.968000 -13.186700 -11.283500
H -11.102100 -12.139100 -9.423900
C -11.045200 -13.173000 -11.168900
C -10.537900 -12.540200 -10.044000
N -10.284800 -13.768100 -12.101900
H -9.660800 -15.032100 -14.185700
C -9.164700 -12.525100 -9.875500
C -8.951300 -13.750000 -11.926100
H -8.787900 -12.108200 -9.135000
C -8.736500 -15.035000 -14.085200
C -8.354700 -13.137000 -10.819400
H -8.303200 -16.063900 -15.769600
C -8.139900 -14.422100 -12.978600
C -7.926500 -15.646900 -15.029100
H -7.430300 -13.140000 -10.719000
N -6.806300 -14.404000 -12.802700
C -6.553200 -15.631900 -14.860600
C -6.046000 -14.999100 -13.735700
H -5.989000 -16.033000 -15.480700
H -5.123100 -14.985300 -13.621200
12
Fragment
H -8.407600 -12.177600 -15.494800
H -8.254400 -11.066600 -13.535700
C -7.584000 -11.983300 -15.109700
N -7.519100 -11.304800 -13.912500
F -6.481300 -13.014100 -16.897000
C -6.447200 -12.360600 -15.714300
C -6.351500 -10.997000 -13.302700
O -6.304900 -10.380200 -12.226200
N -5.213500 -11.407600 -13.944300
C -5.138100 -12.102400 -15.146800
H -4.466800 -11.215600 -13.563100
O -4.069200 -12.441300 -15.633600
32
Fragment
H -11.968000 -13.186700 -11.283500
H -11.102100 -12.139100 -9.423900
C -11.045200 -13.173000 -11.168900
C -10.537900 -12.540200 -10.044000
N -10.284800 -13.768100 -12.101900
H -9.660800 -15.032100 -14.185700
C -9.164700 -12.525100 -9.875500
C -8.951300 -13.750000 -11.926100
H -8.787900 -12.108200 -9.135000
C -8.736500 -15.035000 -14.085200
C -8.354700 -13.137000 -10.819400
H -8.303200 -16.063900 -15.769600
C -8.139900 -14.422100 -12.978600
C -7.926500 -15.646900 -15.029100
H -7.430300 -13.140000 -10.719000
N -6.806300 -14.404000 -12.802700
C -6.553200 -15.631900 -14.860600
C -6.046000 -14.999100 -13.735700
H -5.989000 -16.033000 -15.480700
H -5.123100 -14.985300 -13.621200
H -8.407600 -12.177600 -15.494800
H -8.254400 -11.066600 -13.535700
C -7.584000 -11.983300 -15.109700
N -7.519100 -11.304800 -13.912500
F -6.481300 -13.014100 -16.897000
C -6.447200 -12.360600 -15.714300
C -6.351500 -10.997000 -13.302700
O -6.304900 -10.380200 -12.226200
N -5.213500 -11.407600 -13.944300
C -5.138100 -12.102400 -15.146800
H -4.466800 -11.215600 -13.563100
O -4.069200 -12.441300 -15.633600
