16
Fragment
N -19.659800 -10.590300 -23.492500
C -18.678700 -10.620500 -24.078000
N -17.821400 -7.185600 -24.711500
C -17.451300 -10.685000 -24.846400
C -17.375300 -8.215800 -24.962200
H -17.333800 -12.721600 -24.856700
C -16.906200 -11.926500 -25.154300
C -16.817500 -9.507100 -25.287500
C -15.735800 -12.003300 -25.898300
C -15.638700 -9.584600 -26.022600
H -15.204300 -8.789600 -26.309600
C -15.183100 -13.295400 -26.201900
C -15.097200 -10.823700 -26.335000
N -14.751700 -14.339400 -26.432100
C -13.859600 -10.889900 -27.081700
N -12.871700 -10.930700 -27.660800
29
Fragment
H -19.563200 -9.658100 -19.667000
H -19.138800 -11.978800 -19.689200
C -18.790400 -9.993600 -20.103900
C -18.532000 -11.387000 -20.118100
H -18.105100 -8.203500 -20.702600
C -17.927300 -9.136500 -20.719000
C -17.433500 -11.890600 -20.733900
H -17.278700 -12.827700 -20.724700
C -16.760700 -9.617300 -21.387100
C -16.503900 -11.027800 -21.397000
H -16.064300 -7.819900 -22.046400
C -15.883400 -8.752900 -22.048300
O -15.623100 -13.690400 -22.912500
C -15.356000 -11.504500 -22.057900
C -15.076400 -12.981100 -22.083900
C -14.750100 -9.225500 -22.709700
H -14.487800 -13.326400 -20.159300
C -14.469300 -10.628700 -22.713800
C -14.132400 -13.512500 -21.053300
H -14.036000 -7.416600 -23.424300
H -14.030700 -14.479800 -21.171000
C -13.857200 -8.348800 -23.405600
C -13.309100 -11.098000 -23.412200
H -13.259900 -13.078300 -21.155700
H -13.114500 -12.027700 -23.431200
C -12.756600 -8.832900 -24.039200
C -12.483500 -10.223800 -24.048400
H -12.165200 -8.233700 -24.480300
H -11.716100 -10.548700 -24.504200
45
Fragment
N -19.659800 -10.590300 -23.492500
C -18.678700 -10.620500 -24.078000
N -17.821400 -7.185600 -24.711500
C -17.451300 -10.685000 -24.846400
C -17.375300 -8.215800 -24.962200
H -17.333800 -12.721600 -24.856700
C -16.906200 -11.926500 -25.154300
C -16.817500 -9.507100 -25.287500
C -15.735800 -12.003300 -25.898300
C -15.638700 -9.584600 -26.022600
H -15.204300 -8.789600 -26.309600
C -15.183100 -13.295400 -26.201900
C -15.097200 -10.823700 -26.335000
N -14.751700 -14.339400 -26.432100
C -13.859600 -10.889900 -27.081700
N -12.871700 -10.930700 -27.660800
H -19.563200 -9.658100 -19.667000
H -19.138800 -11.978800 -19.689200
C -18.790400 -9.993600 -20.103900
C -18.532000 -11.387000 -20.118100
H -18.105100 -8.203500 -20.702600
C -17.927300 -9.136500 -20.719000
C -17.433500 -11.890600 -20.733900
H -17.278700 -12.827700 -20.724700
C -16.760700 -9.617300 -21.387100
C -16.503900 -11.027800 -21.397000
H -16.064300 -7.819900 -22.046400
C -15.883400 -8.752900 -22.048300
O -15.623100 -13.690400 -22.912500
C -15.356000 -11.504500 -22.057900
C -15.076400 -12.981100 -22.083900
C -14.750100 -9.225500 -22.709700
H -14.487800 -13.326400 -20.159300
C -14.469300 -10.628700 -22.713800
C -14.132400 -13.512500 -21.053300
H -14.036000 -7.416600 -23.424300
H -14.030700 -14.479800 -21.171000
C -13.857200 -8.348800 -23.405600
C -13.309100 -11.098000 -23.412200
H -13.259900 -13.078300 -21.155700
H -13.114500 -12.027700 -23.431200
C -12.756600 -8.832900 -24.039200
C -12.483500 -10.223800 -24.048400
H -12.165200 -8.233700 -24.480300
H -11.716100 -10.548700 -24.504200
