16
Fragment
N -19.659800 -10.590300 -23.492500
C -18.678700 -10.620500 -24.078000
N -17.821400 -7.185600 -24.711500
C -17.451300 -10.685000 -24.846400
C -17.375300 -8.215800 -24.962200
H -17.333800 -12.721600 -24.856700
C -16.906200 -11.926500 -25.154300
C -16.817500 -9.507100 -25.287500
C -15.735800 -12.003300 -25.898300
C -15.638700 -9.584600 -26.022600
H -15.204300 -8.789600 -26.309600
C -15.183100 -13.295400 -26.201900
C -15.097200 -10.823700 -26.335000
N -14.751700 -14.339400 -26.432100
C -13.859600 -10.889900 -27.081700
N -12.871700 -10.930700 -27.660800
29
Fragment
H -11.994400 -13.939400 -26.592300
H -11.545300 -16.254400 -26.616200
C -11.227000 -14.264300 -27.048100
C -10.953900 -15.655200 -27.057300
H -10.596000 -12.460400 -27.665400
H -10.450600 -11.409800 -29.940800
C -10.401400 -13.390100 -27.684300
C -9.853300 -16.139300 -27.690900
H -9.679700 -10.008300 -29.925500
H -9.674500 -17.071500 -27.672200
C -9.578100 -10.975600 -30.043200
C -9.241200 -13.859400 -28.382700
H -9.222700 -11.161700 -30.937200
C -8.960400 -15.262600 -28.386800
C -8.634100 -11.507000 -29.012600
C -8.354500 -12.983600 -29.038700
O -8.087400 -10.797700 -28.184000
C -7.827000 -15.735200 -29.048200
H -7.646200 -16.668200 -29.050100
C -7.206600 -13.460300 -29.699500
C -6.949800 -14.870800 -29.709400
H -6.431800 -11.660400 -30.371800
C -6.277000 -12.597500 -30.362600
C -5.783200 -15.351600 -30.377600
H -5.605400 -16.284600 -30.393900
C -5.178500 -13.101100 -30.978400
C -4.920100 -14.494500 -30.992600
H -4.571700 -12.509300 -31.407300
H -4.147300 -14.830000 -31.429500
45
Fragment
N -19.659800 -10.590300 -23.492500
C -18.678700 -10.620500 -24.078000
N -17.821400 -7.185600 -24.711500
C -17.451300 -10.685000 -24.846400
C -17.375300 -8.215800 -24.962200
H -17.333800 -12.721600 -24.856700
C -16.906200 -11.926500 -25.154300
C -16.817500 -9.507100 -25.287500
C -15.735800 -12.003300 -25.898300
C -15.638700 -9.584600 -26.022600
H -15.204300 -8.789600 -26.309600
C -15.183100 -13.295400 -26.201900
C -15.097200 -10.823700 -26.335000
N -14.751700 -14.339400 -26.432100
C -13.859600 -10.889900 -27.081700
N -12.871700 -10.930700 -27.660800
H -11.994400 -13.939400 -26.592300
H -11.545300 -16.254400 -26.616200
C -11.227000 -14.264300 -27.048100
C -10.953900 -15.655200 -27.057300
H -10.596000 -12.460400 -27.665400
H -10.450600 -11.409800 -29.940800
C -10.401400 -13.390100 -27.684300
C -9.853300 -16.139300 -27.690900
H -9.679700 -10.008300 -29.925500
H -9.674500 -17.071500 -27.672200
C -9.578100 -10.975600 -30.043200
C -9.241200 -13.859400 -28.382700
H -9.222700 -11.161700 -30.937200
C -8.960400 -15.262600 -28.386800
C -8.634100 -11.507000 -29.012600
C -8.354500 -12.983600 -29.038700
O -8.087400 -10.797700 -28.184000
C -7.827000 -15.735200 -29.048200
H -7.646200 -16.668200 -29.050100
C -7.206600 -13.460300 -29.699500
C -6.949800 -14.870800 -29.709400
H -6.431800 -11.660400 -30.371800
C -6.277000 -12.597500 -30.362600
C -5.783200 -15.351600 -30.377600
H -5.605400 -16.284600 -30.393900
C -5.178500 -13.101100 -30.978400
C -4.920100 -14.494500 -30.992600
H -4.571700 -12.509300 -31.407300
H -4.147300 -14.830000 -31.429500
