16
Fragment
N -19.659800 -10.590300 -23.492500
C -18.678700 -10.620500 -24.078000
N -17.821400 -7.185600 -24.711500
C -17.451300 -10.685000 -24.846400
C -17.375300 -8.215800 -24.962200
H -17.333800 -12.721600 -24.856700
C -16.906200 -11.926500 -25.154300
C -16.817500 -9.507100 -25.287500
C -15.735800 -12.003300 -25.898300
C -15.638700 -9.584600 -26.022600
H -15.204300 -8.789600 -26.309600
C -15.183100 -13.295400 -26.201900
C -15.097200 -10.823700 -26.335000
N -14.751700 -14.339400 -26.432100
C -13.859600 -10.889900 -27.081700
N -12.871700 -10.930700 -27.660800
29
Fragment
H -27.255700 -14.630000 -18.076200
H -26.806600 -12.315100 -18.100100
C -26.488300 -14.305100 -18.532000
C -26.215200 -12.914200 -18.541200
H -25.857300 -16.109100 -19.149300
H -25.711900 -17.159600 -21.424800
C -25.662700 -15.179400 -19.168200
C -25.114600 -12.430200 -19.174800
H -24.941100 -18.561200 -21.409400
H -24.935800 -11.498000 -19.156100
C -24.839400 -17.593900 -21.527100
C -24.502500 -14.710000 -19.866700
H -24.484000 -17.407800 -22.421100
C -24.221700 -13.306800 -19.870700
C -23.895400 -17.062500 -20.496500
C -23.615800 -15.585900 -20.522600
O -23.348700 -17.771700 -19.667900
C -23.088400 -12.834200 -20.532100
H -22.907500 -11.901200 -20.534000
C -22.467900 -15.109200 -21.183400
C -22.211100 -13.698600 -21.193300
H -21.693100 -16.909000 -21.855700
C -21.538300 -15.972000 -21.846500
C -21.044600 -13.217900 -21.861500
H -20.866700 -12.284900 -21.877800
C -20.439800 -15.468300 -22.462400
C -20.181400 -14.074900 -22.476500
H -19.833000 -16.060100 -22.891200
H -19.408600 -13.739500 -22.913400
45
Fragment
N -19.659800 -10.590300 -23.492500
C -18.678700 -10.620500 -24.078000
N -17.821400 -7.185600 -24.711500
C -17.451300 -10.685000 -24.846400
C -17.375300 -8.215800 -24.962200
H -17.333800 -12.721600 -24.856700
C -16.906200 -11.926500 -25.154300
C -16.817500 -9.507100 -25.287500
C -15.735800 -12.003300 -25.898300
C -15.638700 -9.584600 -26.022600
H -15.204300 -8.789600 -26.309600
C -15.183100 -13.295400 -26.201900
C -15.097200 -10.823700 -26.335000
N -14.751700 -14.339400 -26.432100
C -13.859600 -10.889900 -27.081700
N -12.871700 -10.930700 -27.660800
H -27.255700 -14.630000 -18.076200
H -26.806600 -12.315100 -18.100100
C -26.488300 -14.305100 -18.532000
C -26.215200 -12.914200 -18.541200
H -25.857300 -16.109100 -19.149300
H -25.711900 -17.159600 -21.424800
C -25.662700 -15.179400 -19.168200
C -25.114600 -12.430200 -19.174800
H -24.941100 -18.561200 -21.409400
H -24.935800 -11.498000 -19.156100
C -24.839400 -17.593900 -21.527100
C -24.502500 -14.710000 -19.866700
H -24.484000 -17.407800 -22.421100
C -24.221700 -13.306800 -19.870700
C -23.895400 -17.062500 -20.496500
C -23.615800 -15.585900 -20.522600
O -23.348700 -17.771700 -19.667900
C -23.088400 -12.834200 -20.532100
H -22.907500 -11.901200 -20.534000
C -22.467900 -15.109200 -21.183400
C -22.211100 -13.698600 -21.193300
H -21.693100 -16.909000 -21.855700
C -21.538300 -15.972000 -21.846500
C -21.044600 -13.217900 -21.861500
H -20.866700 -12.284900 -21.877800
C -20.439800 -15.468300 -22.462400
C -20.181400 -14.074900 -22.476500
H -19.833000 -16.060100 -22.891200
H -19.408600 -13.739500 -22.913400
