16
Fragment
N -19.659800 -10.590300 -23.492500
C -18.678700 -10.620500 -24.078000
N -17.821400 -7.185600 -24.711500
C -17.451300 -10.685000 -24.846400
C -17.375300 -8.215800 -24.962200
H -17.333800 -12.721600 -24.856700
C -16.906200 -11.926500 -25.154300
C -16.817500 -9.507100 -25.287500
C -15.735800 -12.003300 -25.898300
C -15.638700 -9.584600 -26.022600
H -15.204300 -8.789600 -26.309600
C -15.183100 -13.295400 -26.201900
C -15.097200 -10.823700 -26.335000
N -14.751700 -14.339400 -26.432100
C -13.859600 -10.889900 -27.081700
N -12.871700 -10.930700 -27.660800
16
Fragment
N -19.659800 -2.427600 -23.492500
C -18.678700 -2.457800 -24.078000
N -17.821400 0.977100 -24.711500
C -17.451300 -2.522300 -24.846400
C -17.375300 -0.053100 -24.962200
H -17.333800 -4.558900 -24.856700
C -16.906200 -3.763800 -25.154300
C -16.817500 -1.344400 -25.287500
C -15.735800 -3.840600 -25.898300
C -15.638700 -1.421900 -26.022600
H -15.204300 -0.626900 -26.309600
C -15.183100 -5.132700 -26.201900
C -15.097200 -2.661000 -26.335000
N -14.751700 -6.176700 -26.432100
C -13.859600 -2.727200 -27.081700
N -12.871700 -2.768000 -27.660800
32
Fragment
N -19.659800 -10.590300 -23.492500
C -18.678700 -10.620500 -24.078000
N -17.821400 -7.185600 -24.711500
C -17.451300 -10.685000 -24.846400
C -17.375300 -8.215800 -24.962200
H -17.333800 -12.721600 -24.856700
C -16.906200 -11.926500 -25.154300
C -16.817500 -9.507100 -25.287500
C -15.735800 -12.003300 -25.898300
C -15.638700 -9.584600 -26.022600
H -15.204300 -8.789600 -26.309600
C -15.183100 -13.295400 -26.201900
C -15.097200 -10.823700 -26.335000
N -14.751700 -14.339400 -26.432100
C -13.859600 -10.889900 -27.081700
N -12.871700 -10.930700 -27.660800
N -19.659800 -2.427600 -23.492500
C -18.678700 -2.457800 -24.078000
N -17.821400 0.977100 -24.711500
C -17.451300 -2.522300 -24.846400
C -17.375300 -0.053100 -24.962200
H -17.333800 -4.558900 -24.856700
C -16.906200 -3.763800 -25.154300
C -16.817500 -1.344400 -25.287500
C -15.735800 -3.840600 -25.898300
C -15.638700 -1.421900 -26.022600
H -15.204300 -0.626900 -26.309600
C -15.183100 -5.132700 -26.201900
C -15.097200 -2.661000 -26.335000
N -14.751700 -6.176700 -26.432100
C -13.859600 -2.727200 -27.081700
N -12.871700 -2.768000 -27.660800
