16
Fragment
N -19.659800 -10.590300 -23.492500
C -18.678700 -10.620500 -24.078000
N -17.821400 -7.185600 -24.711500
C -17.451300 -10.685000 -24.846400
C -17.375300 -8.215800 -24.962200
H -17.333800 -12.721600 -24.856700
C -16.906200 -11.926500 -25.154300
C -16.817500 -9.507100 -25.287500
C -15.735800 -12.003300 -25.898300
C -15.638700 -9.584600 -26.022600
H -15.204300 -8.789600 -26.309600
C -15.183100 -13.295400 -26.201900
C -15.097200 -10.823700 -26.335000
N -14.751700 -14.339400 -26.432100
C -13.859600 -10.889900 -27.081700
N -12.871700 -10.930700 -27.660800
29
Fragment
H -18.711700 -10.748600 -28.183100
H -18.287200 -8.428000 -28.205300
C -17.938800 -10.413200 -28.620000
C -17.680500 -9.019800 -28.634100
H -17.253600 -12.203200 -29.218700
C -17.075700 -11.270200 -29.235000
C -16.582000 -8.516100 -29.250000
H -16.427100 -7.579100 -29.240800
C -15.909200 -10.789500 -29.903200
C -15.652400 -9.378900 -29.913100
H -15.212800 -12.586900 -30.562500
C -15.031900 -11.653900 -30.564400
O -14.771600 -6.716400 -31.428600
C -14.504400 -8.902200 -30.573900
C -14.224900 -7.425600 -30.600000
C -13.898600 -11.181300 -31.225800
H -13.636300 -7.080300 -28.675400
C -13.617800 -9.778100 -31.229800
C -13.280900 -6.894200 -29.569400
H -13.184500 -12.990100 -31.940400
H -13.179200 -5.926900 -29.687100
C -13.005600 -12.057900 -31.921700
C -12.457600 -9.308700 -31.928300
H -12.408400 -7.328500 -29.671700
H -12.263000 -8.379000 -31.947200
C -11.905100 -11.573900 -32.555300
C -11.632000 -10.183000 -32.564500
H -11.313700 -12.173000 -32.996400
H -10.864600 -9.858100 -33.020300
45
Fragment
N -19.659800 -10.590300 -23.492500
C -18.678700 -10.620500 -24.078000
N -17.821400 -7.185600 -24.711500
C -17.451300 -10.685000 -24.846400
C -17.375300 -8.215800 -24.962200
H -17.333800 -12.721600 -24.856700
C -16.906200 -11.926500 -25.154300
C -16.817500 -9.507100 -25.287500
C -15.735800 -12.003300 -25.898300
C -15.638700 -9.584600 -26.022600
H -15.204300 -8.789600 -26.309600
C -15.183100 -13.295400 -26.201900
C -15.097200 -10.823700 -26.335000
N -14.751700 -14.339400 -26.432100
C -13.859600 -10.889900 -27.081700
N -12.871700 -10.930700 -27.660800
H -18.711700 -10.748600 -28.183100
H -18.287200 -8.428000 -28.205300
C -17.938800 -10.413200 -28.620000
C -17.680500 -9.019800 -28.634100
H -17.253600 -12.203200 -29.218700
C -17.075700 -11.270200 -29.235000
C -16.582000 -8.516100 -29.250000
H -16.427100 -7.579100 -29.240800
C -15.909200 -10.789500 -29.903200
C -15.652400 -9.378900 -29.913100
H -15.212800 -12.586900 -30.562500
C -15.031900 -11.653900 -30.564400
O -14.771600 -6.716400 -31.428600
C -14.504400 -8.902200 -30.573900
C -14.224900 -7.425600 -30.600000
C -13.898600 -11.181300 -31.225800
H -13.636300 -7.080300 -28.675400
C -13.617800 -9.778100 -31.229800
C -13.280900 -6.894200 -29.569400
H -13.184500 -12.990100 -31.940400
H -13.179200 -5.926900 -29.687100
C -13.005600 -12.057900 -31.921700
C -12.457600 -9.308700 -31.928300
H -12.408400 -7.328500 -29.671700
H -12.263000 -8.379000 -31.947200
C -11.905100 -11.573900 -32.555300
C -11.632000 -10.183000 -32.564500
H -11.313700 -12.173000 -32.996400
H -10.864600 -9.858100 -33.020300
