16
Fragment
N -19.659800 -10.590300 -23.492500
C -18.678700 -10.620500 -24.078000
N -17.821400 -7.185600 -24.711500
C -17.451300 -10.685000 -24.846400
C -17.375300 -8.215800 -24.962200
H -17.333800 -12.721600 -24.856700
C -16.906200 -11.926500 -25.154300
C -16.817500 -9.507100 -25.287500
C -15.735800 -12.003300 -25.898300
C -15.638700 -9.584600 -26.022600
H -15.204300 -8.789600 -26.309600
C -15.183100 -13.295400 -26.201900
C -15.097200 -10.823700 -26.335000
N -14.751700 -14.339400 -26.432100
C -13.859600 -10.889900 -27.081700
N -12.871700 -10.930700 -27.660800
16
Fragment
N -19.659800 -18.753000 -23.492500
C -18.678700 -18.783200 -24.078000
N -17.821400 -15.348300 -24.711500
C -17.451300 -18.847700 -24.846400
C -17.375300 -16.378500 -24.962200
H -17.333800 -20.884300 -24.856700
C -16.906200 -20.089200 -25.154300
C -16.817500 -17.669800 -25.287500
C -15.735800 -20.166000 -25.898300
C -15.638700 -17.747300 -26.022600
H -15.204300 -16.952300 -26.309600
C -15.183100 -21.458100 -26.201900
C -15.097200 -18.986400 -26.335000
N -14.751700 -22.502100 -26.432100
C -13.859600 -19.052600 -27.081700
N -12.871700 -19.093400 -27.660800
32
Fragment
N -19.659800 -10.590300 -23.492500
C -18.678700 -10.620500 -24.078000
N -17.821400 -7.185600 -24.711500
C -17.451300 -10.685000 -24.846400
C -17.375300 -8.215800 -24.962200
H -17.333800 -12.721600 -24.856700
C -16.906200 -11.926500 -25.154300
C -16.817500 -9.507100 -25.287500
C -15.735800 -12.003300 -25.898300
C -15.638700 -9.584600 -26.022600
H -15.204300 -8.789600 -26.309600
C -15.183100 -13.295400 -26.201900
C -15.097200 -10.823700 -26.335000
N -14.751700 -14.339400 -26.432100
C -13.859600 -10.889900 -27.081700
N -12.871700 -10.930700 -27.660800
N -19.659800 -18.753000 -23.492500
C -18.678700 -18.783200 -24.078000
N -17.821400 -15.348300 -24.711500
C -17.451300 -18.847700 -24.846400
C -17.375300 -16.378500 -24.962200
H -17.333800 -20.884300 -24.856700
C -16.906200 -20.089200 -25.154300
C -16.817500 -17.669800 -25.287500
C -15.735800 -20.166000 -25.898300
C -15.638700 -17.747300 -26.022600
H -15.204300 -16.952300 -26.309600
C -15.183100 -21.458100 -26.201900
C -15.097200 -18.986400 -26.335000
N -14.751700 -22.502100 -26.432100
C -13.859600 -19.052600 -27.081700
N -12.871700 -19.093400 -27.660800
