14
Fragment
H -43.247500 -8.937700 -18.517400
H -42.909000 -8.716300 -16.088700
C -42.426600 -8.569400 -18.145700
C -42.239800 -8.401100 -16.819600
O -41.495400 -8.208500 -20.320100
C -41.449300 -8.143500 -19.100100
N -41.115400 -7.846500 -16.289400
H -41.038400 -7.668200 -15.267800
N -40.310700 -7.603300 -18.465000
C -40.136200 -7.441300 -17.128600
N -39.194000 -7.115800 -19.117200
N -38.972000 -6.881500 -16.861800
C -38.441400 -6.707300 -18.113800
H -37.470400 -6.280700 -18.312200
14
Fragment
H -51.165200 -10.325200 -15.894900
C -50.194200 -9.898600 -16.093300
N -49.663700 -9.724400 -17.345300
N -49.441700 -9.490100 -15.089900
C -48.499400 -9.164600 -17.078500
N -48.325000 -9.002600 -15.742100
H -47.597200 -8.937700 -18.939300
N -47.520200 -8.759400 -17.917700
C -47.186300 -8.462400 -15.107000
O -47.140200 -8.397400 -13.886900
C -46.395800 -8.204800 -17.387500
C -46.209000 -8.036500 -16.061400
H -45.726600 -7.889600 -18.118300
H -45.388100 -7.668200 -15.689600
28
Fragment
H -43.247500 -8.937700 -18.517400
H -42.909000 -8.716300 -16.088700
C -42.426600 -8.569400 -18.145700
C -42.239800 -8.401100 -16.819600
O -41.495400 -8.208500 -20.320100
C -41.449300 -8.143500 -19.100100
N -41.115400 -7.846500 -16.289400
H -41.038400 -7.668200 -15.267800
N -40.310700 -7.603300 -18.465000
C -40.136200 -7.441300 -17.128600
N -39.194000 -7.115800 -19.117200
N -38.972000 -6.881500 -16.861800
C -38.441400 -6.707300 -18.113800
H -37.470400 -6.280700 -18.312200
H -51.165200 -10.325200 -15.894900
C -50.194200 -9.898600 -16.093300
N -49.663700 -9.724400 -17.345300
N -49.441700 -9.490100 -15.089900
C -48.499400 -9.164600 -17.078500
N -48.325000 -9.002600 -15.742100
H -47.597200 -8.937700 -18.939300
N -47.520200 -8.759400 -17.917700
C -47.186300 -8.462400 -15.107000
O -47.140200 -8.397400 -13.886900
C -46.395800 -8.204800 -17.387500
C -46.209000 -8.036500 -16.061400
H -45.726600 -7.889600 -18.118300
H -45.388100 -7.668200 -15.689600
