14
Fragment
H -43.247500 -8.937700 -18.517400
H -42.909000 -8.716300 -16.088700
C -42.426600 -8.569400 -18.145700
C -42.239800 -8.401100 -16.819600
O -41.495400 -8.208500 -20.320100
C -41.449300 -8.143500 -19.100100
N -41.115400 -7.846500 -16.289400
H -41.038400 -7.668200 -15.267800
N -40.310700 -7.603300 -18.465000
C -40.136200 -7.441300 -17.128600
N -39.194000 -7.115800 -19.117200
N -38.972000 -6.881500 -16.861800
C -38.441400 -6.707300 -18.113800
H -37.470400 -6.280700 -18.312200
14
Fragment
H -36.747200 -8.480100 -15.894900
C -35.776200 -8.053500 -16.093300
N -35.245700 -7.879300 -17.345300
N -35.023700 -7.645000 -15.089900
C -34.081400 -7.319500 -17.078500
N -33.907000 -7.157500 -15.742100
H -33.179200 -7.092600 -18.939300
N -33.102200 -6.914300 -17.917700
C -32.768300 -6.617300 -15.107000
O -32.722200 -6.552300 -13.886900
C -31.977800 -6.359700 -17.387500
C -31.791000 -6.191400 -16.061400
H -31.308600 -6.044500 -18.118300
H -30.970100 -5.823100 -15.689600
28
Fragment
H -43.247500 -8.937700 -18.517400
H -42.909000 -8.716300 -16.088700
C -42.426600 -8.569400 -18.145700
C -42.239800 -8.401100 -16.819600
O -41.495400 -8.208500 -20.320100
C -41.449300 -8.143500 -19.100100
N -41.115400 -7.846500 -16.289400
H -41.038400 -7.668200 -15.267800
N -40.310700 -7.603300 -18.465000
C -40.136200 -7.441300 -17.128600
N -39.194000 -7.115800 -19.117200
N -38.972000 -6.881500 -16.861800
C -38.441400 -6.707300 -18.113800
H -37.470400 -6.280700 -18.312200
H -36.747200 -8.480100 -15.894900
C -35.776200 -8.053500 -16.093300
N -35.245700 -7.879300 -17.345300
N -35.023700 -7.645000 -15.089900
C -34.081400 -7.319500 -17.078500
N -33.907000 -7.157500 -15.742100
H -33.179200 -7.092600 -18.939300
N -33.102200 -6.914300 -17.917700
C -32.768300 -6.617300 -15.107000
O -32.722200 -6.552300 -13.886900
C -31.977800 -6.359700 -17.387500
C -31.791000 -6.191400 -16.061400
H -31.308600 -6.044500 -18.118300
H -30.970100 -5.823100 -15.689600
