14
Fragment
H -43.247500 -8.937700 -18.517400
H -42.909000 -8.716300 -16.088700
C -42.426600 -8.569400 -18.145700
C -42.239800 -8.401100 -16.819600
O -41.495400 -8.208500 -20.320100
C -41.449300 -8.143500 -19.100100
N -41.115400 -7.846500 -16.289400
H -41.038400 -7.668200 -15.267800
N -40.310700 -7.603300 -18.465000
C -40.136200 -7.441300 -17.128600
N -39.194000 -7.115800 -19.117200
N -38.972000 -6.881500 -16.861800
C -38.441400 -6.707300 -18.113800
H -37.470400 -6.280700 -18.312200
14
Fragment
H -45.295900 -5.823100 -12.816300
H -44.957400 -6.044500 -10.387500
C -44.475000 -6.191400 -12.444500
C -44.288200 -6.359700 -11.118400
O -43.543800 -6.552300 -14.619000
C -43.497700 -6.617300 -13.398900
N -43.163800 -6.914300 -10.588200
H -43.086800 -7.092600 -9.566600
N -42.359100 -7.157500 -12.763800
C -42.184600 -7.319500 -11.427400
N -41.242300 -7.645000 -13.416000
N -41.020400 -7.879300 -11.160600
C -40.489800 -8.053500 -12.412600
H -39.518800 -8.480100 -12.611000
28
Fragment
H -43.247500 -8.937700 -18.517400
H -42.909000 -8.716300 -16.088700
C -42.426600 -8.569400 -18.145700
C -42.239800 -8.401100 -16.819600
O -41.495400 -8.208500 -20.320100
C -41.449300 -8.143500 -19.100100
N -41.115400 -7.846500 -16.289400
H -41.038400 -7.668200 -15.267800
N -40.310700 -7.603300 -18.465000
C -40.136200 -7.441300 -17.128600
N -39.194000 -7.115800 -19.117200
N -38.972000 -6.881500 -16.861800
C -38.441400 -6.707300 -18.113800
H -37.470400 -6.280700 -18.312200
H -45.295900 -5.823100 -12.816300
H -44.957400 -6.044500 -10.387500
C -44.475000 -6.191400 -12.444500
C -44.288200 -6.359700 -11.118400
O -43.543800 -6.552300 -14.619000
C -43.497700 -6.617300 -13.398900
N -43.163800 -6.914300 -10.588200
H -43.086800 -7.092600 -9.566600
N -42.359100 -7.157500 -12.763800
C -42.184600 -7.319500 -11.427400
N -41.242300 -7.645000 -13.416000
N -41.020400 -7.879300 -11.160600
C -40.489800 -8.053500 -12.412600
H -39.518800 -8.480100 -12.611000
