14
Fragment
H -43.247500 -8.937700 -18.517400
H -42.909000 -8.716300 -16.088700
C -42.426600 -8.569400 -18.145700
C -42.239800 -8.401100 -16.819600
O -41.495400 -8.208500 -20.320100
C -41.449300 -8.143500 -19.100100
N -41.115400 -7.846500 -16.289400
H -41.038400 -7.668200 -15.267800
N -40.310700 -7.603300 -18.465000
C -40.136200 -7.441300 -17.128600
N -39.194000 -7.115800 -19.117200
N -38.972000 -6.881500 -16.861800
C -38.441400 -6.707300 -18.113800
H -37.470400 -6.280700 -18.312200
14
Fragment
H -43.247500 -12.627900 -18.517400
H -42.909000 -12.406500 -16.088700
C -42.426600 -12.259600 -18.145700
C -42.239800 -12.091300 -16.819600
O -41.495400 -11.898700 -20.320100
C -41.449300 -11.833700 -19.100100
N -41.115400 -11.536700 -16.289400
H -41.038400 -11.358400 -15.267800
N -40.310700 -11.293500 -18.465000
C -40.136200 -11.131500 -17.128600
N -39.194000 -10.806000 -19.117200
N -38.972000 -10.571700 -16.861800
C -38.441400 -10.397500 -18.113800
H -37.470400 -9.970900 -18.312200
28
Fragment
H -43.247500 -8.937700 -18.517400
H -42.909000 -8.716300 -16.088700
C -42.426600 -8.569400 -18.145700
C -42.239800 -8.401100 -16.819600
O -41.495400 -8.208500 -20.320100
C -41.449300 -8.143500 -19.100100
N -41.115400 -7.846500 -16.289400
H -41.038400 -7.668200 -15.267800
N -40.310700 -7.603300 -18.465000
C -40.136200 -7.441300 -17.128600
N -39.194000 -7.115800 -19.117200
N -38.972000 -6.881500 -16.861800
C -38.441400 -6.707300 -18.113800
H -37.470400 -6.280700 -18.312200
H -43.247500 -12.627900 -18.517400
H -42.909000 -12.406500 -16.088700
C -42.426600 -12.259600 -18.145700
C -42.239800 -12.091300 -16.819600
O -41.495400 -11.898700 -20.320100
C -41.449300 -11.833700 -19.100100
N -41.115400 -11.536700 -16.289400
H -41.038400 -11.358400 -15.267800
N -40.310700 -11.293500 -18.465000
C -40.136200 -11.131500 -17.128600
N -39.194000 -10.806000 -19.117200
N -38.972000 -10.571700 -16.861800
C -38.441400 -10.397500 -18.113800
H -37.470400 -9.970900 -18.312200
