14
Fragment
H -43.247500 -8.937700 -18.517400
H -42.909000 -8.716300 -16.088700
C -42.426600 -8.569400 -18.145700
C -42.239800 -8.401100 -16.819600
O -41.495400 -8.208500 -20.320100
C -41.449300 -8.143500 -19.100100
N -41.115400 -7.846500 -16.289400
H -41.038400 -7.668200 -15.267800
N -40.310700 -7.603300 -18.465000
C -40.136200 -7.441300 -17.128600
N -39.194000 -7.115800 -19.117200
N -38.972000 -6.881500 -16.861800
C -38.441400 -6.707300 -18.113800
H -37.470400 -6.280700 -18.312200
14
Fragment
H -43.247500 -5.247500 -18.517400
H -42.909000 -5.026100 -16.088700
C -42.426600 -4.879200 -18.145700
C -42.239800 -4.710900 -16.819600
O -41.495400 -4.518300 -20.320100
C -41.449300 -4.453300 -19.100100
N -41.115400 -4.156300 -16.289400
H -41.038400 -3.978000 -15.267800
N -40.310700 -3.913100 -18.465000
C -40.136200 -3.751100 -17.128600
N -39.194000 -3.425600 -19.117200
N -38.972000 -3.191300 -16.861800
C -38.441400 -3.017100 -18.113800
H -37.470400 -2.590500 -18.312200
28
Fragment
H -43.247500 -8.937700 -18.517400
H -42.909000 -8.716300 -16.088700
C -42.426600 -8.569400 -18.145700
C -42.239800 -8.401100 -16.819600
O -41.495400 -8.208500 -20.320100
C -41.449300 -8.143500 -19.100100
N -41.115400 -7.846500 -16.289400
H -41.038400 -7.668200 -15.267800
N -40.310700 -7.603300 -18.465000
C -40.136200 -7.441300 -17.128600
N -39.194000 -7.115800 -19.117200
N -38.972000 -6.881500 -16.861800
C -38.441400 -6.707300 -18.113800
H -37.470400 -6.280700 -18.312200
H -43.247500 -5.247500 -18.517400
H -42.909000 -5.026100 -16.088700
C -42.426600 -4.879200 -18.145700
C -42.239800 -4.710900 -16.819600
O -41.495400 -4.518300 -20.320100
C -41.449300 -4.453300 -19.100100
N -41.115400 -4.156300 -16.289400
H -41.038400 -3.978000 -15.267800
N -40.310700 -3.913100 -18.465000
C -40.136200 -3.751100 -17.128600
N -39.194000 -3.425600 -19.117200
N -38.972000 -3.191300 -16.861800
C -38.441400 -3.017100 -18.113800
H -37.470400 -2.590500 -18.312200
