14
Fragment
H -43.247500 -8.937700 -18.517400
H -42.909000 -8.716300 -16.088700
C -42.426600 -8.569400 -18.145700
C -42.239800 -8.401100 -16.819600
O -41.495400 -8.208500 -20.320100
C -41.449300 -8.143500 -19.100100
N -41.115400 -7.846500 -16.289400
H -41.038400 -7.668200 -15.267800
N -40.310700 -7.603300 -18.465000
C -40.136200 -7.441300 -17.128600
N -39.194000 -7.115800 -19.117200
N -38.972000 -6.881500 -16.861800
C -38.441400 -6.707300 -18.113800
H -37.470400 -6.280700 -18.312200
14
Fragment
H -41.199100 -9.513300 -24.218600
H -40.860600 -9.734700 -21.789900
C -40.378200 -9.881600 -23.846900
C -40.191400 -10.049900 -22.520800
O -39.447000 -10.242500 -26.021300
C -39.400900 -10.307500 -24.801300
N -39.067000 -10.604500 -21.990600
H -38.990000 -10.782800 -20.968900
N -38.262300 -10.847700 -24.166200
C -38.087800 -11.009700 -22.829800
N -37.145600 -11.335200 -24.818400
N -36.923600 -11.569500 -22.563000
C -36.393000 -11.743700 -23.815000
H -35.422000 -12.170300 -24.013400
28
Fragment
H -43.247500 -8.937700 -18.517400
H -42.909000 -8.716300 -16.088700
C -42.426600 -8.569400 -18.145700
C -42.239800 -8.401100 -16.819600
O -41.495400 -8.208500 -20.320100
C -41.449300 -8.143500 -19.100100
N -41.115400 -7.846500 -16.289400
H -41.038400 -7.668200 -15.267800
N -40.310700 -7.603300 -18.465000
C -40.136200 -7.441300 -17.128600
N -39.194000 -7.115800 -19.117200
N -38.972000 -6.881500 -16.861800
C -38.441400 -6.707300 -18.113800
H -37.470400 -6.280700 -18.312200
H -41.199100 -9.513300 -24.218600
H -40.860600 -9.734700 -21.789900
C -40.378200 -9.881600 -23.846900
C -40.191400 -10.049900 -22.520800
O -39.447000 -10.242500 -26.021300
C -39.400900 -10.307500 -24.801300
N -39.067000 -10.604500 -21.990600
H -38.990000 -10.782800 -20.968900
N -38.262300 -10.847700 -24.166200
C -38.087800 -11.009700 -22.829800
N -37.145600 -11.335200 -24.818400
N -36.923600 -11.569500 -22.563000
C -36.393000 -11.743700 -23.815000
H -35.422000 -12.170300 -24.013400
