3
Fragment
H -35.383700 -14.259900 -12.765500
H -35.272500 -15.588900 -12.532600
O -35.037300 -14.827400 -12.264400
3
Fragment
O -34.469700 -14.827400 -15.853500
H -34.234500 -15.588900 -15.585400
H -34.123300 -14.259900 -15.352400
6
Fragment
H -35.383700 -14.259900 -12.765500
H -35.272500 -15.588900 -12.532600
O -35.037300 -14.827400 -12.264400
O -34.469700 -14.827400 -15.853500
H -34.234500 -15.588900 -15.585400
H -34.123300 -14.259900 -15.352400
