3
Fragment
H -35.383700 -14.259900 -12.765500
H -35.272500 -15.588900 -12.532600
O -35.037300 -14.827400 -12.264400
17
Fragment
H -33.571900 -14.789800 -11.150000
O -33.445100 -16.950500 -11.104700
N -33.004000 -14.434700 -10.609900
N -32.893700 -13.109200 -10.351900
N -32.503300 -17.274900 -10.368500
O -32.205100 -18.467300 -10.193000
C -32.094400 -15.107400 -9.895300
N -31.944700 -12.933000 -9.521500
N -31.752400 -16.386800 -9.715100
N -31.435900 -14.148600 -9.218800
H -30.249400 -13.651700 -7.689900
C -30.244100 -14.305500 -8.405900
H -30.235500 -15.189800 -8.008000
O -29.027700 -13.648300 -10.352800
C -29.008500 -14.118000 -9.256500
O -27.933900 -14.535000 -8.625500
H -27.265300 -14.314100 -9.086100
20
Fragment
H -35.383700 -14.259900 -12.765500
H -35.272500 -15.588900 -12.532600
O -35.037300 -14.827400 -12.264400
H -33.571900 -14.789800 -11.150000
O -33.445100 -16.950500 -11.104700
N -33.004000 -14.434700 -10.609900
N -32.893700 -13.109200 -10.351900
N -32.503300 -17.274900 -10.368500
O -32.205100 -18.467300 -10.193000
C -32.094400 -15.107400 -9.895300
N -31.944700 -12.933000 -9.521500
N -31.752400 -16.386800 -9.715100
N -31.435900 -14.148600 -9.218800
H -30.249400 -13.651700 -7.689900
C -30.244100 -14.305500 -8.405900
H -30.235500 -15.189800 -8.008000
O -29.027700 -13.648300 -10.352800
C -29.008500 -14.118000 -9.256500
O -27.933900 -14.535000 -8.625500
H -27.265300 -14.314100 -9.086100
