36
Fragment
O -14.114300 -19.861700 -12.534200
H -14.008800 -21.298500 -14.295300
O -13.908400 -19.640000 -15.842800
H -13.890200 -23.559300 -14.054500
O -13.842700 -25.216600 -15.626800
N -13.112600 -20.409200 -12.147100
C -13.078600 -21.605900 -14.300000
C -12.997200 -23.161500 -14.121800
N -12.853700 -20.123500 -16.204000
N -12.735600 -24.809700 -15.926600
O -12.658000 -20.412700 -11.025700
O -12.513100 -25.444100 -12.765600
N -12.431600 -21.273300 -15.537100
N -12.321800 -21.040200 -13.155100
N -12.279200 -23.245000 -12.848200
N -12.250500 -23.736500 -15.201800
O -12.167500 -19.745200 -17.138800
O -12.022700 -25.233800 -16.801200
N -11.905300 -24.482800 -12.353600
C -11.428200 -22.074600 -12.667600
H -11.208800 -21.938600 -11.723300
C -11.040200 -21.663100 -15.679900
O -11.014300 -24.460000 -11.514400
C -10.943500 -23.216400 -15.475700
H -10.691800 -21.402500 -16.558100
H -10.544500 -23.651900 -16.258300
N -10.228200 -21.098500 -14.606900
C -10.117500 -22.104300 -13.563500
N -10.092100 -23.376400 -14.283500
H -9.308500 -21.978600 -13.024100
N -9.077800 -20.361200 -14.955100
O -9.062300 -19.884600 -16.076500
N -8.781700 -23.920500 -14.536100
O -8.728800 -24.745700 -15.420200
O -8.249100 -20.227500 -14.085200
O -7.890500 -23.558200 -13.801900
36
Fragment
O -20.120300 -29.273100 -21.608800
O -19.761700 -25.942400 -21.325500
O -19.282000 -30.460700 -19.990500
N -19.229100 -29.635400 -20.874600
O -18.948500 -25.599500 -19.334300
N -18.933000 -26.076200 -20.455600
H -18.702300 -27.693500 -22.386700
N -17.918700 -29.091400 -21.127200
C -17.893300 -27.819200 -21.847300
N -17.782600 -26.813400 -20.803800
H -17.466300 -29.366800 -19.152500
H -17.319000 -27.117400 -18.852700
C -17.067200 -28.931400 -19.935100
O -16.996500 -30.174900 -23.896400
C -16.970600 -27.378000 -19.730900
H -16.802000 -27.653500 -23.687400
C -16.582600 -27.789500 -22.743100
N -16.105500 -30.197800 -23.057100
O -15.988100 -30.948700 -18.609500
O -15.843300 -25.460100 -18.271900
N -15.760300 -29.451400 -20.208900
N -15.731600 -28.959900 -22.562500
N -15.689000 -26.755100 -22.255700
N -15.579200 -26.988300 -19.873700
O -15.497600 -31.159100 -22.645200
O -15.352800 -26.127600 -24.385000
N -15.275200 -30.524700 -19.484200
N -15.157100 -25.838400 -19.206800
C -15.013600 -28.876500 -21.288900
C -14.932200 -27.320900 -21.110700
N -14.898100 -26.124200 -23.263700
O -14.168100 -30.931600 -19.784000
H -14.120600 -29.274300 -21.356200
O -14.102400 -25.354900 -19.568000
H -14.002000 -27.013400 -21.115400
O -13.896500 -25.576700 -22.876500
72
Fragment
O -14.114300 -19.861700 -12.534200
H -14.008800 -21.298500 -14.295300
O -13.908400 -19.640000 -15.842800
H -13.890200 -23.559300 -14.054500
O -13.842700 -25.216600 -15.626800
N -13.112600 -20.409200 -12.147100
C -13.078600 -21.605900 -14.300000
C -12.997200 -23.161500 -14.121800
N -12.853700 -20.123500 -16.204000
N -12.735600 -24.809700 -15.926600
O -12.658000 -20.412700 -11.025700
O -12.513100 -25.444100 -12.765600
N -12.431600 -21.273300 -15.537100
N -12.321800 -21.040200 -13.155100
N -12.279200 -23.245000 -12.848200
N -12.250500 -23.736500 -15.201800
O -12.167500 -19.745200 -17.138800
O -12.022700 -25.233800 -16.801200
N -11.905300 -24.482800 -12.353600
C -11.428200 -22.074600 -12.667600
H -11.208800 -21.938600 -11.723300
C -11.040200 -21.663100 -15.679900
O -11.014300 -24.460000 -11.514400
C -10.943500 -23.216400 -15.475700
H -10.691800 -21.402500 -16.558100
H -10.544500 -23.651900 -16.258300
N -10.228200 -21.098500 -14.606900
C -10.117500 -22.104300 -13.563500
N -10.092100 -23.376400 -14.283500
H -9.308500 -21.978600 -13.024100
N -9.077800 -20.361200 -14.955100
O -9.062300 -19.884600 -16.076500
N -8.781700 -23.920500 -14.536100
O -8.728800 -24.745700 -15.420200
O -8.249100 -20.227500 -14.085200
O -7.890500 -23.558200 -13.801900
O -20.120300 -29.273100 -21.608800
O -19.761700 -25.942400 -21.325500
O -19.282000 -30.460700 -19.990500
N -19.229100 -29.635400 -20.874600
O -18.948500 -25.599500 -19.334300
N -18.933000 -26.076200 -20.455600
H -18.702300 -27.693500 -22.386700
N -17.918700 -29.091400 -21.127200
C -17.893300 -27.819200 -21.847300
N -17.782600 -26.813400 -20.803800
H -17.466300 -29.366800 -19.152500
H -17.319000 -27.117400 -18.852700
C -17.067200 -28.931400 -19.935100
O -16.996500 -30.174900 -23.896400
C -16.970600 -27.378000 -19.730900
H -16.802000 -27.653500 -23.687400
C -16.582600 -27.789500 -22.743100
N -16.105500 -30.197800 -23.057100
O -15.988100 -30.948700 -18.609500
O -15.843300 -25.460100 -18.271900
N -15.760300 -29.451400 -20.208900
N -15.731600 -28.959900 -22.562500
N -15.689000 -26.755100 -22.255700
N -15.579200 -26.988300 -19.873700
O -15.497600 -31.159100 -22.645200
O -15.352800 -26.127600 -24.385000
N -15.275200 -30.524700 -19.484200
N -15.157100 -25.838400 -19.206800
C -15.013600 -28.876500 -21.288900
C -14.932200 -27.320900 -21.110700
N -14.898100 -26.124200 -23.263700
O -14.168100 -30.931600 -19.784000
H -14.120600 -29.274300 -21.356200
O -14.102400 -25.354900 -19.568000
H -14.002000 -27.013400 -21.115400
O -13.896500 -25.576700 -22.876500
