36
Fragment
O -14.114300 -19.861700 -12.534200
H -14.008800 -21.298500 -14.295300
O -13.908400 -19.640000 -15.842800
H -13.890200 -23.559300 -14.054500
O -13.842700 -25.216600 -15.626800
N -13.112600 -20.409200 -12.147100
C -13.078600 -21.605900 -14.300000
C -12.997200 -23.161500 -14.121800
N -12.853700 -20.123500 -16.204000
N -12.735600 -24.809700 -15.926600
O -12.658000 -20.412700 -11.025700
O -12.513100 -25.444100 -12.765600
N -12.431600 -21.273300 -15.537100
N -12.321800 -21.040200 -13.155100
N -12.279200 -23.245000 -12.848200
N -12.250500 -23.736500 -15.201800
O -12.167500 -19.745200 -17.138800
O -12.022700 -25.233800 -16.801200
N -11.905300 -24.482800 -12.353600
C -11.428200 -22.074600 -12.667600
H -11.208800 -21.938600 -11.723300
C -11.040200 -21.663100 -15.679900
O -11.014300 -24.460000 -11.514400
C -10.943500 -23.216400 -15.475700
H -10.691800 -21.402500 -16.558100
H -10.544500 -23.651900 -16.258300
N -10.228200 -21.098500 -14.606900
C -10.117500 -22.104300 -13.563500
N -10.092100 -23.376400 -14.283500
H -9.308500 -21.978600 -13.024100
N -9.077800 -20.361200 -14.955100
O -9.062300 -19.884600 -16.076500
N -8.781700 -23.920500 -14.536100
O -8.728800 -24.745700 -15.420200
O -8.249100 -20.227500 -14.085200
O -7.890500 -23.558200 -13.801900
36
Fragment
O -5.762800 -19.861700 -12.534200
H -5.657300 -21.298500 -14.295300
O -5.556900 -19.640000 -15.842800
H -5.538700 -23.559300 -14.054500
O -5.491200 -25.216600 -15.626800
N -4.761100 -20.409200 -12.147100
C -4.727100 -21.605900 -14.300000
C -4.645700 -23.161500 -14.121800
N -4.502200 -20.123500 -16.204000
N -4.384100 -24.809700 -15.926600
O -4.306500 -20.412700 -11.025700
O -4.161600 -25.444100 -12.765600
N -4.080100 -21.273300 -15.537100
N -3.970300 -21.040200 -13.155100
N -3.927700 -23.245000 -12.848200
N -3.899000 -23.736500 -15.201800
O -3.816000 -19.745200 -17.138800
O -3.671200 -25.233800 -16.801200
N -3.553800 -24.482800 -12.353600
C -3.076700 -22.074600 -12.667600
H -2.857300 -21.938600 -11.723300
C -2.688700 -21.663100 -15.679900
O -2.662800 -24.460000 -11.514400
C -2.592000 -23.216400 -15.475700
H -2.340300 -21.402500 -16.558100
H -2.193000 -23.651900 -16.258300
N -1.876700 -21.098500 -14.606900
C -1.766000 -22.104300 -13.563500
N -1.740600 -23.376400 -14.283500
H -0.957000 -21.978600 -13.024100
N -0.726300 -20.361200 -14.955100
O -0.710800 -19.884600 -16.076500
N -0.430200 -23.920500 -14.536100
O -0.377300 -24.745700 -15.420200
O 0.102400 -20.227500 -14.085200
O 0.461000 -23.558200 -13.801900
72
Fragment
O -14.114300 -19.861700 -12.534200
H -14.008800 -21.298500 -14.295300
O -13.908400 -19.640000 -15.842800
H -13.890200 -23.559300 -14.054500
O -13.842700 -25.216600 -15.626800
N -13.112600 -20.409200 -12.147100
C -13.078600 -21.605900 -14.300000
C -12.997200 -23.161500 -14.121800
N -12.853700 -20.123500 -16.204000
N -12.735600 -24.809700 -15.926600
O -12.658000 -20.412700 -11.025700
O -12.513100 -25.444100 -12.765600
N -12.431600 -21.273300 -15.537100
N -12.321800 -21.040200 -13.155100
N -12.279200 -23.245000 -12.848200
N -12.250500 -23.736500 -15.201800
O -12.167500 -19.745200 -17.138800
O -12.022700 -25.233800 -16.801200
N -11.905300 -24.482800 -12.353600
C -11.428200 -22.074600 -12.667600
H -11.208800 -21.938600 -11.723300
C -11.040200 -21.663100 -15.679900
O -11.014300 -24.460000 -11.514400
C -10.943500 -23.216400 -15.475700
H -10.691800 -21.402500 -16.558100
H -10.544500 -23.651900 -16.258300
N -10.228200 -21.098500 -14.606900
C -10.117500 -22.104300 -13.563500
N -10.092100 -23.376400 -14.283500
H -9.308500 -21.978600 -13.024100
N -9.077800 -20.361200 -14.955100
O -9.062300 -19.884600 -16.076500
N -8.781700 -23.920500 -14.536100
O -8.728800 -24.745700 -15.420200
O -8.249100 -20.227500 -14.085200
O -7.890500 -23.558200 -13.801900
O -5.762800 -19.861700 -12.534200
H -5.657300 -21.298500 -14.295300
O -5.556900 -19.640000 -15.842800
H -5.538700 -23.559300 -14.054500
O -5.491200 -25.216600 -15.626800
N -4.761100 -20.409200 -12.147100
C -4.727100 -21.605900 -14.300000
C -4.645700 -23.161500 -14.121800
N -4.502200 -20.123500 -16.204000
N -4.384100 -24.809700 -15.926600
O -4.306500 -20.412700 -11.025700
O -4.161600 -25.444100 -12.765600
N -4.080100 -21.273300 -15.537100
N -3.970300 -21.040200 -13.155100
N -3.927700 -23.245000 -12.848200
N -3.899000 -23.736500 -15.201800
O -3.816000 -19.745200 -17.138800
O -3.671200 -25.233800 -16.801200
N -3.553800 -24.482800 -12.353600
C -3.076700 -22.074600 -12.667600
H -2.857300 -21.938600 -11.723300
C -2.688700 -21.663100 -15.679900
O -2.662800 -24.460000 -11.514400
C -2.592000 -23.216400 -15.475700
H -2.340300 -21.402500 -16.558100
H -2.193000 -23.651900 -16.258300
N -1.876700 -21.098500 -14.606900
C -1.766000 -22.104300 -13.563500
N -1.740600 -23.376400 -14.283500
H -0.957000 -21.978600 -13.024100
N -0.726300 -20.361200 -14.955100
O -0.710800 -19.884600 -16.076500
N -0.430200 -23.920500 -14.536100
O -0.377300 -24.745700 -15.420200
O 0.102400 -20.227500 -14.085200
O 0.461000 -23.558200 -13.801900
