36
Fragment
O -14.114300 -19.861700 -12.534200
H -14.008800 -21.298500 -14.295300
O -13.908400 -19.640000 -15.842800
H -13.890200 -23.559300 -14.054500
O -13.842700 -25.216600 -15.626800
N -13.112600 -20.409200 -12.147100
C -13.078600 -21.605900 -14.300000
C -12.997200 -23.161500 -14.121800
N -12.853700 -20.123500 -16.204000
N -12.735600 -24.809700 -15.926600
O -12.658000 -20.412700 -11.025700
O -12.513100 -25.444100 -12.765600
N -12.431600 -21.273300 -15.537100
N -12.321800 -21.040200 -13.155100
N -12.279200 -23.245000 -12.848200
N -12.250500 -23.736500 -15.201800
O -12.167500 -19.745200 -17.138800
O -12.022700 -25.233800 -16.801200
N -11.905300 -24.482800 -12.353600
C -11.428200 -22.074600 -12.667600
H -11.208800 -21.938600 -11.723300
C -11.040200 -21.663100 -15.679900
O -11.014300 -24.460000 -11.514400
C -10.943500 -23.216400 -15.475700
H -10.691800 -21.402500 -16.558100
H -10.544500 -23.651900 -16.258300
N -10.228200 -21.098500 -14.606900
C -10.117500 -22.104300 -13.563500
N -10.092100 -23.376400 -14.283500
H -9.308500 -21.978600 -13.024100
N -9.077800 -20.361200 -14.955100
O -9.062300 -19.884600 -16.076500
N -8.781700 -23.920500 -14.536100
O -8.728800 -24.745700 -15.420200
O -8.249100 -20.227500 -14.085200
O -7.890500 -23.558200 -13.801900
18
Fragment
H -8.400300 -28.420400 -16.392800
H -8.250000 -27.170000 -15.460300
H -8.237700 -28.612500 -14.845400
C -7.978100 -28.079800 -15.600800
O -6.890900 -28.330200 -12.968600
N -6.522400 -28.134700 -15.760100
N -6.010700 -28.103800 -16.991300
N -5.757300 -28.299300 -13.392300
C -5.552200 -28.214700 -14.820600
O -4.744400 -28.388400 -12.733700
C -4.703200 -28.164400 -16.808300
C -4.356300 -28.231900 -15.483900
O -4.271100 -28.041000 -19.052200
N -3.812100 -28.132400 -17.932000
N -3.031600 -28.339300 -14.882000
O -2.614300 -28.211300 -17.675900
O -2.569900 -29.458300 -14.804100
O -2.481500 -27.322000 -14.551500
54
Fragment
O -14.114300 -19.861700 -12.534200
H -14.008800 -21.298500 -14.295300
O -13.908400 -19.640000 -15.842800
H -13.890200 -23.559300 -14.054500
O -13.842700 -25.216600 -15.626800
N -13.112600 -20.409200 -12.147100
C -13.078600 -21.605900 -14.300000
C -12.997200 -23.161500 -14.121800
N -12.853700 -20.123500 -16.204000
N -12.735600 -24.809700 -15.926600
O -12.658000 -20.412700 -11.025700
O -12.513100 -25.444100 -12.765600
N -12.431600 -21.273300 -15.537100
N -12.321800 -21.040200 -13.155100
N -12.279200 -23.245000 -12.848200
N -12.250500 -23.736500 -15.201800
O -12.167500 -19.745200 -17.138800
O -12.022700 -25.233800 -16.801200
N -11.905300 -24.482800 -12.353600
C -11.428200 -22.074600 -12.667600
H -11.208800 -21.938600 -11.723300
C -11.040200 -21.663100 -15.679900
O -11.014300 -24.460000 -11.514400
C -10.943500 -23.216400 -15.475700
H -10.691800 -21.402500 -16.558100
H -10.544500 -23.651900 -16.258300
N -10.228200 -21.098500 -14.606900
C -10.117500 -22.104300 -13.563500
N -10.092100 -23.376400 -14.283500
H -9.308500 -21.978600 -13.024100
N -9.077800 -20.361200 -14.955100
O -9.062300 -19.884600 -16.076500
N -8.781700 -23.920500 -14.536100
O -8.728800 -24.745700 -15.420200
O -8.249100 -20.227500 -14.085200
O -7.890500 -23.558200 -13.801900
H -8.400300 -28.420400 -16.392800
H -8.250000 -27.170000 -15.460300
H -8.237700 -28.612500 -14.845400
C -7.978100 -28.079800 -15.600800
O -6.890900 -28.330200 -12.968600
N -6.522400 -28.134700 -15.760100
N -6.010700 -28.103800 -16.991300
N -5.757300 -28.299300 -13.392300
C -5.552200 -28.214700 -14.820600
O -4.744400 -28.388400 -12.733700
C -4.703200 -28.164400 -16.808300
C -4.356300 -28.231900 -15.483900
O -4.271100 -28.041000 -19.052200
N -3.812100 -28.132400 -17.932000
N -3.031600 -28.339300 -14.882000
O -2.614300 -28.211300 -17.675900
O -2.569900 -29.458300 -14.804100
O -2.481500 -27.322000 -14.551500
