36
Fragment
O -14.114300 -19.861700 -12.534200
H -14.008800 -21.298500 -14.295300
O -13.908400 -19.640000 -15.842800
H -13.890200 -23.559300 -14.054500
O -13.842700 -25.216600 -15.626800
N -13.112600 -20.409200 -12.147100
C -13.078600 -21.605900 -14.300000
C -12.997200 -23.161500 -14.121800
N -12.853700 -20.123500 -16.204000
N -12.735600 -24.809700 -15.926600
O -12.658000 -20.412700 -11.025700
O -12.513100 -25.444100 -12.765600
N -12.431600 -21.273300 -15.537100
N -12.321800 -21.040200 -13.155100
N -12.279200 -23.245000 -12.848200
N -12.250500 -23.736500 -15.201800
O -12.167500 -19.745200 -17.138800
O -12.022700 -25.233800 -16.801200
N -11.905300 -24.482800 -12.353600
C -11.428200 -22.074600 -12.667600
H -11.208800 -21.938600 -11.723300
C -11.040200 -21.663100 -15.679900
O -11.014300 -24.460000 -11.514400
C -10.943500 -23.216400 -15.475700
H -10.691800 -21.402500 -16.558100
H -10.544500 -23.651900 -16.258300
N -10.228200 -21.098500 -14.606900
C -10.117500 -22.104300 -13.563500
N -10.092100 -23.376400 -14.283500
H -9.308500 -21.978600 -13.024100
N -9.077800 -20.361200 -14.955100
O -9.062300 -19.884600 -16.076500
N -8.781700 -23.920500 -14.536100
O -8.728800 -24.745700 -15.420200
O -8.249100 -20.227500 -14.085200
O -7.890500 -23.558200 -13.801900
36
Fragment
O -11.768800 -17.843200 -21.608800
O -11.410200 -14.512500 -21.325500
O -10.930500 -19.030800 -19.990500
N -10.877600 -18.205500 -20.874600
O -10.597000 -14.169600 -19.334300
N -10.581500 -14.646300 -20.455600
H -10.350800 -16.263600 -22.386700
N -9.567200 -17.661500 -21.127200
C -9.541800 -16.389300 -21.847300
N -9.431100 -15.383500 -20.803800
H -9.114800 -17.936900 -19.152500
H -8.967500 -15.687500 -18.852700
C -8.715700 -17.501500 -19.935100
O -8.645000 -18.745000 -23.896400
C -8.619100 -15.948100 -19.730900
H -8.450500 -16.223600 -23.687400
C -8.231100 -16.359600 -22.743100
N -7.754000 -18.767900 -23.057100
O -7.636600 -19.518800 -18.609500
O -7.491800 -14.030200 -18.271900
N -7.408800 -18.021500 -20.208900
N -7.380100 -17.530000 -22.562500
N -7.337500 -15.325200 -22.255700
N -7.227700 -15.558400 -19.873700
O -7.146100 -19.729200 -22.645200
O -7.001300 -14.697700 -24.385000
N -6.923700 -19.094800 -19.484200
N -6.805600 -14.408500 -19.206800
C -6.662100 -17.446600 -21.288900
C -6.580700 -15.891000 -21.110700
N -6.546600 -14.694300 -23.263700
O -5.816600 -19.501700 -19.784000
H -5.769100 -17.844400 -21.356200
O -5.750900 -13.925000 -19.568000
H -5.650500 -15.583500 -21.115400
O -5.545000 -14.146800 -22.876500
72
Fragment
O -14.114300 -19.861700 -12.534200
H -14.008800 -21.298500 -14.295300
O -13.908400 -19.640000 -15.842800
H -13.890200 -23.559300 -14.054500
O -13.842700 -25.216600 -15.626800
N -13.112600 -20.409200 -12.147100
C -13.078600 -21.605900 -14.300000
C -12.997200 -23.161500 -14.121800
N -12.853700 -20.123500 -16.204000
N -12.735600 -24.809700 -15.926600
O -12.658000 -20.412700 -11.025700
O -12.513100 -25.444100 -12.765600
N -12.431600 -21.273300 -15.537100
N -12.321800 -21.040200 -13.155100
N -12.279200 -23.245000 -12.848200
N -12.250500 -23.736500 -15.201800
O -12.167500 -19.745200 -17.138800
O -12.022700 -25.233800 -16.801200
N -11.905300 -24.482800 -12.353600
C -11.428200 -22.074600 -12.667600
H -11.208800 -21.938600 -11.723300
C -11.040200 -21.663100 -15.679900
O -11.014300 -24.460000 -11.514400
C -10.943500 -23.216400 -15.475700
H -10.691800 -21.402500 -16.558100
H -10.544500 -23.651900 -16.258300
N -10.228200 -21.098500 -14.606900
C -10.117500 -22.104300 -13.563500
N -10.092100 -23.376400 -14.283500
H -9.308500 -21.978600 -13.024100
N -9.077800 -20.361200 -14.955100
O -9.062300 -19.884600 -16.076500
N -8.781700 -23.920500 -14.536100
O -8.728800 -24.745700 -15.420200
O -8.249100 -20.227500 -14.085200
O -7.890500 -23.558200 -13.801900
O -11.768800 -17.843200 -21.608800
O -11.410200 -14.512500 -21.325500
O -10.930500 -19.030800 -19.990500
N -10.877600 -18.205500 -20.874600
O -10.597000 -14.169600 -19.334300
N -10.581500 -14.646300 -20.455600
H -10.350800 -16.263600 -22.386700
N -9.567200 -17.661500 -21.127200
C -9.541800 -16.389300 -21.847300
N -9.431100 -15.383500 -20.803800
H -9.114800 -17.936900 -19.152500
H -8.967500 -15.687500 -18.852700
C -8.715700 -17.501500 -19.935100
O -8.645000 -18.745000 -23.896400
C -8.619100 -15.948100 -19.730900
H -8.450500 -16.223600 -23.687400
C -8.231100 -16.359600 -22.743100
N -7.754000 -18.767900 -23.057100
O -7.636600 -19.518800 -18.609500
O -7.491800 -14.030200 -18.271900
N -7.408800 -18.021500 -20.208900
N -7.380100 -17.530000 -22.562500
N -7.337500 -15.325200 -22.255700
N -7.227700 -15.558400 -19.873700
O -7.146100 -19.729200 -22.645200
O -7.001300 -14.697700 -24.385000
N -6.923700 -19.094800 -19.484200
N -6.805600 -14.408500 -19.206800
C -6.662100 -17.446600 -21.288900
C -6.580700 -15.891000 -21.110700
N -6.546600 -14.694300 -23.263700
O -5.816600 -19.501700 -19.784000
H -5.769100 -17.844400 -21.356200
O -5.750900 -13.925000 -19.568000
H -5.650500 -15.583500 -21.115400
O -5.545000 -14.146800 -22.876500
