36
Fragment
O -14.114300 -19.861700 -12.534200
H -14.008800 -21.298500 -14.295300
O -13.908400 -19.640000 -15.842800
H -13.890200 -23.559300 -14.054500
O -13.842700 -25.216600 -15.626800
N -13.112600 -20.409200 -12.147100
C -13.078600 -21.605900 -14.300000
C -12.997200 -23.161500 -14.121800
N -12.853700 -20.123500 -16.204000
N -12.735600 -24.809700 -15.926600
O -12.658000 -20.412700 -11.025700
O -12.513100 -25.444100 -12.765600
N -12.431600 -21.273300 -15.537100
N -12.321800 -21.040200 -13.155100
N -12.279200 -23.245000 -12.848200
N -12.250500 -23.736500 -15.201800
O -12.167500 -19.745200 -17.138800
O -12.022700 -25.233800 -16.801200
N -11.905300 -24.482800 -12.353600
C -11.428200 -22.074600 -12.667600
H -11.208800 -21.938600 -11.723300
C -11.040200 -21.663100 -15.679900
O -11.014300 -24.460000 -11.514400
C -10.943500 -23.216400 -15.475700
H -10.691800 -21.402500 -16.558100
H -10.544500 -23.651900 -16.258300
N -10.228200 -21.098500 -14.606900
C -10.117500 -22.104300 -13.563500
N -10.092100 -23.376400 -14.283500
H -9.308500 -21.978600 -13.024100
N -9.077800 -20.361200 -14.955100
O -9.062300 -19.884600 -16.076500
N -8.781700 -23.920500 -14.536100
O -8.728800 -24.745700 -15.420200
O -8.249100 -20.227500 -14.085200
O -7.890500 -23.558200 -13.801900
36
Fragment
O -13.567200 -29.273100 -9.805200
O -13.208600 -25.942400 -9.522000
O -12.728900 -30.460700 -8.187000
N -12.676000 -29.635400 -9.071100
O -12.395400 -25.599500 -7.530700
N -12.379900 -26.076200 -8.652000
H -12.149200 -27.693500 -10.583100
N -11.365600 -29.091400 -9.323700
C -11.340200 -27.819200 -10.043700
N -11.229500 -26.813400 -9.000200
H -10.913200 -29.366800 -7.348900
H -10.765900 -27.117400 -7.049100
C -10.514100 -28.931400 -8.131500
O -10.443400 -30.174900 -12.092800
C -10.417500 -27.378000 -7.927300
H -10.248900 -27.653500 -11.883800
C -10.029500 -27.789500 -10.939600
N -9.552400 -30.197800 -11.253500
O -9.435000 -30.948700 -6.805900
O -9.290200 -25.460100 -6.468400
N -9.207200 -29.451400 -8.405300
N -9.178500 -28.959900 -10.759000
N -9.135900 -26.755100 -10.452100
N -9.026100 -26.988300 -8.070100
O -8.944600 -31.159100 -10.841600
O -8.799700 -26.127600 -12.581400
N -8.722100 -30.524700 -7.680600
N -8.604000 -25.838400 -7.403200
C -8.460500 -28.876500 -9.485400
C -8.379100 -27.320900 -9.307100
N -8.345000 -26.124200 -11.460100
O -7.615000 -30.931600 -7.980400
H -7.567500 -29.274300 -9.552600
O -7.549300 -25.354900 -7.764400
H -7.448900 -27.013400 -9.311800
O -7.343400 -25.576700 -11.072900
72
Fragment
O -14.114300 -19.861700 -12.534200
H -14.008800 -21.298500 -14.295300
O -13.908400 -19.640000 -15.842800
H -13.890200 -23.559300 -14.054500
O -13.842700 -25.216600 -15.626800
N -13.112600 -20.409200 -12.147100
C -13.078600 -21.605900 -14.300000
C -12.997200 -23.161500 -14.121800
N -12.853700 -20.123500 -16.204000
N -12.735600 -24.809700 -15.926600
O -12.658000 -20.412700 -11.025700
O -12.513100 -25.444100 -12.765600
N -12.431600 -21.273300 -15.537100
N -12.321800 -21.040200 -13.155100
N -12.279200 -23.245000 -12.848200
N -12.250500 -23.736500 -15.201800
O -12.167500 -19.745200 -17.138800
O -12.022700 -25.233800 -16.801200
N -11.905300 -24.482800 -12.353600
C -11.428200 -22.074600 -12.667600
H -11.208800 -21.938600 -11.723300
C -11.040200 -21.663100 -15.679900
O -11.014300 -24.460000 -11.514400
C -10.943500 -23.216400 -15.475700
H -10.691800 -21.402500 -16.558100
H -10.544500 -23.651900 -16.258300
N -10.228200 -21.098500 -14.606900
C -10.117500 -22.104300 -13.563500
N -10.092100 -23.376400 -14.283500
H -9.308500 -21.978600 -13.024100
N -9.077800 -20.361200 -14.955100
O -9.062300 -19.884600 -16.076500
N -8.781700 -23.920500 -14.536100
O -8.728800 -24.745700 -15.420200
O -8.249100 -20.227500 -14.085200
O -7.890500 -23.558200 -13.801900
O -13.567200 -29.273100 -9.805200
O -13.208600 -25.942400 -9.522000
O -12.728900 -30.460700 -8.187000
N -12.676000 -29.635400 -9.071100
O -12.395400 -25.599500 -7.530700
N -12.379900 -26.076200 -8.652000
H -12.149200 -27.693500 -10.583100
N -11.365600 -29.091400 -9.323700
C -11.340200 -27.819200 -10.043700
N -11.229500 -26.813400 -9.000200
H -10.913200 -29.366800 -7.348900
H -10.765900 -27.117400 -7.049100
C -10.514100 -28.931400 -8.131500
O -10.443400 -30.174900 -12.092800
C -10.417500 -27.378000 -7.927300
H -10.248900 -27.653500 -11.883800
C -10.029500 -27.789500 -10.939600
N -9.552400 -30.197800 -11.253500
O -9.435000 -30.948700 -6.805900
O -9.290200 -25.460100 -6.468400
N -9.207200 -29.451400 -8.405300
N -9.178500 -28.959900 -10.759000
N -9.135900 -26.755100 -10.452100
N -9.026100 -26.988300 -8.070100
O -8.944600 -31.159100 -10.841600
O -8.799700 -26.127600 -12.581400
N -8.722100 -30.524700 -7.680600
N -8.604000 -25.838400 -7.403200
C -8.460500 -28.876500 -9.485400
C -8.379100 -27.320900 -9.307100
N -8.345000 -26.124200 -11.460100
O -7.615000 -30.931600 -7.980400
H -7.567500 -29.274300 -9.552600
O -7.549300 -25.354900 -7.764400
H -7.448900 -27.013400 -9.311800
O -7.343400 -25.576700 -11.072900
