66
Fragment
H -7.901800 -16.468200 -24.490800
H -7.508000 -15.927500 -21.213800
H -7.367800 -16.743300 -22.499500
H -7.238800 -15.918000 -25.792100
H -7.156800 -14.049200 -26.732900
C -7.056400 -16.113400 -24.871800
C -6.890100 -16.133400 -21.946100
C -6.665000 -14.848000 -24.127000
C -6.579600 -14.856500 -22.714300
H -6.420500 -14.589900 -20.132000
H -6.335200 -17.938600 -25.557000
H -6.312100 -13.015200 -20.116300
C -6.281400 -13.704900 -24.849800
C -6.256700 -13.737100 -26.370700
H -6.164000 -17.758400 -23.895000
C -6.108800 -13.720000 -22.032300
H -6.081000 -12.787500 -26.717200
C -6.049800 -17.290700 -24.834100
H -6.036200 -17.843700 -21.104100
H -5.998600 -11.051500 -25.604000
C -5.908700 -13.778900 -20.524000
C -5.805200 -12.571200 -24.169400
C -5.724100 -12.580700 -22.759800
C -5.690000 -16.879900 -21.304800
H -5.598200 -10.558300 -22.311400
H -5.518300 -15.671400 -26.952400
H -5.460200 -16.344900 -20.414200
H -5.347800 -11.468900 -21.041400
C -5.272200 -11.378800 -24.948600
C -5.198400 -14.663900 -27.024500
H -5.178100 -10.586700 -24.334000
H -5.160400 -14.409700 -27.987200
C -5.111000 -11.402500 -22.018200
C -4.537300 -17.056400 -25.019200
H -4.488000 -14.049200 -19.050100
H -4.470200 -17.872200 -22.703400
C -4.449900 -13.795000 -20.012800
C -4.376100 -17.080100 -22.088700
H -4.300500 -16.990000 -25.996000
H -4.188100 -12.114000 -26.623100
H -4.130000 -12.787500 -20.084900
H -4.050200 -17.900600 -24.726000
C -3.958300 -11.579000 -25.732600
C -3.924200 -15.878200 -24.277500
C -3.843200 -15.887700 -22.868000
C -3.739700 -14.680000 -26.513400
H -3.649700 -17.407400 -21.433300
H -3.612200 -10.615200 -25.933300
C -3.598500 -11.168200 -22.203200
H -3.567300 -15.671400 -20.320100
C -3.539600 -14.738900 -25.005000
H -3.484300 -10.700500 -23.142400
C -3.391600 -14.721800 -20.666600
C -3.366900 -14.754000 -22.187500
H -3.336200 -15.443700 -26.921000
H -3.313100 -10.520300 -21.480400
H -3.227800 -13.869000 -26.905400
C -3.068700 -13.602400 -24.323000
C -2.983300 -13.610900 -22.910300
C -2.758300 -12.325500 -25.091300
C -2.591900 -12.345500 -22.165600
H -2.491500 -14.409700 -20.304500
H -2.409600 -12.540900 -21.245200
H -2.280500 -11.715600 -24.537800
H -2.140400 -12.531400 -25.823500
H -1.746500 -11.990700 -22.546600
66
Fragment
H -11.207000 -7.247500 -32.330300
H -10.813100 -7.788300 -29.053400
H -10.672900 -6.972400 -30.339100
H -10.543900 -7.797700 -33.631700
H -10.461900 -9.666500 -34.572400
C -10.361600 -7.602300 -32.711300
C -10.195200 -7.582400 -29.785600
C -9.970200 -8.867800 -31.966600
C -9.884700 -8.859300 -30.553900
H -9.725700 -9.125800 -27.971500
H -9.640300 -5.777200 -33.396500
H -9.617300 -10.700500 -27.955900
C -9.586600 -10.010900 -32.689400
C -9.561800 -9.978600 -34.210300
H -9.469100 -5.957400 -31.734500
C -9.413900 -9.995700 -29.871800
H -9.386200 -10.928200 -34.556800
C -9.354900 -6.425100 -32.673700
H -9.341300 -5.872000 -28.943600
H -9.303800 -12.664200 -33.443500
C -9.213800 -9.936900 -28.363500
C -9.110300 -11.144500 -32.008900
C -9.029200 -11.135000 -30.599400
C -8.995200 -6.835800 -29.144300
H -8.903300 -13.157500 -30.150900
H -8.823400 -8.044400 -34.792000
H -8.765300 -7.370900 -28.253800
H -8.653000 -12.246800 -28.880900
C -8.577400 -12.336900 -32.788200
C -8.503600 -9.051800 -34.864100
H -8.483200 -13.129000 -32.173500
H -8.465500 -9.306100 -35.826800
C -8.416200 -12.313200 -29.857700
C -7.842400 -6.659400 -32.858700
H -7.793100 -9.666500 -26.889700
H -7.775400 -5.843600 -30.542900
C -7.755000 -9.920800 -27.852400
C -7.681200 -6.635700 -29.928300
H -7.605600 -6.725800 -33.835500
H -7.493300 -11.601700 -34.462700
H -7.435200 -10.928200 -27.924500
H -7.355300 -5.815100 -32.565500
C -7.263400 -12.136800 -33.572100
C -7.229400 -7.837600 -32.117100
C -7.148300 -7.828100 -30.707500
C -7.044800 -9.035700 -34.352900
H -6.954800 -6.308400 -29.272900
H -6.917300 -13.100600 -33.772800
C -6.903700 -12.547500 -30.042700
H -6.872500 -8.044400 -28.159700
C -6.844700 -8.976900 -32.844600
H -6.789500 -13.015200 -30.981900
C -6.696800 -8.994000 -28.506200
C -6.672000 -8.961700 -30.027100
H -6.641400 -8.272100 -34.760600
H -6.618300 -13.195400 -29.319900
H -6.532900 -9.846800 -34.744900
C -6.373900 -10.113300 -32.162600
C -6.288400 -10.104800 -30.749900
C -6.063400 -11.390200 -32.930800
C -5.897100 -11.370300 -30.005100
H -5.796700 -9.306100 -28.144000
H -5.714700 -11.174900 -29.084800
H -5.585700 -12.000200 -32.377400
H -5.445500 -11.184300 -33.663100
H -5.051700 -11.725100 -30.386100
132
Fragment
H -7.901800 -16.468200 -24.490800
H -7.508000 -15.927500 -21.213800
H -7.367800 -16.743300 -22.499500
H -7.238800 -15.918000 -25.792100
H -7.156800 -14.049200 -26.732900
C -7.056400 -16.113400 -24.871800
C -6.890100 -16.133400 -21.946100
C -6.665000 -14.848000 -24.127000
C -6.579600 -14.856500 -22.714300
H -6.420500 -14.589900 -20.132000
H -6.335200 -17.938600 -25.557000
H -6.312100 -13.015200 -20.116300
C -6.281400 -13.704900 -24.849800
C -6.256700 -13.737100 -26.370700
H -6.164000 -17.758400 -23.895000
C -6.108800 -13.720000 -22.032300
H -6.081000 -12.787500 -26.717200
C -6.049800 -17.290700 -24.834100
H -6.036200 -17.843700 -21.104100
H -5.998600 -11.051500 -25.604000
C -5.908700 -13.778900 -20.524000
C -5.805200 -12.571200 -24.169400
C -5.724100 -12.580700 -22.759800
C -5.690000 -16.879900 -21.304800
H -5.598200 -10.558300 -22.311400
H -5.518300 -15.671400 -26.952400
H -5.460200 -16.344900 -20.414200
H -5.347800 -11.468900 -21.041400
C -5.272200 -11.378800 -24.948600
C -5.198400 -14.663900 -27.024500
H -5.178100 -10.586700 -24.334000
H -5.160400 -14.409700 -27.987200
C -5.111000 -11.402500 -22.018200
C -4.537300 -17.056400 -25.019200
H -4.488000 -14.049200 -19.050100
H -4.470200 -17.872200 -22.703400
C -4.449900 -13.795000 -20.012800
C -4.376100 -17.080100 -22.088700
H -4.300500 -16.990000 -25.996000
H -4.188100 -12.114000 -26.623100
H -4.130000 -12.787500 -20.084900
H -4.050200 -17.900600 -24.726000
C -3.958300 -11.579000 -25.732600
C -3.924200 -15.878200 -24.277500
C -3.843200 -15.887700 -22.868000
C -3.739700 -14.680000 -26.513400
H -3.649700 -17.407400 -21.433300
H -3.612200 -10.615200 -25.933300
C -3.598500 -11.168200 -22.203200
H -3.567300 -15.671400 -20.320100
C -3.539600 -14.738900 -25.005000
H -3.484300 -10.700500 -23.142400
C -3.391600 -14.721800 -20.666600
C -3.366900 -14.754000 -22.187500
H -3.336200 -15.443700 -26.921000
H -3.313100 -10.520300 -21.480400
H -3.227800 -13.869000 -26.905400
C -3.068700 -13.602400 -24.323000
C -2.983300 -13.610900 -22.910300
C -2.758300 -12.325500 -25.091300
C -2.591900 -12.345500 -22.165600
H -2.491500 -14.409700 -20.304500
H -2.409600 -12.540900 -21.245200
H -2.280500 -11.715600 -24.537800
H -2.140400 -12.531400 -25.823500
H -1.746500 -11.990700 -22.546600
H -11.207000 -7.247500 -32.330300
H -10.813100 -7.788300 -29.053400
H -10.672900 -6.972400 -30.339100
H -10.543900 -7.797700 -33.631700
H -10.461900 -9.666500 -34.572400
C -10.361600 -7.602300 -32.711300
C -10.195200 -7.582400 -29.785600
C -9.970200 -8.867800 -31.966600
C -9.884700 -8.859300 -30.553900
H -9.725700 -9.125800 -27.971500
H -9.640300 -5.777200 -33.396500
H -9.617300 -10.700500 -27.955900
C -9.586600 -10.010900 -32.689400
C -9.561800 -9.978600 -34.210300
H -9.469100 -5.957400 -31.734500
C -9.413900 -9.995700 -29.871800
H -9.386200 -10.928200 -34.556800
C -9.354900 -6.425100 -32.673700
H -9.341300 -5.872000 -28.943600
H -9.303800 -12.664200 -33.443500
C -9.213800 -9.936900 -28.363500
C -9.110300 -11.144500 -32.008900
C -9.029200 -11.135000 -30.599400
C -8.995200 -6.835800 -29.144300
H -8.903300 -13.157500 -30.150900
H -8.823400 -8.044400 -34.792000
H -8.765300 -7.370900 -28.253800
H -8.653000 -12.246800 -28.880900
C -8.577400 -12.336900 -32.788200
C -8.503600 -9.051800 -34.864100
H -8.483200 -13.129000 -32.173500
H -8.465500 -9.306100 -35.826800
C -8.416200 -12.313200 -29.857700
C -7.842400 -6.659400 -32.858700
H -7.793100 -9.666500 -26.889700
H -7.775400 -5.843600 -30.542900
C -7.755000 -9.920800 -27.852400
C -7.681200 -6.635700 -29.928300
H -7.605600 -6.725800 -33.835500
H -7.493300 -11.601700 -34.462700
H -7.435200 -10.928200 -27.924500
H -7.355300 -5.815100 -32.565500
C -7.263400 -12.136800 -33.572100
C -7.229400 -7.837600 -32.117100
C -7.148300 -7.828100 -30.707500
C -7.044800 -9.035700 -34.352900
H -6.954800 -6.308400 -29.272900
H -6.917300 -13.100600 -33.772800
C -6.903700 -12.547500 -30.042700
H -6.872500 -8.044400 -28.159700
C -6.844700 -8.976900 -32.844600
H -6.789500 -13.015200 -30.981900
C -6.696800 -8.994000 -28.506200
C -6.672000 -8.961700 -30.027100
H -6.641400 -8.272100 -34.760600
H -6.618300 -13.195400 -29.319900
H -6.532900 -9.846800 -34.744900
C -6.373900 -10.113300 -32.162600
C -6.288400 -10.104800 -30.749900
C -6.063400 -11.390200 -32.930800
C -5.897100 -11.370300 -30.005100
H -5.796700 -9.306100 -28.144000
H -5.714700 -11.174900 -29.084800
H -5.585700 -12.000200 -32.377400
H -5.445500 -11.184300 -33.663100
H -5.051700 -11.725100 -30.386100
