66
Fragment
H -7.901800 -16.468200 -24.490800
H -7.508000 -15.927500 -21.213800
H -7.367800 -16.743300 -22.499500
H -7.238800 -15.918000 -25.792100
H -7.156800 -14.049200 -26.732900
C -7.056400 -16.113400 -24.871800
C -6.890100 -16.133400 -21.946100
C -6.665000 -14.848000 -24.127000
C -6.579600 -14.856500 -22.714300
H -6.420500 -14.589900 -20.132000
H -6.335200 -17.938600 -25.557000
H -6.312100 -13.015200 -20.116300
C -6.281400 -13.704900 -24.849800
C -6.256700 -13.737100 -26.370700
H -6.164000 -17.758400 -23.895000
C -6.108800 -13.720000 -22.032300
H -6.081000 -12.787500 -26.717200
C -6.049800 -17.290700 -24.834100
H -6.036200 -17.843700 -21.104100
H -5.998600 -11.051500 -25.604000
C -5.908700 -13.778900 -20.524000
C -5.805200 -12.571200 -24.169400
C -5.724100 -12.580700 -22.759800
C -5.690000 -16.879900 -21.304800
H -5.598200 -10.558300 -22.311400
H -5.518300 -15.671400 -26.952400
H -5.460200 -16.344900 -20.414200
H -5.347800 -11.468900 -21.041400
C -5.272200 -11.378800 -24.948600
C -5.198400 -14.663900 -27.024500
H -5.178100 -10.586700 -24.334000
H -5.160400 -14.409700 -27.987200
C -5.111000 -11.402500 -22.018200
C -4.537300 -17.056400 -25.019200
H -4.488000 -14.049200 -19.050100
H -4.470200 -17.872200 -22.703400
C -4.449900 -13.795000 -20.012800
C -4.376100 -17.080100 -22.088700
H -4.300500 -16.990000 -25.996000
H -4.188100 -12.114000 -26.623100
H -4.130000 -12.787500 -20.084900
H -4.050200 -17.900600 -24.726000
C -3.958300 -11.579000 -25.732600
C -3.924200 -15.878200 -24.277500
C -3.843200 -15.887700 -22.868000
C -3.739700 -14.680000 -26.513400
H -3.649700 -17.407400 -21.433300
H -3.612200 -10.615200 -25.933300
C -3.598500 -11.168200 -22.203200
H -3.567300 -15.671400 -20.320100
C -3.539600 -14.738900 -25.005000
H -3.484300 -10.700500 -23.142400
C -3.391600 -14.721800 -20.666600
C -3.366900 -14.754000 -22.187500
H -3.336200 -15.443700 -26.921000
H -3.313100 -10.520300 -21.480400
H -3.227800 -13.869000 -26.905400
C -3.068700 -13.602400 -24.323000
C -2.983300 -13.610900 -22.910300
C -2.758300 -12.325500 -25.091300
C -2.591900 -12.345500 -22.165600
H -2.491500 -14.409700 -20.304500
H -2.409600 -12.540900 -21.245200
H -2.280500 -11.715600 -24.537800
H -2.140400 -12.531400 -25.823500
H -1.746500 -11.990700 -22.546600
20
Fragment
N -1.480100 -8.096600 -26.522800
C -1.169900 -7.680100 -25.502100
N -1.088000 -9.259600 -22.549700
C -0.991900 -8.328000 -23.212900
C -0.827300 -7.267500 -24.167800
C -0.321800 -6.028500 -23.847900
F -0.315400 -6.474400 -21.507500
F -0.233300 -5.336000 -26.122200
C -0.020800 -5.628200 -22.496400
C -0.006700 -5.039100 -24.842000
C 0.540900 -4.447200 -22.195400
C 0.555000 -3.858100 -24.540900
F 0.767500 -4.150300 -20.915200
F 0.849500 -3.011900 -25.529800
C 0.856000 -3.457800 -23.189400
C 1.361500 -2.218800 -22.869600
C 1.526100 -1.158300 -23.824400
N 1.622200 -0.226700 -24.487600
C 1.704100 -1.806200 -21.535300
N 2.014200 -1.389700 -20.514600
86
Fragment
H -7.901800 -16.468200 -24.490800
H -7.508000 -15.927500 -21.213800
H -7.367800 -16.743300 -22.499500
H -7.238800 -15.918000 -25.792100
H -7.156800 -14.049200 -26.732900
C -7.056400 -16.113400 -24.871800
C -6.890100 -16.133400 -21.946100
C -6.665000 -14.848000 -24.127000
C -6.579600 -14.856500 -22.714300
H -6.420500 -14.589900 -20.132000
H -6.335200 -17.938600 -25.557000
H -6.312100 -13.015200 -20.116300
C -6.281400 -13.704900 -24.849800
C -6.256700 -13.737100 -26.370700
H -6.164000 -17.758400 -23.895000
C -6.108800 -13.720000 -22.032300
H -6.081000 -12.787500 -26.717200
C -6.049800 -17.290700 -24.834100
H -6.036200 -17.843700 -21.104100
H -5.998600 -11.051500 -25.604000
C -5.908700 -13.778900 -20.524000
C -5.805200 -12.571200 -24.169400
C -5.724100 -12.580700 -22.759800
C -5.690000 -16.879900 -21.304800
H -5.598200 -10.558300 -22.311400
H -5.518300 -15.671400 -26.952400
H -5.460200 -16.344900 -20.414200
H -5.347800 -11.468900 -21.041400
C -5.272200 -11.378800 -24.948600
C -5.198400 -14.663900 -27.024500
H -5.178100 -10.586700 -24.334000
H -5.160400 -14.409700 -27.987200
C -5.111000 -11.402500 -22.018200
C -4.537300 -17.056400 -25.019200
H -4.488000 -14.049200 -19.050100
H -4.470200 -17.872200 -22.703400
C -4.449900 -13.795000 -20.012800
C -4.376100 -17.080100 -22.088700
H -4.300500 -16.990000 -25.996000
H -4.188100 -12.114000 -26.623100
H -4.130000 -12.787500 -20.084900
H -4.050200 -17.900600 -24.726000
C -3.958300 -11.579000 -25.732600
C -3.924200 -15.878200 -24.277500
C -3.843200 -15.887700 -22.868000
C -3.739700 -14.680000 -26.513400
H -3.649700 -17.407400 -21.433300
H -3.612200 -10.615200 -25.933300
C -3.598500 -11.168200 -22.203200
H -3.567300 -15.671400 -20.320100
C -3.539600 -14.738900 -25.005000
H -3.484300 -10.700500 -23.142400
C -3.391600 -14.721800 -20.666600
C -3.366900 -14.754000 -22.187500
H -3.336200 -15.443700 -26.921000
H -3.313100 -10.520300 -21.480400
H -3.227800 -13.869000 -26.905400
C -3.068700 -13.602400 -24.323000
C -2.983300 -13.610900 -22.910300
C -2.758300 -12.325500 -25.091300
C -2.591900 -12.345500 -22.165600
H -2.491500 -14.409700 -20.304500
H -2.409600 -12.540900 -21.245200
H -2.280500 -11.715600 -24.537800
H -2.140400 -12.531400 -25.823500
H -1.746500 -11.990700 -22.546600
N -1.480100 -8.096600 -26.522800
C -1.169900 -7.680100 -25.502100
N -1.088000 -9.259600 -22.549700
C -0.991900 -8.328000 -23.212900
C -0.827300 -7.267500 -24.167800
C -0.321800 -6.028500 -23.847900
F -0.315400 -6.474400 -21.507500
F -0.233300 -5.336000 -26.122200
C -0.020800 -5.628200 -22.496400
C -0.006700 -5.039100 -24.842000
C 0.540900 -4.447200 -22.195400
C 0.555000 -3.858100 -24.540900
F 0.767500 -4.150300 -20.915200
F 0.849500 -3.011900 -25.529800
C 0.856000 -3.457800 -23.189400
C 1.361500 -2.218800 -22.869600
C 1.526100 -1.158300 -23.824400
N 1.622200 -0.226700 -24.487600
C 1.704100 -1.806200 -21.535300
N 2.014200 -1.389700 -20.514600
