66
Fragment
H -7.901800 -16.468200 -24.490800
H -7.508000 -15.927500 -21.213800
H -7.367800 -16.743300 -22.499500
H -7.238800 -15.918000 -25.792100
H -7.156800 -14.049200 -26.732900
C -7.056400 -16.113400 -24.871800
C -6.890100 -16.133400 -21.946100
C -6.665000 -14.848000 -24.127000
C -6.579600 -14.856500 -22.714300
H -6.420500 -14.589900 -20.132000
H -6.335200 -17.938600 -25.557000
H -6.312100 -13.015200 -20.116300
C -6.281400 -13.704900 -24.849800
C -6.256700 -13.737100 -26.370700
H -6.164000 -17.758400 -23.895000
C -6.108800 -13.720000 -22.032300
H -6.081000 -12.787500 -26.717200
C -6.049800 -17.290700 -24.834100
H -6.036200 -17.843700 -21.104100
H -5.998600 -11.051500 -25.604000
C -5.908700 -13.778900 -20.524000
C -5.805200 -12.571200 -24.169400
C -5.724100 -12.580700 -22.759800
C -5.690000 -16.879900 -21.304800
H -5.598200 -10.558300 -22.311400
H -5.518300 -15.671400 -26.952400
H -5.460200 -16.344900 -20.414200
H -5.347800 -11.468900 -21.041400
C -5.272200 -11.378800 -24.948600
C -5.198400 -14.663900 -27.024500
H -5.178100 -10.586700 -24.334000
H -5.160400 -14.409700 -27.987200
C -5.111000 -11.402500 -22.018200
C -4.537300 -17.056400 -25.019200
H -4.488000 -14.049200 -19.050100
H -4.470200 -17.872200 -22.703400
C -4.449900 -13.795000 -20.012800
C -4.376100 -17.080100 -22.088700
H -4.300500 -16.990000 -25.996000
H -4.188100 -12.114000 -26.623100
H -4.130000 -12.787500 -20.084900
H -4.050200 -17.900600 -24.726000
C -3.958300 -11.579000 -25.732600
C -3.924200 -15.878200 -24.277500
C -3.843200 -15.887700 -22.868000
C -3.739700 -14.680000 -26.513400
H -3.649700 -17.407400 -21.433300
H -3.612200 -10.615200 -25.933300
C -3.598500 -11.168200 -22.203200
H -3.567300 -15.671400 -20.320100
C -3.539600 -14.738900 -25.005000
H -3.484300 -10.700500 -23.142400
C -3.391600 -14.721800 -20.666600
C -3.366900 -14.754000 -22.187500
H -3.336200 -15.443700 -26.921000
H -3.313100 -10.520300 -21.480400
H -3.227800 -13.869000 -26.905400
C -3.068700 -13.602400 -24.323000
C -2.983300 -13.610900 -22.910300
C -2.758300 -12.325500 -25.091300
C -2.591900 -12.345500 -22.165600
H -2.491500 -14.409700 -20.304500
H -2.409600 -12.540900 -21.245200
H -2.280500 -11.715600 -24.537800
H -2.140400 -12.531400 -25.823500
H -1.746500 -11.990700 -22.546600
66
Fragment
H -4.596700 -7.247500 -16.651200
H -4.202800 -7.788300 -13.374300
H -4.062600 -6.972400 -14.660000
H -3.933600 -7.797700 -17.952600
H -3.851700 -9.666500 -18.893300
C -3.751300 -7.602300 -17.032200
C -3.584900 -7.582400 -14.106500
C -3.359900 -8.867800 -16.287500
C -3.274500 -8.859300 -14.874800
H -3.115400 -9.125800 -12.292400
H -3.030000 -5.777200 -17.717400
H -3.007000 -10.700500 -12.276700
C -2.976300 -10.010900 -17.010300
C -2.951600 -9.978600 -18.531100
H -2.858800 -5.957400 -16.055400
C -2.803600 -9.995700 -14.192700
H -2.775900 -10.928200 -18.877700
C -2.744700 -6.425100 -16.994600
H -2.731000 -5.872000 -13.264500
H -2.693500 -12.664200 -17.764400
C -2.603500 -9.936900 -12.684400
C -2.500000 -11.144500 -16.329800
C -2.419000 -11.135000 -14.920200
C -2.384900 -6.835800 -13.465200
H -2.293000 -13.157500 -14.471800
H -2.213200 -8.044400 -19.112800
H -2.155000 -7.370900 -12.574600
H -2.042700 -12.246800 -13.201800
C -1.967100 -12.336900 -17.109000
C -1.893300 -9.051800 -19.185000
H -1.872900 -13.129000 -16.494400
H -1.855200 -9.306100 -20.147700
C -1.805900 -12.313200 -14.178600
C -1.232200 -6.659400 -17.179600
H -1.182800 -9.666500 -11.210600
H -1.165100 -5.843600 -14.863800
C -1.144800 -9.920800 -12.173300
C -1.070900 -6.635700 -14.249200
H -0.995300 -6.725800 -18.156400
H -0.883000 -11.601700 -18.783600
H -0.824900 -10.928200 -12.245400
H -0.745000 -5.815100 -16.886400
C -0.653200 -12.136800 -17.893000
C -0.619100 -7.837600 -16.438000
C -0.538000 -7.828100 -15.028400
C -0.434500 -9.035700 -18.673800
H -0.344600 -6.308400 -13.593800
H -0.307000 -13.100600 -18.093700
C -0.293400 -12.547500 -14.363600
H -0.262200 -8.044400 -12.480600
C -0.234400 -8.976900 -17.165500
H -0.179200 -13.015200 -15.302800
C -0.086500 -8.994000 -12.827100
C -0.061800 -8.961700 -14.348000
H -0.031100 -8.272100 -19.081500
H -0.008000 -13.195400 -13.640800
H 0.077400 -9.846800 -19.065800
C 0.236400 -10.113300 -16.483500
C 0.321800 -10.104800 -15.070800
C 0.546900 -11.390200 -17.251700
C 0.713200 -11.370300 -14.326000
H 0.813600 -9.306100 -12.464900
H 0.895600 -11.174900 -13.405600
H 1.024600 -12.000200 -16.698300
H 1.164800 -11.184300 -17.983900
H 1.558600 -11.725100 -14.707000
132
Fragment
H -7.901800 -16.468200 -24.490800
H -7.508000 -15.927500 -21.213800
H -7.367800 -16.743300 -22.499500
H -7.238800 -15.918000 -25.792100
H -7.156800 -14.049200 -26.732900
C -7.056400 -16.113400 -24.871800
C -6.890100 -16.133400 -21.946100
C -6.665000 -14.848000 -24.127000
C -6.579600 -14.856500 -22.714300
H -6.420500 -14.589900 -20.132000
H -6.335200 -17.938600 -25.557000
H -6.312100 -13.015200 -20.116300
C -6.281400 -13.704900 -24.849800
C -6.256700 -13.737100 -26.370700
H -6.164000 -17.758400 -23.895000
C -6.108800 -13.720000 -22.032300
H -6.081000 -12.787500 -26.717200
C -6.049800 -17.290700 -24.834100
H -6.036200 -17.843700 -21.104100
H -5.998600 -11.051500 -25.604000
C -5.908700 -13.778900 -20.524000
C -5.805200 -12.571200 -24.169400
C -5.724100 -12.580700 -22.759800
C -5.690000 -16.879900 -21.304800
H -5.598200 -10.558300 -22.311400
H -5.518300 -15.671400 -26.952400
H -5.460200 -16.344900 -20.414200
H -5.347800 -11.468900 -21.041400
C -5.272200 -11.378800 -24.948600
C -5.198400 -14.663900 -27.024500
H -5.178100 -10.586700 -24.334000
H -5.160400 -14.409700 -27.987200
C -5.111000 -11.402500 -22.018200
C -4.537300 -17.056400 -25.019200
H -4.488000 -14.049200 -19.050100
H -4.470200 -17.872200 -22.703400
C -4.449900 -13.795000 -20.012800
C -4.376100 -17.080100 -22.088700
H -4.300500 -16.990000 -25.996000
H -4.188100 -12.114000 -26.623100
H -4.130000 -12.787500 -20.084900
H -4.050200 -17.900600 -24.726000
C -3.958300 -11.579000 -25.732600
C -3.924200 -15.878200 -24.277500
C -3.843200 -15.887700 -22.868000
C -3.739700 -14.680000 -26.513400
H -3.649700 -17.407400 -21.433300
H -3.612200 -10.615200 -25.933300
C -3.598500 -11.168200 -22.203200
H -3.567300 -15.671400 -20.320100
C -3.539600 -14.738900 -25.005000
H -3.484300 -10.700500 -23.142400
C -3.391600 -14.721800 -20.666600
C -3.366900 -14.754000 -22.187500
H -3.336200 -15.443700 -26.921000
H -3.313100 -10.520300 -21.480400
H -3.227800 -13.869000 -26.905400
C -3.068700 -13.602400 -24.323000
C -2.983300 -13.610900 -22.910300
C -2.758300 -12.325500 -25.091300
C -2.591900 -12.345500 -22.165600
H -2.491500 -14.409700 -20.304500
H -2.409600 -12.540900 -21.245200
H -2.280500 -11.715600 -24.537800
H -2.140400 -12.531400 -25.823500
H -1.746500 -11.990700 -22.546600
H -4.596700 -7.247500 -16.651200
H -4.202800 -7.788300 -13.374300
H -4.062600 -6.972400 -14.660000
H -3.933600 -7.797700 -17.952600
H -3.851700 -9.666500 -18.893300
C -3.751300 -7.602300 -17.032200
C -3.584900 -7.582400 -14.106500
C -3.359900 -8.867800 -16.287500
C -3.274500 -8.859300 -14.874800
H -3.115400 -9.125800 -12.292400
H -3.030000 -5.777200 -17.717400
H -3.007000 -10.700500 -12.276700
C -2.976300 -10.010900 -17.010300
C -2.951600 -9.978600 -18.531100
H -2.858800 -5.957400 -16.055400
C -2.803600 -9.995700 -14.192700
H -2.775900 -10.928200 -18.877700
C -2.744700 -6.425100 -16.994600
H -2.731000 -5.872000 -13.264500
H -2.693500 -12.664200 -17.764400
C -2.603500 -9.936900 -12.684400
C -2.500000 -11.144500 -16.329800
C -2.419000 -11.135000 -14.920200
C -2.384900 -6.835800 -13.465200
H -2.293000 -13.157500 -14.471800
H -2.213200 -8.044400 -19.112800
H -2.155000 -7.370900 -12.574600
H -2.042700 -12.246800 -13.201800
C -1.967100 -12.336900 -17.109000
C -1.893300 -9.051800 -19.185000
H -1.872900 -13.129000 -16.494400
H -1.855200 -9.306100 -20.147700
C -1.805900 -12.313200 -14.178600
C -1.232200 -6.659400 -17.179600
H -1.182800 -9.666500 -11.210600
H -1.165100 -5.843600 -14.863800
C -1.144800 -9.920800 -12.173300
C -1.070900 -6.635700 -14.249200
H -0.995300 -6.725800 -18.156400
H -0.883000 -11.601700 -18.783600
H -0.824900 -10.928200 -12.245400
H -0.745000 -5.815100 -16.886400
C -0.653200 -12.136800 -17.893000
C -0.619100 -7.837600 -16.438000
C -0.538000 -7.828100 -15.028400
C -0.434500 -9.035700 -18.673800
H -0.344600 -6.308400 -13.593800
H -0.307000 -13.100600 -18.093700
C -0.293400 -12.547500 -14.363600
H -0.262200 -8.044400 -12.480600
C -0.234400 -8.976900 -17.165500
H -0.179200 -13.015200 -15.302800
C -0.086500 -8.994000 -12.827100
C -0.061800 -8.961700 -14.348000
H -0.031100 -8.272100 -19.081500
H -0.008000 -13.195400 -13.640800
H 0.077400 -9.846800 -19.065800
C 0.236400 -10.113300 -16.483500
C 0.321800 -10.104800 -15.070800
C 0.546900 -11.390200 -17.251700
C 0.713200 -11.370300 -14.326000
H 0.813600 -9.306100 -12.464900
H 0.895600 -11.174900 -13.405600
H 1.024600 -12.000200 -16.698300
H 1.164800 -11.184300 -17.983900
H 1.558600 -11.725100 -14.707000
