66
Fragment
H -7.901800 -16.468200 -24.490800
H -7.508000 -15.927500 -21.213800
H -7.367800 -16.743300 -22.499500
H -7.238800 -15.918000 -25.792100
H -7.156800 -14.049200 -26.732900
C -7.056400 -16.113400 -24.871800
C -6.890100 -16.133400 -21.946100
C -6.665000 -14.848000 -24.127000
C -6.579600 -14.856500 -22.714300
H -6.420500 -14.589900 -20.132000
H -6.335200 -17.938600 -25.557000
H -6.312100 -13.015200 -20.116300
C -6.281400 -13.704900 -24.849800
C -6.256700 -13.737100 -26.370700
H -6.164000 -17.758400 -23.895000
C -6.108800 -13.720000 -22.032300
H -6.081000 -12.787500 -26.717200
C -6.049800 -17.290700 -24.834100
H -6.036200 -17.843700 -21.104100
H -5.998600 -11.051500 -25.604000
C -5.908700 -13.778900 -20.524000
C -5.805200 -12.571200 -24.169400
C -5.724100 -12.580700 -22.759800
C -5.690000 -16.879900 -21.304800
H -5.598200 -10.558300 -22.311400
H -5.518300 -15.671400 -26.952400
H -5.460200 -16.344900 -20.414200
H -5.347800 -11.468900 -21.041400
C -5.272200 -11.378800 -24.948600
C -5.198400 -14.663900 -27.024500
H -5.178100 -10.586700 -24.334000
H -5.160400 -14.409700 -27.987200
C -5.111000 -11.402500 -22.018200
C -4.537300 -17.056400 -25.019200
H -4.488000 -14.049200 -19.050100
H -4.470200 -17.872200 -22.703400
C -4.449900 -13.795000 -20.012800
C -4.376100 -17.080100 -22.088700
H -4.300500 -16.990000 -25.996000
H -4.188100 -12.114000 -26.623100
H -4.130000 -12.787500 -20.084900
H -4.050200 -17.900600 -24.726000
C -3.958300 -11.579000 -25.732600
C -3.924200 -15.878200 -24.277500
C -3.843200 -15.887700 -22.868000
C -3.739700 -14.680000 -26.513400
H -3.649700 -17.407400 -21.433300
H -3.612200 -10.615200 -25.933300
C -3.598500 -11.168200 -22.203200
H -3.567300 -15.671400 -20.320100
C -3.539600 -14.738900 -25.005000
H -3.484300 -10.700500 -23.142400
C -3.391600 -14.721800 -20.666600
C -3.366900 -14.754000 -22.187500
H -3.336200 -15.443700 -26.921000
H -3.313100 -10.520300 -21.480400
H -3.227800 -13.869000 -26.905400
C -3.068700 -13.602400 -24.323000
C -2.983300 -13.610900 -22.910300
C -2.758300 -12.325500 -25.091300
C -2.591900 -12.345500 -22.165600
H -2.491500 -14.409700 -20.304500
H -2.409600 -12.540900 -21.245200
H -2.280500 -11.715600 -24.537800
H -2.140400 -12.531400 -25.823500
H -1.746500 -11.990700 -22.546600
66
Fragment
H -7.901800 -6.981900 -24.490800
H -7.508000 -6.441200 -21.213800
H -7.367800 -7.257000 -22.499500
H -7.238800 -6.431700 -25.792100
H -7.156800 -4.562900 -26.732900
C -7.056400 -6.627100 -24.871800
C -6.890100 -6.647100 -21.946100
C -6.665000 -5.361700 -24.127000
C -6.579600 -5.370200 -22.714300
H -6.420500 -5.103600 -20.132000
H -6.335200 -8.452300 -25.557000
H -6.312100 -3.528900 -20.116300
C -6.281400 -4.218600 -24.849800
C -6.256700 -4.250800 -26.370700
H -6.164000 -8.272100 -23.895000
C -6.108800 -4.233700 -22.032300
H -6.081000 -3.301200 -26.717200
C -6.049800 -7.804400 -24.834100
H -6.036200 -8.357400 -21.104100
H -5.998600 -1.565200 -25.604000
C -5.908700 -4.292600 -20.524000
C -5.805200 -3.084900 -24.169400
C -5.724100 -3.094400 -22.759800
C -5.690000 -7.393600 -21.304800
H -5.598200 -1.072000 -22.311400
H -5.518300 -6.185100 -26.952400
H -5.460200 -6.858600 -20.414200
H -5.347800 -1.982600 -21.041400
C -5.272200 -1.892500 -24.948600
C -5.198400 -5.177600 -27.024500
H -5.178100 -1.100400 -24.334000
H -5.160400 -4.923400 -27.987200
C -5.111000 -1.916200 -22.018200
C -4.537300 -7.570100 -25.019200
H -4.488000 -4.562900 -19.050100
H -4.470200 -8.385900 -22.703400
C -4.449900 -4.308700 -20.012800
C -4.376100 -7.593800 -22.088700
H -4.300500 -7.503700 -25.996000
H -4.188100 -2.627700 -26.623100
H -4.130000 -3.301200 -20.084900
H -4.050200 -8.414300 -24.726000
C -3.958300 -2.092700 -25.732600
C -3.924200 -6.391900 -24.277500
C -3.843200 -6.401400 -22.868000
C -3.739700 -5.193700 -26.513400
H -3.649700 -7.921100 -21.433300
H -3.612200 -1.128900 -25.933300
C -3.598500 -1.681900 -22.203200
H -3.567300 -6.185100 -20.320100
C -3.539600 -5.252600 -25.005000
H -3.484300 -1.214200 -23.142400
C -3.391600 -5.235500 -20.666600
C -3.366900 -5.267700 -22.187500
H -3.336200 -5.957400 -26.921000
H -3.313100 -1.034000 -21.480400
H -3.227800 -4.382700 -26.905400
C -3.068700 -4.116100 -24.323000
C -2.983300 -4.124600 -22.910300
C -2.758300 -2.839200 -25.091300
C -2.591900 -2.859200 -22.165600
H -2.491500 -4.923400 -20.304500
H -2.409600 -3.054600 -21.245200
H -2.280500 -2.229300 -24.537800
H -2.140400 -3.045100 -25.823500
H -1.746500 -2.504400 -22.546600
132
Fragment
H -7.901800 -16.468200 -24.490800
H -7.508000 -15.927500 -21.213800
H -7.367800 -16.743300 -22.499500
H -7.238800 -15.918000 -25.792100
H -7.156800 -14.049200 -26.732900
C -7.056400 -16.113400 -24.871800
C -6.890100 -16.133400 -21.946100
C -6.665000 -14.848000 -24.127000
C -6.579600 -14.856500 -22.714300
H -6.420500 -14.589900 -20.132000
H -6.335200 -17.938600 -25.557000
H -6.312100 -13.015200 -20.116300
C -6.281400 -13.704900 -24.849800
C -6.256700 -13.737100 -26.370700
H -6.164000 -17.758400 -23.895000
C -6.108800 -13.720000 -22.032300
H -6.081000 -12.787500 -26.717200
C -6.049800 -17.290700 -24.834100
H -6.036200 -17.843700 -21.104100
H -5.998600 -11.051500 -25.604000
C -5.908700 -13.778900 -20.524000
C -5.805200 -12.571200 -24.169400
C -5.724100 -12.580700 -22.759800
C -5.690000 -16.879900 -21.304800
H -5.598200 -10.558300 -22.311400
H -5.518300 -15.671400 -26.952400
H -5.460200 -16.344900 -20.414200
H -5.347800 -11.468900 -21.041400
C -5.272200 -11.378800 -24.948600
C -5.198400 -14.663900 -27.024500
H -5.178100 -10.586700 -24.334000
H -5.160400 -14.409700 -27.987200
C -5.111000 -11.402500 -22.018200
C -4.537300 -17.056400 -25.019200
H -4.488000 -14.049200 -19.050100
H -4.470200 -17.872200 -22.703400
C -4.449900 -13.795000 -20.012800
C -4.376100 -17.080100 -22.088700
H -4.300500 -16.990000 -25.996000
H -4.188100 -12.114000 -26.623100
H -4.130000 -12.787500 -20.084900
H -4.050200 -17.900600 -24.726000
C -3.958300 -11.579000 -25.732600
C -3.924200 -15.878200 -24.277500
C -3.843200 -15.887700 -22.868000
C -3.739700 -14.680000 -26.513400
H -3.649700 -17.407400 -21.433300
H -3.612200 -10.615200 -25.933300
C -3.598500 -11.168200 -22.203200
H -3.567300 -15.671400 -20.320100
C -3.539600 -14.738900 -25.005000
H -3.484300 -10.700500 -23.142400
C -3.391600 -14.721800 -20.666600
C -3.366900 -14.754000 -22.187500
H -3.336200 -15.443700 -26.921000
H -3.313100 -10.520300 -21.480400
H -3.227800 -13.869000 -26.905400
C -3.068700 -13.602400 -24.323000
C -2.983300 -13.610900 -22.910300
C -2.758300 -12.325500 -25.091300
C -2.591900 -12.345500 -22.165600
H -2.491500 -14.409700 -20.304500
H -2.409600 -12.540900 -21.245200
H -2.280500 -11.715600 -24.537800
H -2.140400 -12.531400 -25.823500
H -1.746500 -11.990700 -22.546600
H -7.901800 -6.981900 -24.490800
H -7.508000 -6.441200 -21.213800
H -7.367800 -7.257000 -22.499500
H -7.238800 -6.431700 -25.792100
H -7.156800 -4.562900 -26.732900
C -7.056400 -6.627100 -24.871800
C -6.890100 -6.647100 -21.946100
C -6.665000 -5.361700 -24.127000
C -6.579600 -5.370200 -22.714300
H -6.420500 -5.103600 -20.132000
H -6.335200 -8.452300 -25.557000
H -6.312100 -3.528900 -20.116300
C -6.281400 -4.218600 -24.849800
C -6.256700 -4.250800 -26.370700
H -6.164000 -8.272100 -23.895000
C -6.108800 -4.233700 -22.032300
H -6.081000 -3.301200 -26.717200
C -6.049800 -7.804400 -24.834100
H -6.036200 -8.357400 -21.104100
H -5.998600 -1.565200 -25.604000
C -5.908700 -4.292600 -20.524000
C -5.805200 -3.084900 -24.169400
C -5.724100 -3.094400 -22.759800
C -5.690000 -7.393600 -21.304800
H -5.598200 -1.072000 -22.311400
H -5.518300 -6.185100 -26.952400
H -5.460200 -6.858600 -20.414200
H -5.347800 -1.982600 -21.041400
C -5.272200 -1.892500 -24.948600
C -5.198400 -5.177600 -27.024500
H -5.178100 -1.100400 -24.334000
H -5.160400 -4.923400 -27.987200
C -5.111000 -1.916200 -22.018200
C -4.537300 -7.570100 -25.019200
H -4.488000 -4.562900 -19.050100
H -4.470200 -8.385900 -22.703400
C -4.449900 -4.308700 -20.012800
C -4.376100 -7.593800 -22.088700
H -4.300500 -7.503700 -25.996000
H -4.188100 -2.627700 -26.623100
H -4.130000 -3.301200 -20.084900
H -4.050200 -8.414300 -24.726000
C -3.958300 -2.092700 -25.732600
C -3.924200 -6.391900 -24.277500
C -3.843200 -6.401400 -22.868000
C -3.739700 -5.193700 -26.513400
H -3.649700 -7.921100 -21.433300
H -3.612200 -1.128900 -25.933300
C -3.598500 -1.681900 -22.203200
H -3.567300 -6.185100 -20.320100
C -3.539600 -5.252600 -25.005000
H -3.484300 -1.214200 -23.142400
C -3.391600 -5.235500 -20.666600
C -3.366900 -5.267700 -22.187500
H -3.336200 -5.957400 -26.921000
H -3.313100 -1.034000 -21.480400
H -3.227800 -4.382700 -26.905400
C -3.068700 -4.116100 -24.323000
C -2.983300 -4.124600 -22.910300
C -2.758300 -2.839200 -25.091300
C -2.591900 -2.859200 -22.165600
H -2.491500 -4.923400 -20.304500
H -2.409600 -3.054600 -21.245200
H -2.280500 -2.229300 -24.537800
H -2.140400 -3.045100 -25.823500
H -1.746500 -2.504400 -22.546600
