66
Fragment
H -7.901800 -16.468200 -24.490800
H -7.508000 -15.927500 -21.213800
H -7.367800 -16.743300 -22.499500
H -7.238800 -15.918000 -25.792100
H -7.156800 -14.049200 -26.732900
C -7.056400 -16.113400 -24.871800
C -6.890100 -16.133400 -21.946100
C -6.665000 -14.848000 -24.127000
C -6.579600 -14.856500 -22.714300
H -6.420500 -14.589900 -20.132000
H -6.335200 -17.938600 -25.557000
H -6.312100 -13.015200 -20.116300
C -6.281400 -13.704900 -24.849800
C -6.256700 -13.737100 -26.370700
H -6.164000 -17.758400 -23.895000
C -6.108800 -13.720000 -22.032300
H -6.081000 -12.787500 -26.717200
C -6.049800 -17.290700 -24.834100
H -6.036200 -17.843700 -21.104100
H -5.998600 -11.051500 -25.604000
C -5.908700 -13.778900 -20.524000
C -5.805200 -12.571200 -24.169400
C -5.724100 -12.580700 -22.759800
C -5.690000 -16.879900 -21.304800
H -5.598200 -10.558300 -22.311400
H -5.518300 -15.671400 -26.952400
H -5.460200 -16.344900 -20.414200
H -5.347800 -11.468900 -21.041400
C -5.272200 -11.378800 -24.948600
C -5.198400 -14.663900 -27.024500
H -5.178100 -10.586700 -24.334000
H -5.160400 -14.409700 -27.987200
C -5.111000 -11.402500 -22.018200
C -4.537300 -17.056400 -25.019200
H -4.488000 -14.049200 -19.050100
H -4.470200 -17.872200 -22.703400
C -4.449900 -13.795000 -20.012800
C -4.376100 -17.080100 -22.088700
H -4.300500 -16.990000 -25.996000
H -4.188100 -12.114000 -26.623100
H -4.130000 -12.787500 -20.084900
H -4.050200 -17.900600 -24.726000
C -3.958300 -11.579000 -25.732600
C -3.924200 -15.878200 -24.277500
C -3.843200 -15.887700 -22.868000
C -3.739700 -14.680000 -26.513400
H -3.649700 -17.407400 -21.433300
H -3.612200 -10.615200 -25.933300
C -3.598500 -11.168200 -22.203200
H -3.567300 -15.671400 -20.320100
C -3.539600 -14.738900 -25.005000
H -3.484300 -10.700500 -23.142400
C -3.391600 -14.721800 -20.666600
C -3.366900 -14.754000 -22.187500
H -3.336200 -15.443700 -26.921000
H -3.313100 -10.520300 -21.480400
H -3.227800 -13.869000 -26.905400
C -3.068700 -13.602400 -24.323000
C -2.983300 -13.610900 -22.910300
C -2.758300 -12.325500 -25.091300
C -2.591900 -12.345500 -22.165600
H -2.491500 -14.409700 -20.304500
H -2.409600 -12.540900 -21.245200
H -2.280500 -11.715600 -24.537800
H -2.140400 -12.531400 -25.823500
H -1.746500 -11.990700 -22.546600
66
Fragment
H -11.207000 -16.733800 -32.330300
H -10.813100 -17.274600 -29.053400
H -10.672900 -16.458700 -30.339100
H -10.543900 -17.284000 -33.631700
H -10.461900 -19.152800 -34.572400
C -10.361600 -17.088600 -32.711300
C -10.195200 -17.068700 -29.785600
C -9.970200 -18.354100 -31.966600
C -9.884700 -18.345600 -30.553900
H -9.725700 -18.612100 -27.971500
H -9.640300 -15.263500 -33.396500
H -9.617300 -20.186800 -27.955900
C -9.586600 -19.497200 -32.689400
C -9.561800 -19.464900 -34.210300
H -9.469100 -15.443700 -31.734500
C -9.413900 -19.482000 -29.871800
H -9.386200 -20.414500 -34.556800
C -9.354900 -15.911400 -32.673700
H -9.341300 -15.358300 -28.943600
H -9.303800 -22.150500 -33.443500
C -9.213800 -19.423200 -28.363500
C -9.110300 -20.630800 -32.008900
C -9.029200 -20.621300 -30.599400
C -8.995200 -16.322100 -29.144300
H -8.903300 -22.643800 -30.150900
H -8.823400 -17.530700 -34.792000
H -8.765300 -16.857200 -28.253800
H -8.653000 -21.733100 -28.880900
C -8.577400 -21.823200 -32.788200
C -8.503600 -18.538100 -34.864100
H -8.483200 -22.615300 -32.173500
H -8.465500 -18.792400 -35.826800
C -8.416200 -21.799500 -29.857700
C -7.842400 -16.145700 -32.858700
H -7.793100 -19.152800 -26.889700
H -7.775400 -15.329900 -30.542900
C -7.755000 -19.407100 -27.852400
C -7.681200 -16.122000 -29.928300
H -7.605600 -16.212100 -33.835500
H -7.493300 -21.088000 -34.462700
H -7.435200 -20.414500 -27.924500
H -7.355300 -15.301400 -32.565500
C -7.263400 -21.623100 -33.572100
C -7.229400 -17.323900 -32.117100
C -7.148300 -17.314400 -30.707500
C -7.044800 -18.522000 -34.352900
H -6.954800 -15.794700 -29.272900
H -6.917300 -22.586900 -33.772800
C -6.903700 -22.033800 -30.042700
H -6.872500 -17.530700 -28.159700
C -6.844700 -18.463200 -32.844600
H -6.789500 -22.501500 -30.981900
C -6.696800 -18.480300 -28.506200
C -6.672000 -18.448000 -30.027100
H -6.641400 -17.758400 -34.760600
H -6.618300 -22.681700 -29.319900
H -6.532900 -19.333100 -34.744900
C -6.373900 -19.599600 -32.162600
C -6.288400 -19.591100 -30.749900
C -6.063400 -20.876500 -32.930800
C -5.897100 -20.856600 -30.005100
H -5.796700 -18.792400 -28.144000
H -5.714700 -20.661200 -29.084800
H -5.585700 -21.486500 -32.377400
H -5.445500 -20.670600 -33.663100
H -5.051700 -21.211400 -30.386100
132
Fragment
H -7.901800 -16.468200 -24.490800
H -7.508000 -15.927500 -21.213800
H -7.367800 -16.743300 -22.499500
H -7.238800 -15.918000 -25.792100
H -7.156800 -14.049200 -26.732900
C -7.056400 -16.113400 -24.871800
C -6.890100 -16.133400 -21.946100
C -6.665000 -14.848000 -24.127000
C -6.579600 -14.856500 -22.714300
H -6.420500 -14.589900 -20.132000
H -6.335200 -17.938600 -25.557000
H -6.312100 -13.015200 -20.116300
C -6.281400 -13.704900 -24.849800
C -6.256700 -13.737100 -26.370700
H -6.164000 -17.758400 -23.895000
C -6.108800 -13.720000 -22.032300
H -6.081000 -12.787500 -26.717200
C -6.049800 -17.290700 -24.834100
H -6.036200 -17.843700 -21.104100
H -5.998600 -11.051500 -25.604000
C -5.908700 -13.778900 -20.524000
C -5.805200 -12.571200 -24.169400
C -5.724100 -12.580700 -22.759800
C -5.690000 -16.879900 -21.304800
H -5.598200 -10.558300 -22.311400
H -5.518300 -15.671400 -26.952400
H -5.460200 -16.344900 -20.414200
H -5.347800 -11.468900 -21.041400
C -5.272200 -11.378800 -24.948600
C -5.198400 -14.663900 -27.024500
H -5.178100 -10.586700 -24.334000
H -5.160400 -14.409700 -27.987200
C -5.111000 -11.402500 -22.018200
C -4.537300 -17.056400 -25.019200
H -4.488000 -14.049200 -19.050100
H -4.470200 -17.872200 -22.703400
C -4.449900 -13.795000 -20.012800
C -4.376100 -17.080100 -22.088700
H -4.300500 -16.990000 -25.996000
H -4.188100 -12.114000 -26.623100
H -4.130000 -12.787500 -20.084900
H -4.050200 -17.900600 -24.726000
C -3.958300 -11.579000 -25.732600
C -3.924200 -15.878200 -24.277500
C -3.843200 -15.887700 -22.868000
C -3.739700 -14.680000 -26.513400
H -3.649700 -17.407400 -21.433300
H -3.612200 -10.615200 -25.933300
C -3.598500 -11.168200 -22.203200
H -3.567300 -15.671400 -20.320100
C -3.539600 -14.738900 -25.005000
H -3.484300 -10.700500 -23.142400
C -3.391600 -14.721800 -20.666600
C -3.366900 -14.754000 -22.187500
H -3.336200 -15.443700 -26.921000
H -3.313100 -10.520300 -21.480400
H -3.227800 -13.869000 -26.905400
C -3.068700 -13.602400 -24.323000
C -2.983300 -13.610900 -22.910300
C -2.758300 -12.325500 -25.091300
C -2.591900 -12.345500 -22.165600
H -2.491500 -14.409700 -20.304500
H -2.409600 -12.540900 -21.245200
H -2.280500 -11.715600 -24.537800
H -2.140400 -12.531400 -25.823500
H -1.746500 -11.990700 -22.546600
H -11.207000 -16.733800 -32.330300
H -10.813100 -17.274600 -29.053400
H -10.672900 -16.458700 -30.339100
H -10.543900 -17.284000 -33.631700
H -10.461900 -19.152800 -34.572400
C -10.361600 -17.088600 -32.711300
C -10.195200 -17.068700 -29.785600
C -9.970200 -18.354100 -31.966600
C -9.884700 -18.345600 -30.553900
H -9.725700 -18.612100 -27.971500
H -9.640300 -15.263500 -33.396500
H -9.617300 -20.186800 -27.955900
C -9.586600 -19.497200 -32.689400
C -9.561800 -19.464900 -34.210300
H -9.469100 -15.443700 -31.734500
C -9.413900 -19.482000 -29.871800
H -9.386200 -20.414500 -34.556800
C -9.354900 -15.911400 -32.673700
H -9.341300 -15.358300 -28.943600
H -9.303800 -22.150500 -33.443500
C -9.213800 -19.423200 -28.363500
C -9.110300 -20.630800 -32.008900
C -9.029200 -20.621300 -30.599400
C -8.995200 -16.322100 -29.144300
H -8.903300 -22.643800 -30.150900
H -8.823400 -17.530700 -34.792000
H -8.765300 -16.857200 -28.253800
H -8.653000 -21.733100 -28.880900
C -8.577400 -21.823200 -32.788200
C -8.503600 -18.538100 -34.864100
H -8.483200 -22.615300 -32.173500
H -8.465500 -18.792400 -35.826800
C -8.416200 -21.799500 -29.857700
C -7.842400 -16.145700 -32.858700
H -7.793100 -19.152800 -26.889700
H -7.775400 -15.329900 -30.542900
C -7.755000 -19.407100 -27.852400
C -7.681200 -16.122000 -29.928300
H -7.605600 -16.212100 -33.835500
H -7.493300 -21.088000 -34.462700
H -7.435200 -20.414500 -27.924500
H -7.355300 -15.301400 -32.565500
C -7.263400 -21.623100 -33.572100
C -7.229400 -17.323900 -32.117100
C -7.148300 -17.314400 -30.707500
C -7.044800 -18.522000 -34.352900
H -6.954800 -15.794700 -29.272900
H -6.917300 -22.586900 -33.772800
C -6.903700 -22.033800 -30.042700
H -6.872500 -17.530700 -28.159700
C -6.844700 -18.463200 -32.844600
H -6.789500 -22.501500 -30.981900
C -6.696800 -18.480300 -28.506200
C -6.672000 -18.448000 -30.027100
H -6.641400 -17.758400 -34.760600
H -6.618300 -22.681700 -29.319900
H -6.532900 -19.333100 -34.744900
C -6.373900 -19.599600 -32.162600
C -6.288400 -19.591100 -30.749900
C -6.063400 -20.876500 -32.930800
C -5.897100 -20.856600 -30.005100
H -5.796700 -18.792400 -28.144000
H -5.714700 -20.661200 -29.084800
H -5.585700 -21.486500 -32.377400
H -5.445500 -20.670600 -33.663100
H -5.051700 -21.211400 -30.386100
