15
Fragment
O -10.523400 -20.320700 -12.252500
N -9.467600 -20.882200 -11.941700
O -9.289600 -22.108100 -12.005300
H -9.215400 -18.214100 -11.653900
N -8.499600 -18.741600 -11.422500
C -8.400700 -20.096200 -11.491800
N -7.401900 -18.197900 -10.941900
C -7.133200 -20.493200 -11.047100
H -7.066000 -22.447400 -11.216500
N -6.597600 -21.718500 -10.992500
C -6.582200 -19.232100 -10.709900
H -5.803600 -21.843600 -10.674700
N -5.308000 -19.002800 -10.122400
O -5.000600 -17.870100 -9.770800
O -4.579800 -19.996200 -9.994300
11
Fragment
O -14.385300 -25.154700 -14.093400
N -14.044700 -23.799100 -14.004400
N -13.329800 -25.936900 -13.594600
C -12.848100 -23.751600 -13.488500
H -12.536100 -21.895300 -13.324600
C -12.399300 -25.101000 -13.228700
N -12.120100 -22.632000 -13.273900
H -11.407900 -22.679900 -12.680200
N -11.234800 -25.441100 -12.635500
H -11.042500 -26.256400 -12.550600
H -10.612000 -24.891100 -12.614100
26
Fragment
O -10.523400 -20.320700 -12.252500
N -9.467600 -20.882200 -11.941700
O -9.289600 -22.108100 -12.005300
H -9.215400 -18.214100 -11.653900
N -8.499600 -18.741600 -11.422500
C -8.400700 -20.096200 -11.491800
N -7.401900 -18.197900 -10.941900
C -7.133200 -20.493200 -11.047100
H -7.066000 -22.447400 -11.216500
N -6.597600 -21.718500 -10.992500
C -6.582200 -19.232100 -10.709900
H -5.803600 -21.843600 -10.674700
N -5.308000 -19.002800 -10.122400
O -5.000600 -17.870100 -9.770800
O -4.579800 -19.996200 -9.994300
O -14.385300 -25.154700 -14.093400
N -14.044700 -23.799100 -14.004400
N -13.329800 -25.936900 -13.594600
C -12.848100 -23.751600 -13.488500
H -12.536100 -21.895300 -13.324600
C -12.399300 -25.101000 -13.228700
N -12.120100 -22.632000 -13.273900
H -11.407900 -22.679900 -12.680200
N -11.234800 -25.441100 -12.635500
H -11.042500 -26.256400 -12.550600
H -10.612000 -24.891100 -12.614100
