15
Fragment
O -10.523400 -20.320700 -12.252500
N -9.467600 -20.882200 -11.941700
O -9.289600 -22.108100 -12.005300
H -9.215400 -18.214100 -11.653900
N -8.499600 -18.741600 -11.422500
C -8.400700 -20.096200 -11.491800
N -7.401900 -18.197900 -10.941900
C -7.133200 -20.493200 -11.047100
H -7.066000 -22.447400 -11.216500
N -6.597600 -21.718500 -10.992500
C -6.582200 -19.232100 -10.709900
H -5.803600 -21.843600 -10.674700
N -5.308000 -19.002800 -10.122400
O -5.000600 -17.870100 -9.770800
O -4.579800 -19.996200 -9.994300
11
Fragment
H -11.337900 -18.091700 -9.128300
H -10.907400 -19.457000 -9.191800
N -10.715100 -18.641800 -9.106900
H -10.542000 -15.880600 -9.062200
N -9.829800 -15.832700 -8.468500
C -9.550600 -18.301700 -8.513700
H -9.413800 -15.095900 -8.417800
C -9.101700 -16.952300 -8.253900
N -8.620100 -19.137600 -8.147800
N -7.905200 -16.999700 -7.738000
O -7.564600 -18.355400 -7.649000
26
Fragment
O -10.523400 -20.320700 -12.252500
N -9.467600 -20.882200 -11.941700
O -9.289600 -22.108100 -12.005300
H -9.215400 -18.214100 -11.653900
N -8.499600 -18.741600 -11.422500
C -8.400700 -20.096200 -11.491800
N -7.401900 -18.197900 -10.941900
C -7.133200 -20.493200 -11.047100
H -7.066000 -22.447400 -11.216500
N -6.597600 -21.718500 -10.992500
C -6.582200 -19.232100 -10.709900
H -5.803600 -21.843600 -10.674700
N -5.308000 -19.002800 -10.122400
O -5.000600 -17.870100 -9.770800
O -4.579800 -19.996200 -9.994300
H -11.337900 -18.091700 -9.128300
H -10.907400 -19.457000 -9.191800
N -10.715100 -18.641800 -9.106900
H -10.542000 -15.880600 -9.062200
N -9.829800 -15.832700 -8.468500
C -9.550600 -18.301700 -8.513700
H -9.413800 -15.095900 -8.417800
C -9.101700 -16.952300 -8.253900
N -8.620100 -19.137600 -8.147800
N -7.905200 -16.999700 -7.738000
O -7.564600 -18.355400 -7.649000
