30
Fragment
H -16.102100 -17.297000 -12.589200
N -15.602800 -15.415300 -12.720400
N -15.472200 -16.742100 -12.913500
H -14.606700 -19.119200 -13.527800
C -14.499900 -14.886200 -13.269000
N -14.406400 -13.497800 -13.219200
C -14.334200 -17.075200 -13.561100
C -13.948700 -18.477900 -13.889300
H -13.903700 -18.622600 -14.884000
C -13.667900 -15.891500 -13.810100
H -13.524800 -11.889800 -13.743100
C -13.492900 -12.846100 -13.837500
H -13.067200 -18.685900 -13.551600
C -12.389300 -13.275000 -14.681100
C -12.288100 -15.837900 -14.385000
H -12.203900 -16.524700 -15.104300
N -11.955400 -14.538000 -14.985000
N -11.632900 -12.362400 -15.293900
C -11.235300 -16.158400 -13.345500
N -10.965500 -15.401600 -12.299100
C -10.860900 -14.400000 -15.797200
C -10.685000 -13.063400 -15.980800
H -10.512500 -17.920200 -14.038700
N -10.437400 -17.243700 -13.403600
H -10.360400 -15.174500 -16.124200
H -9.990700 -12.624400 -16.531000
C -9.927300 -16.047500 -11.651000
C -9.594600 -17.183900 -12.317900
H -9.527900 -15.677800 -10.860900
H -8.958000 -17.891800 -12.139800
30
Fragment
H -21.550900 -19.874600 -17.624300
H -20.981100 -22.088600 -18.903200
C -20.914300 -20.582500 -17.446200
C -20.581600 -21.718900 -18.113100
H -20.518200 -25.142000 -13.233100
H -20.148600 -22.591900 -13.639900
N -20.071500 -20.522700 -16.360500
H -19.996400 -19.846200 -15.725400
C -19.824000 -24.703000 -13.783300
C -19.648100 -23.366400 -13.966900
N -19.543400 -22.364800 -17.465000
C -19.273700 -21.608000 -16.418600
N -18.876000 -25.404000 -14.470200
N -18.553500 -23.228400 -14.779100
H -18.305000 -21.241700 -14.659800
C -18.220900 -21.928500 -15.379100
C -18.119600 -24.491400 -15.083000
H -17.441800 -19.080500 -16.212500
C -17.016000 -24.920300 -15.926600
H -16.984200 -25.876600 -16.021000
C -16.841000 -21.874900 -15.954000
H -16.605200 -19.143800 -14.880100
C -16.560300 -19.288500 -15.874800
C -16.174800 -20.691200 -16.203000
N -16.102500 -24.268600 -16.544900
C -16.009100 -22.880200 -16.495100
H -15.902200 -18.647200 -16.236300
N -15.036800 -21.024300 -16.850700
N -14.906200 -22.351100 -17.043700
H -14.406800 -20.469400 -17.174900
60
Fragment
H -16.102100 -17.297000 -12.589200
N -15.602800 -15.415300 -12.720400
N -15.472200 -16.742100 -12.913500
H -14.606700 -19.119200 -13.527800
C -14.499900 -14.886200 -13.269000
N -14.406400 -13.497800 -13.219200
C -14.334200 -17.075200 -13.561100
C -13.948700 -18.477900 -13.889300
H -13.903700 -18.622600 -14.884000
C -13.667900 -15.891500 -13.810100
H -13.524800 -11.889800 -13.743100
C -13.492900 -12.846100 -13.837500
H -13.067200 -18.685900 -13.551600
C -12.389300 -13.275000 -14.681100
C -12.288100 -15.837900 -14.385000
H -12.203900 -16.524700 -15.104300
N -11.955400 -14.538000 -14.985000
N -11.632900 -12.362400 -15.293900
C -11.235300 -16.158400 -13.345500
N -10.965500 -15.401600 -12.299100
C -10.860900 -14.400000 -15.797200
C -10.685000 -13.063400 -15.980800
H -10.512500 -17.920200 -14.038700
N -10.437400 -17.243700 -13.403600
H -10.360400 -15.174500 -16.124200
H -9.990700 -12.624400 -16.531000
C -9.927300 -16.047500 -11.651000
C -9.594600 -17.183900 -12.317900
H -9.527900 -15.677800 -10.860900
H -8.958000 -17.891800 -12.139800
H -21.550900 -19.874600 -17.624300
H -20.981100 -22.088600 -18.903200
C -20.914300 -20.582500 -17.446200
C -20.581600 -21.718900 -18.113100
H -20.518200 -25.142000 -13.233100
H -20.148600 -22.591900 -13.639900
N -20.071500 -20.522700 -16.360500
H -19.996400 -19.846200 -15.725400
C -19.824000 -24.703000 -13.783300
C -19.648100 -23.366400 -13.966900
N -19.543400 -22.364800 -17.465000
C -19.273700 -21.608000 -16.418600
N -18.876000 -25.404000 -14.470200
N -18.553500 -23.228400 -14.779100
H -18.305000 -21.241700 -14.659800
C -18.220900 -21.928500 -15.379100
C -18.119600 -24.491400 -15.083000
H -17.441800 -19.080500 -16.212500
C -17.016000 -24.920300 -15.926600
H -16.984200 -25.876600 -16.021000
C -16.841000 -21.874900 -15.954000
H -16.605200 -19.143800 -14.880100
C -16.560300 -19.288500 -15.874800
C -16.174800 -20.691200 -16.203000
N -16.102500 -24.268600 -16.544900
C -16.009100 -22.880200 -16.495100
H -15.902200 -18.647200 -16.236300
N -15.036800 -21.024300 -16.850700
N -14.906200 -22.351100 -17.043700
H -14.406800 -20.469400 -17.174900
