30
Fragment
H -16.102100 -17.297000 -12.589200
N -15.602800 -15.415300 -12.720400
N -15.472200 -16.742100 -12.913500
H -14.606700 -19.119200 -13.527800
C -14.499900 -14.886200 -13.269000
N -14.406400 -13.497800 -13.219200
C -14.334200 -17.075200 -13.561100
C -13.948700 -18.477900 -13.889300
H -13.903700 -18.622600 -14.884000
C -13.667900 -15.891500 -13.810100
H -13.524800 -11.889800 -13.743100
C -13.492900 -12.846100 -13.837500
H -13.067200 -18.685900 -13.551600
C -12.389300 -13.275000 -14.681100
C -12.288100 -15.837900 -14.385000
H -12.203900 -16.524700 -15.104300
N -11.955400 -14.538000 -14.985000
N -11.632900 -12.362400 -15.293900
C -11.235300 -16.158400 -13.345500
N -10.965500 -15.401600 -12.299100
C -10.860900 -14.400000 -15.797200
C -10.685000 -13.063400 -15.980800
H -10.512500 -17.920200 -14.038700
N -10.437400 -17.243700 -13.403600
H -10.360400 -15.174500 -16.124200
H -9.990700 -12.624400 -16.531000
C -9.927300 -16.047500 -11.651000
C -9.594600 -17.183900 -12.317900
H -9.527900 -15.677800 -10.860900
H -8.958000 -17.891800 -12.139800
30
Fragment
H -14.588000 -6.307000 -17.549900
N -14.088700 -8.188700 -17.681100
N -13.958100 -6.861900 -17.874100
H -13.092600 -4.484800 -18.488500
C -12.985800 -8.717800 -18.229700
N -12.892400 -10.106200 -18.179900
C -12.820100 -6.528800 -18.521800
C -12.434600 -5.126100 -18.850000
H -12.389600 -4.981400 -19.844700
C -12.153900 -7.712500 -18.770800
H -12.010700 -11.714200 -18.703800
C -11.978800 -10.757900 -18.798200
H -11.553100 -4.918100 -18.512300
C -10.875200 -10.329000 -19.641800
C -10.774000 -7.766100 -19.345700
H -10.689900 -7.079300 -20.065000
N -10.441300 -9.066000 -19.945700
N -10.118900 -11.241600 -20.254600
C -9.721200 -7.445600 -18.306200
N -9.451400 -8.202400 -17.259800
C -9.346800 -9.204000 -20.757900
C -9.170900 -10.540600 -20.941500
H -8.998500 -5.683800 -18.999400
N -8.923300 -6.360300 -18.364300
H -8.846300 -8.429500 -21.084900
H -8.476700 -10.979600 -21.491700
C -8.413300 -7.556500 -16.611600
C -8.080500 -6.420100 -17.278600
H -8.013800 -7.926200 -15.821600
H -7.444000 -5.712200 -17.100500
60
Fragment
H -16.102100 -17.297000 -12.589200
N -15.602800 -15.415300 -12.720400
N -15.472200 -16.742100 -12.913500
H -14.606700 -19.119200 -13.527800
C -14.499900 -14.886200 -13.269000
N -14.406400 -13.497800 -13.219200
C -14.334200 -17.075200 -13.561100
C -13.948700 -18.477900 -13.889300
H -13.903700 -18.622600 -14.884000
C -13.667900 -15.891500 -13.810100
H -13.524800 -11.889800 -13.743100
C -13.492900 -12.846100 -13.837500
H -13.067200 -18.685900 -13.551600
C -12.389300 -13.275000 -14.681100
C -12.288100 -15.837900 -14.385000
H -12.203900 -16.524700 -15.104300
N -11.955400 -14.538000 -14.985000
N -11.632900 -12.362400 -15.293900
C -11.235300 -16.158400 -13.345500
N -10.965500 -15.401600 -12.299100
C -10.860900 -14.400000 -15.797200
C -10.685000 -13.063400 -15.980800
H -10.512500 -17.920200 -14.038700
N -10.437400 -17.243700 -13.403600
H -10.360400 -15.174500 -16.124200
H -9.990700 -12.624400 -16.531000
C -9.927300 -16.047500 -11.651000
C -9.594600 -17.183900 -12.317900
H -9.527900 -15.677800 -10.860900
H -8.958000 -17.891800 -12.139800
H -14.588000 -6.307000 -17.549900
N -14.088700 -8.188700 -17.681100
N -13.958100 -6.861900 -17.874100
H -13.092600 -4.484800 -18.488500
C -12.985800 -8.717800 -18.229700
N -12.892400 -10.106200 -18.179900
C -12.820100 -6.528800 -18.521800
C -12.434600 -5.126100 -18.850000
H -12.389600 -4.981400 -19.844700
C -12.153900 -7.712500 -18.770800
H -12.010700 -11.714200 -18.703800
C -11.978800 -10.757900 -18.798200
H -11.553100 -4.918100 -18.512300
C -10.875200 -10.329000 -19.641800
C -10.774000 -7.766100 -19.345700
H -10.689900 -7.079300 -20.065000
N -10.441300 -9.066000 -19.945700
N -10.118900 -11.241600 -20.254600
C -9.721200 -7.445600 -18.306200
N -9.451400 -8.202400 -17.259800
C -9.346800 -9.204000 -20.757900
C -9.170900 -10.540600 -20.941500
H -8.998500 -5.683800 -18.999400
N -8.923300 -6.360300 -18.364300
H -8.846300 -8.429500 -21.084900
H -8.476700 -10.979600 -21.491700
C -8.413300 -7.556500 -16.611600
C -8.080500 -6.420100 -17.278600
H -8.013800 -7.926200 -15.821600
H -7.444000 -5.712200 -17.100500
