30
Fragment
H -16.102100 -17.297000 -12.589200
N -15.602800 -15.415300 -12.720400
N -15.472200 -16.742100 -12.913500
H -14.606700 -19.119200 -13.527800
C -14.499900 -14.886200 -13.269000
N -14.406400 -13.497800 -13.219200
C -14.334200 -17.075200 -13.561100
C -13.948700 -18.477900 -13.889300
H -13.903700 -18.622600 -14.884000
C -13.667900 -15.891500 -13.810100
H -13.524800 -11.889800 -13.743100
C -13.492900 -12.846100 -13.837500
H -13.067200 -18.685900 -13.551600
C -12.389300 -13.275000 -14.681100
C -12.288100 -15.837900 -14.385000
H -12.203900 -16.524700 -15.104300
N -11.955400 -14.538000 -14.985000
N -11.632900 -12.362400 -15.293900
C -11.235300 -16.158400 -13.345500
N -10.965500 -15.401600 -12.299100
C -10.860900 -14.400000 -15.797200
C -10.685000 -13.063400 -15.980800
H -10.512500 -17.920200 -14.038700
N -10.437400 -17.243700 -13.403600
H -10.360400 -15.174500 -16.124200
H -9.990700 -12.624400 -16.531000
C -9.927300 -16.047500 -11.651000
C -9.594600 -17.183900 -12.317900
H -9.527900 -15.677800 -10.860900
H -8.958000 -17.891800 -12.139800
30
Fragment
H -23.065000 -22.612600 -12.663600
H -22.495200 -20.398600 -13.942500
C -22.428400 -21.904700 -12.485500
C -22.095700 -20.768300 -13.152500
H -22.032300 -17.345200 -8.272400
H -21.662600 -19.895300 -8.679200
N -21.585600 -21.964500 -11.399900
H -21.510500 -22.641000 -10.764700
C -21.338000 -17.784200 -8.822600
C -21.162100 -19.120800 -9.006200
N -21.057500 -20.122400 -12.504300
C -20.787800 -20.879200 -11.457900
N -20.390100 -17.083200 -9.509500
N -20.067600 -19.258800 -9.818400
H -19.819100 -21.245500 -9.699100
C -19.734900 -20.558700 -10.418400
C -19.633700 -17.995800 -10.122300
H -18.955800 -23.406700 -11.251800
C -18.530100 -17.566900 -10.965900
H -18.498200 -16.610600 -11.060300
C -18.355100 -20.612300 -10.993300
H -18.119300 -23.343400 -9.919400
C -18.074400 -23.198700 -10.914100
C -17.688900 -21.796000 -11.242300
N -17.616600 -18.218600 -11.584200
C -17.523200 -19.607000 -11.534400
H -17.416300 -23.840000 -11.275600
N -16.550800 -21.462900 -11.890000
N -16.420200 -20.136100 -12.083000
H -15.920900 -22.017800 -12.214200
60
Fragment
H -16.102100 -17.297000 -12.589200
N -15.602800 -15.415300 -12.720400
N -15.472200 -16.742100 -12.913500
H -14.606700 -19.119200 -13.527800
C -14.499900 -14.886200 -13.269000
N -14.406400 -13.497800 -13.219200
C -14.334200 -17.075200 -13.561100
C -13.948700 -18.477900 -13.889300
H -13.903700 -18.622600 -14.884000
C -13.667900 -15.891500 -13.810100
H -13.524800 -11.889800 -13.743100
C -13.492900 -12.846100 -13.837500
H -13.067200 -18.685900 -13.551600
C -12.389300 -13.275000 -14.681100
C -12.288100 -15.837900 -14.385000
H -12.203900 -16.524700 -15.104300
N -11.955400 -14.538000 -14.985000
N -11.632900 -12.362400 -15.293900
C -11.235300 -16.158400 -13.345500
N -10.965500 -15.401600 -12.299100
C -10.860900 -14.400000 -15.797200
C -10.685000 -13.063400 -15.980800
H -10.512500 -17.920200 -14.038700
N -10.437400 -17.243700 -13.403600
H -10.360400 -15.174500 -16.124200
H -9.990700 -12.624400 -16.531000
C -9.927300 -16.047500 -11.651000
C -9.594600 -17.183900 -12.317900
H -9.527900 -15.677800 -10.860900
H -8.958000 -17.891800 -12.139800
H -23.065000 -22.612600 -12.663600
H -22.495200 -20.398600 -13.942500
C -22.428400 -21.904700 -12.485500
C -22.095700 -20.768300 -13.152500
H -22.032300 -17.345200 -8.272400
H -21.662600 -19.895300 -8.679200
N -21.585600 -21.964500 -11.399900
H -21.510500 -22.641000 -10.764700
C -21.338000 -17.784200 -8.822600
C -21.162100 -19.120800 -9.006200
N -21.057500 -20.122400 -12.504300
C -20.787800 -20.879200 -11.457900
N -20.390100 -17.083200 -9.509500
N -20.067600 -19.258800 -9.818400
H -19.819100 -21.245500 -9.699100
C -19.734900 -20.558700 -10.418400
C -19.633700 -17.995800 -10.122300
H -18.955800 -23.406700 -11.251800
C -18.530100 -17.566900 -10.965900
H -18.498200 -16.610600 -11.060300
C -18.355100 -20.612300 -10.993300
H -18.119300 -23.343400 -9.919400
C -18.074400 -23.198700 -10.914100
C -17.688900 -21.796000 -11.242300
N -17.616600 -18.218600 -11.584200
C -17.523200 -19.607000 -11.534400
H -17.416300 -23.840000 -11.275600
N -16.550800 -21.462900 -11.890000
N -16.420200 -20.136100 -12.083000
H -15.920900 -22.017800 -12.214200
