30
Fragment
H -16.102100 -17.297000 -12.589200
N -15.602800 -15.415300 -12.720400
N -15.472200 -16.742100 -12.913500
H -14.606700 -19.119200 -13.527800
C -14.499900 -14.886200 -13.269000
N -14.406400 -13.497800 -13.219200
C -14.334200 -17.075200 -13.561100
C -13.948700 -18.477900 -13.889300
H -13.903700 -18.622600 -14.884000
C -13.667900 -15.891500 -13.810100
H -13.524800 -11.889800 -13.743100
C -13.492900 -12.846100 -13.837500
H -13.067200 -18.685900 -13.551600
C -12.389300 -13.275000 -14.681100
C -12.288100 -15.837900 -14.385000
H -12.203900 -16.524700 -15.104300
N -11.955400 -14.538000 -14.985000
N -11.632900 -12.362400 -15.293900
C -11.235300 -16.158400 -13.345500
N -10.965500 -15.401600 -12.299100
C -10.860900 -14.400000 -15.797200
C -10.685000 -13.063400 -15.980800
H -10.512500 -17.920200 -14.038700
N -10.437400 -17.243700 -13.403600
H -10.360400 -15.174500 -16.124200
H -9.990700 -12.624400 -16.531000
C -9.927300 -16.047500 -11.651000
C -9.594600 -17.183900 -12.317900
H -9.527900 -15.677800 -10.860900
H -8.958000 -17.891800 -12.139800
30
Fragment
H -23.065000 -13.171000 -12.663600
H -22.495200 -10.957000 -13.942500
C -22.428400 -12.463100 -12.485500
C -22.095700 -11.326700 -13.152500
H -22.032300 -7.903600 -8.272400
H -21.662600 -10.453700 -8.679200
N -21.585600 -12.522900 -11.399900
H -21.510500 -13.199400 -10.764700
C -21.338000 -8.342600 -8.822600
C -21.162100 -9.679200 -9.006200
N -21.057500 -10.680800 -12.504300
C -20.787800 -11.437600 -11.457900
N -20.390100 -7.641600 -9.509500
N -20.067600 -9.817200 -9.818400
H -19.819100 -11.803900 -9.699100
C -19.734900 -11.117100 -10.418400
C -19.633700 -8.554200 -10.122300
H -18.955800 -13.965100 -11.251800
C -18.530100 -8.125300 -10.965900
H -18.498200 -7.169000 -11.060300
C -18.355100 -11.170700 -10.993300
H -18.119300 -13.901800 -9.919400
C -18.074400 -13.757100 -10.914100
C -17.688900 -12.354400 -11.242300
N -17.616600 -8.777000 -11.584200
C -17.523200 -10.165400 -11.534400
H -17.416300 -14.398400 -11.275600
N -16.550800 -12.021300 -11.890000
N -16.420200 -10.694500 -12.083000
H -15.920900 -12.576200 -12.214200
60
Fragment
H -16.102100 -17.297000 -12.589200
N -15.602800 -15.415300 -12.720400
N -15.472200 -16.742100 -12.913500
H -14.606700 -19.119200 -13.527800
C -14.499900 -14.886200 -13.269000
N -14.406400 -13.497800 -13.219200
C -14.334200 -17.075200 -13.561100
C -13.948700 -18.477900 -13.889300
H -13.903700 -18.622600 -14.884000
C -13.667900 -15.891500 -13.810100
H -13.524800 -11.889800 -13.743100
C -13.492900 -12.846100 -13.837500
H -13.067200 -18.685900 -13.551600
C -12.389300 -13.275000 -14.681100
C -12.288100 -15.837900 -14.385000
H -12.203900 -16.524700 -15.104300
N -11.955400 -14.538000 -14.985000
N -11.632900 -12.362400 -15.293900
C -11.235300 -16.158400 -13.345500
N -10.965500 -15.401600 -12.299100
C -10.860900 -14.400000 -15.797200
C -10.685000 -13.063400 -15.980800
H -10.512500 -17.920200 -14.038700
N -10.437400 -17.243700 -13.403600
H -10.360400 -15.174500 -16.124200
H -9.990700 -12.624400 -16.531000
C -9.927300 -16.047500 -11.651000
C -9.594600 -17.183900 -12.317900
H -9.527900 -15.677800 -10.860900
H -8.958000 -17.891800 -12.139800
H -23.065000 -13.171000 -12.663600
H -22.495200 -10.957000 -13.942500
C -22.428400 -12.463100 -12.485500
C -22.095700 -11.326700 -13.152500
H -22.032300 -7.903600 -8.272400
H -21.662600 -10.453700 -8.679200
N -21.585600 -12.522900 -11.399900
H -21.510500 -13.199400 -10.764700
C -21.338000 -8.342600 -8.822600
C -21.162100 -9.679200 -9.006200
N -21.057500 -10.680800 -12.504300
C -20.787800 -11.437600 -11.457900
N -20.390100 -7.641600 -9.509500
N -20.067600 -9.817200 -9.818400
H -19.819100 -11.803900 -9.699100
C -19.734900 -11.117100 -10.418400
C -19.633700 -8.554200 -10.122300
H -18.955800 -13.965100 -11.251800
C -18.530100 -8.125300 -10.965900
H -18.498200 -7.169000 -11.060300
C -18.355100 -11.170700 -10.993300
H -18.119300 -13.901800 -9.919400
C -18.074400 -13.757100 -10.914100
C -17.688900 -12.354400 -11.242300
N -17.616600 -8.777000 -11.584200
C -17.523200 -10.165400 -11.534400
H -17.416300 -14.398400 -11.275600
N -16.550800 -12.021300 -11.890000
N -16.420200 -10.694500 -12.083000
H -15.920900 -12.576200 -12.214200
