37
Fragment
H -17.971900 -18.827200 -14.671400
H -17.856400 -17.373000 -16.521600
C -17.361800 -18.060700 -14.637000
C -17.289000 -17.188600 -15.718200
H -16.618200 -18.453600 -12.784100
C -16.581400 -17.822500 -13.517500
C -16.456000 -16.088900 -15.675000
H -16.441000 -15.435400 -16.403000
C -15.730800 -16.735400 -13.482800
C -15.652900 -15.839100 -14.550800
H -15.148800 -16.638400 -12.714500
H -14.792400 -13.751500 -9.682200
C -14.697900 -14.714900 -14.577800
H -14.664700 -14.844600 -11.781700
N -14.435400 -14.143200 -15.768400
C -14.136000 -13.126800 -10.023600
C -13.922300 -14.116600 -13.560600
C -13.830700 -14.459900 -12.098300
N -13.651500 -13.247200 -11.275500
N -13.629600 -12.094200 -9.380300
N -13.495700 -13.221200 -15.524800
C -13.146100 -13.166700 -14.216600
H -13.136800 -12.638100 -16.216900
C -12.745500 -11.531400 -10.256500
C -12.732600 -12.226300 -11.446000
C -12.731000 -15.439800 -11.802700
N -12.363400 -15.723000 -10.499000
H -12.216200 -10.751000 -10.050100
N -12.146700 -12.269800 -13.860500
H -12.016700 -16.245800 -13.639600
C -12.011200 -16.207600 -12.669700
C -11.985800 -11.894300 -12.634600
C -11.440300 -16.649200 -10.602500
H -11.282200 -11.230700 -12.462000
N -11.192200 -16.980000 -11.891400
H -10.930100 -17.080200 -9.895600
H -10.579400 -17.540900 -12.134400
37
Fragment
H -10.765600 -23.852400 -15.075200
H -10.415000 -23.391700 -17.314000
N -10.152900 -23.291500 -15.318100
H -10.062800 -17.542200 -14.747600
C -9.904700 -22.960700 -16.607100
C -9.359200 -18.205800 -14.575000
C -9.333800 -22.519100 -14.539800
H -9.328400 -22.557300 -13.569900
N -9.198300 -18.581300 -13.349000
H -9.128800 -17.062500 -17.159400
N -8.981600 -22.034500 -16.710600
C -8.614000 -21.751300 -15.406800
C -8.612500 -18.537800 -15.763600
C -8.599600 -17.842900 -16.953100
H -8.208200 -18.949600 -10.992700
C -8.199000 -19.478200 -12.993000
N -7.849300 -19.532700 -11.684800
N -7.715400 -18.405700 -17.829200
N -7.693500 -19.558700 -15.934000
C -7.514300 -20.771400 -15.111200
C -7.422700 -20.428100 -13.649000
C -7.209000 -19.438300 -17.186000
N -6.909700 -20.454700 -11.441200
H -6.680400 -21.156100 -15.427800
C -6.647100 -21.026400 -12.631800
H -6.552600 -20.063000 -17.527300
H -6.196200 -22.949900 -14.495100
C -5.692100 -22.150600 -12.658800
C -5.614200 -23.046900 -13.726800
H -4.904100 -21.746900 -10.806500
C -4.889000 -22.400400 -11.534600
C -4.763700 -24.134000 -13.692100
H -4.726800 -24.765100 -14.425400
C -4.056000 -23.500100 -11.491400
C -3.983200 -24.372200 -12.572600
H -3.488600 -23.684500 -10.687900
H -3.373100 -25.138700 -12.538200
74
Fragment
H -17.971900 -18.827200 -14.671400
H -17.856400 -17.373000 -16.521600
C -17.361800 -18.060700 -14.637000
C -17.289000 -17.188600 -15.718200
H -16.618200 -18.453600 -12.784100
C -16.581400 -17.822500 -13.517500
C -16.456000 -16.088900 -15.675000
H -16.441000 -15.435400 -16.403000
C -15.730800 -16.735400 -13.482800
C -15.652900 -15.839100 -14.550800
H -15.148800 -16.638400 -12.714500
H -14.792400 -13.751500 -9.682200
C -14.697900 -14.714900 -14.577800
H -14.664700 -14.844600 -11.781700
N -14.435400 -14.143200 -15.768400
C -14.136000 -13.126800 -10.023600
C -13.922300 -14.116600 -13.560600
C -13.830700 -14.459900 -12.098300
N -13.651500 -13.247200 -11.275500
N -13.629600 -12.094200 -9.380300
N -13.495700 -13.221200 -15.524800
C -13.146100 -13.166700 -14.216600
H -13.136800 -12.638100 -16.216900
C -12.745500 -11.531400 -10.256500
C -12.732600 -12.226300 -11.446000
C -12.731000 -15.439800 -11.802700
N -12.363400 -15.723000 -10.499000
H -12.216200 -10.751000 -10.050100
N -12.146700 -12.269800 -13.860500
H -12.016700 -16.245800 -13.639600
C -12.011200 -16.207600 -12.669700
C -11.985800 -11.894300 -12.634600
C -11.440300 -16.649200 -10.602500
H -11.282200 -11.230700 -12.462000
N -11.192200 -16.980000 -11.891400
H -10.930100 -17.080200 -9.895600
H -10.579400 -17.540900 -12.134400
H -10.765600 -23.852400 -15.075200
H -10.415000 -23.391700 -17.314000
N -10.152900 -23.291500 -15.318100
H -10.062800 -17.542200 -14.747600
C -9.904700 -22.960700 -16.607100
C -9.359200 -18.205800 -14.575000
C -9.333800 -22.519100 -14.539800
H -9.328400 -22.557300 -13.569900
N -9.198300 -18.581300 -13.349000
H -9.128800 -17.062500 -17.159400
N -8.981600 -22.034500 -16.710600
C -8.614000 -21.751300 -15.406800
C -8.612500 -18.537800 -15.763600
C -8.599600 -17.842900 -16.953100
H -8.208200 -18.949600 -10.992700
C -8.199000 -19.478200 -12.993000
N -7.849300 -19.532700 -11.684800
N -7.715400 -18.405700 -17.829200
N -7.693500 -19.558700 -15.934000
C -7.514300 -20.771400 -15.111200
C -7.422700 -20.428100 -13.649000
C -7.209000 -19.438300 -17.186000
N -6.909700 -20.454700 -11.441200
H -6.680400 -21.156100 -15.427800
C -6.647100 -21.026400 -12.631800
H -6.552600 -20.063000 -17.527300
H -6.196200 -22.949900 -14.495100
C -5.692100 -22.150600 -12.658800
C -5.614200 -23.046900 -13.726800
H -4.904100 -21.746900 -10.806500
C -4.889000 -22.400400 -11.534600
C -4.763700 -24.134000 -13.692100
H -4.726800 -24.765100 -14.425400
C -4.056000 -23.500100 -11.491400
C -3.983200 -24.372200 -12.572600
H -3.488600 -23.684500 -10.687900
H -3.373100 -25.138700 -12.538200
