37
Fragment
H -17.971900 -18.827200 -14.671400
H -17.856400 -17.373000 -16.521600
C -17.361800 -18.060700 -14.637000
C -17.289000 -17.188600 -15.718200
H -16.618200 -18.453600 -12.784100
C -16.581400 -17.822500 -13.517500
C -16.456000 -16.088900 -15.675000
H -16.441000 -15.435400 -16.403000
C -15.730800 -16.735400 -13.482800
C -15.652900 -15.839100 -14.550800
H -15.148800 -16.638400 -12.714500
H -14.792400 -13.751500 -9.682200
C -14.697900 -14.714900 -14.577800
H -14.664700 -14.844600 -11.781700
N -14.435400 -14.143200 -15.768400
C -14.136000 -13.126800 -10.023600
C -13.922300 -14.116600 -13.560600
C -13.830700 -14.459900 -12.098300
N -13.651500 -13.247200 -11.275500
N -13.629600 -12.094200 -9.380300
N -13.495700 -13.221200 -15.524800
C -13.146100 -13.166700 -14.216600
H -13.136800 -12.638100 -16.216900
C -12.745500 -11.531400 -10.256500
C -12.732600 -12.226300 -11.446000
C -12.731000 -15.439800 -11.802700
N -12.363400 -15.723000 -10.499000
H -12.216200 -10.751000 -10.050100
N -12.146700 -12.269800 -13.860500
H -12.016700 -16.245800 -13.639600
C -12.011200 -16.207600 -12.669700
C -11.985800 -11.894300 -12.634600
C -11.440300 -16.649200 -10.602500
H -11.282200 -11.230700 -12.462000
N -11.192200 -16.980000 -11.891400
H -10.930100 -17.080200 -9.895600
H -10.579400 -17.540900 -12.134400
37
Fragment
H -22.628800 -20.328100 -20.517100
H -22.278200 -20.788800 -22.755900
N -22.016100 -20.889000 -20.760000
H -21.926000 -26.638300 -20.189500
C -21.768000 -21.219800 -22.049000
C -21.222400 -25.974700 -20.016900
C -21.197100 -21.661400 -19.981700
H -21.191600 -21.623200 -19.011900
N -21.061500 -25.599200 -18.790900
H -20.992000 -27.118000 -22.601300
N -20.844800 -22.146000 -22.152500
C -20.477200 -22.429200 -20.848700
C -20.475700 -25.642700 -21.205500
C -20.462800 -26.337600 -22.395000
H -20.071500 -25.230900 -16.434600
C -20.062200 -24.702300 -18.434900
N -19.712600 -24.647800 -17.126700
N -19.578600 -25.774800 -23.271100
N -19.556700 -24.621800 -21.375900
C -19.377500 -23.409100 -20.553100
C -19.285900 -23.752400 -19.090900
C -19.072200 -24.742200 -22.627900
N -18.772900 -23.725800 -16.883100
H -18.543600 -23.024400 -20.869700
C -18.510300 -23.154100 -18.073700
H -18.415800 -24.117500 -22.969200
H -18.059500 -21.230600 -19.937000
C -17.555400 -22.029900 -18.100700
C -17.477400 -21.133600 -19.168700
H -16.767300 -22.433600 -16.248500
C -16.752200 -21.780100 -16.976500
C -16.626900 -20.046500 -19.134000
H -16.590000 -19.415400 -19.867300
C -15.919200 -20.680400 -16.933300
C -15.846500 -19.808300 -18.014500
H -15.351800 -20.496000 -16.129800
H -15.236300 -19.041800 -17.980100
74
Fragment
H -17.971900 -18.827200 -14.671400
H -17.856400 -17.373000 -16.521600
C -17.361800 -18.060700 -14.637000
C -17.289000 -17.188600 -15.718200
H -16.618200 -18.453600 -12.784100
C -16.581400 -17.822500 -13.517500
C -16.456000 -16.088900 -15.675000
H -16.441000 -15.435400 -16.403000
C -15.730800 -16.735400 -13.482800
C -15.652900 -15.839100 -14.550800
H -15.148800 -16.638400 -12.714500
H -14.792400 -13.751500 -9.682200
C -14.697900 -14.714900 -14.577800
H -14.664700 -14.844600 -11.781700
N -14.435400 -14.143200 -15.768400
C -14.136000 -13.126800 -10.023600
C -13.922300 -14.116600 -13.560600
C -13.830700 -14.459900 -12.098300
N -13.651500 -13.247200 -11.275500
N -13.629600 -12.094200 -9.380300
N -13.495700 -13.221200 -15.524800
C -13.146100 -13.166700 -14.216600
H -13.136800 -12.638100 -16.216900
C -12.745500 -11.531400 -10.256500
C -12.732600 -12.226300 -11.446000
C -12.731000 -15.439800 -11.802700
N -12.363400 -15.723000 -10.499000
H -12.216200 -10.751000 -10.050100
N -12.146700 -12.269800 -13.860500
H -12.016700 -16.245800 -13.639600
C -12.011200 -16.207600 -12.669700
C -11.985800 -11.894300 -12.634600
C -11.440300 -16.649200 -10.602500
H -11.282200 -11.230700 -12.462000
N -11.192200 -16.980000 -11.891400
H -10.930100 -17.080200 -9.895600
H -10.579400 -17.540900 -12.134400
H -22.628800 -20.328100 -20.517100
H -22.278200 -20.788800 -22.755900
N -22.016100 -20.889000 -20.760000
H -21.926000 -26.638300 -20.189500
C -21.768000 -21.219800 -22.049000
C -21.222400 -25.974700 -20.016900
C -21.197100 -21.661400 -19.981700
H -21.191600 -21.623200 -19.011900
N -21.061500 -25.599200 -18.790900
H -20.992000 -27.118000 -22.601300
N -20.844800 -22.146000 -22.152500
C -20.477200 -22.429200 -20.848700
C -20.475700 -25.642700 -21.205500
C -20.462800 -26.337600 -22.395000
H -20.071500 -25.230900 -16.434600
C -20.062200 -24.702300 -18.434900
N -19.712600 -24.647800 -17.126700
N -19.578600 -25.774800 -23.271100
N -19.556700 -24.621800 -21.375900
C -19.377500 -23.409100 -20.553100
C -19.285900 -23.752400 -19.090900
C -19.072200 -24.742200 -22.627900
N -18.772900 -23.725800 -16.883100
H -18.543600 -23.024400 -20.869700
C -18.510300 -23.154100 -18.073700
H -18.415800 -24.117500 -22.969200
H -18.059500 -21.230600 -19.937000
C -17.555400 -22.029900 -18.100700
C -17.477400 -21.133600 -19.168700
H -16.767300 -22.433600 -16.248500
C -16.752200 -21.780100 -16.976500
C -16.626900 -20.046500 -19.134000
H -16.590000 -19.415400 -19.867300
C -15.919200 -20.680400 -16.933300
C -15.846500 -19.808300 -18.014500
H -15.351800 -20.496000 -16.129800
H -15.236300 -19.041800 -17.980100
