37
Fragment
H -17.971900 -18.827200 -14.671400
H -17.856400 -17.373000 -16.521600
C -17.361800 -18.060700 -14.637000
C -17.289000 -17.188600 -15.718200
H -16.618200 -18.453600 -12.784100
C -16.581400 -17.822500 -13.517500
C -16.456000 -16.088900 -15.675000
H -16.441000 -15.435400 -16.403000
C -15.730800 -16.735400 -13.482800
C -15.652900 -15.839100 -14.550800
H -15.148800 -16.638400 -12.714500
H -14.792400 -13.751500 -9.682200
C -14.697900 -14.714900 -14.577800
H -14.664700 -14.844600 -11.781700
N -14.435400 -14.143200 -15.768400
C -14.136000 -13.126800 -10.023600
C -13.922300 -14.116600 -13.560600
C -13.830700 -14.459900 -12.098300
N -13.651500 -13.247200 -11.275500
N -13.629600 -12.094200 -9.380300
N -13.495700 -13.221200 -15.524800
C -13.146100 -13.166700 -14.216600
H -13.136800 -12.638100 -16.216900
C -12.745500 -11.531400 -10.256500
C -12.732600 -12.226300 -11.446000
C -12.731000 -15.439800 -11.802700
N -12.363400 -15.723000 -10.499000
H -12.216200 -10.751000 -10.050100
N -12.146700 -12.269800 -13.860500
H -12.016700 -16.245800 -13.639600
C -12.011200 -16.207600 -12.669700
C -11.985800 -11.894300 -12.634600
C -11.440300 -16.649200 -10.602500
H -11.282200 -11.230700 -12.462000
N -11.192200 -16.980000 -11.891400
H -10.930100 -17.080200 -9.895600
H -10.579400 -17.540900 -12.134400
37
Fragment
H -23.422600 -11.229400 -15.075200
H -23.072000 -10.768700 -17.314000
N -22.809900 -10.668500 -15.318100
H -22.719800 -4.919200 -14.747600
C -22.561700 -10.337700 -16.607100
C -22.016200 -5.582800 -14.575000
C -21.990800 -9.896100 -14.539800
H -21.985400 -9.934300 -13.569900
N -21.855300 -5.958300 -13.349000
H -21.785800 -4.439500 -17.159400
N -21.638600 -9.411500 -16.710600
C -21.271000 -9.128300 -15.406800
C -21.269500 -5.914800 -15.763600
C -21.256600 -5.219900 -16.953100
H -20.865200 -6.326600 -10.992700
C -20.856000 -6.855200 -12.993000
N -20.506300 -6.909700 -11.684800
N -20.372400 -5.782700 -17.829200
N -20.350500 -6.935700 -15.934000
C -20.171300 -8.148400 -15.111200
C -20.079700 -7.805100 -13.649000
C -19.866000 -6.815300 -17.186000
N -19.566700 -7.831700 -11.441200
H -19.337400 -8.533100 -15.427800
C -19.304100 -8.403400 -12.631800
H -19.209600 -7.440000 -17.527300
H -18.853200 -10.326900 -14.495100
C -18.349100 -9.527600 -12.658800
C -18.271200 -10.423900 -13.726800
H -17.561100 -9.123900 -10.806500
C -17.546000 -9.777400 -11.534600
C -17.420700 -11.511000 -13.692100
H -17.383800 -12.142100 -14.425400
C -16.713000 -10.877100 -11.491400
C -16.640200 -11.749200 -12.572600
H -16.145600 -11.061500 -10.687900
H -16.030100 -12.515700 -12.538200
74
Fragment
H -17.971900 -18.827200 -14.671400
H -17.856400 -17.373000 -16.521600
C -17.361800 -18.060700 -14.637000
C -17.289000 -17.188600 -15.718200
H -16.618200 -18.453600 -12.784100
C -16.581400 -17.822500 -13.517500
C -16.456000 -16.088900 -15.675000
H -16.441000 -15.435400 -16.403000
C -15.730800 -16.735400 -13.482800
C -15.652900 -15.839100 -14.550800
H -15.148800 -16.638400 -12.714500
H -14.792400 -13.751500 -9.682200
C -14.697900 -14.714900 -14.577800
H -14.664700 -14.844600 -11.781700
N -14.435400 -14.143200 -15.768400
C -14.136000 -13.126800 -10.023600
C -13.922300 -14.116600 -13.560600
C -13.830700 -14.459900 -12.098300
N -13.651500 -13.247200 -11.275500
N -13.629600 -12.094200 -9.380300
N -13.495700 -13.221200 -15.524800
C -13.146100 -13.166700 -14.216600
H -13.136800 -12.638100 -16.216900
C -12.745500 -11.531400 -10.256500
C -12.732600 -12.226300 -11.446000
C -12.731000 -15.439800 -11.802700
N -12.363400 -15.723000 -10.499000
H -12.216200 -10.751000 -10.050100
N -12.146700 -12.269800 -13.860500
H -12.016700 -16.245800 -13.639600
C -12.011200 -16.207600 -12.669700
C -11.985800 -11.894300 -12.634600
C -11.440300 -16.649200 -10.602500
H -11.282200 -11.230700 -12.462000
N -11.192200 -16.980000 -11.891400
H -10.930100 -17.080200 -9.895600
H -10.579400 -17.540900 -12.134400
H -23.422600 -11.229400 -15.075200
H -23.072000 -10.768700 -17.314000
N -22.809900 -10.668500 -15.318100
H -22.719800 -4.919200 -14.747600
C -22.561700 -10.337700 -16.607100
C -22.016200 -5.582800 -14.575000
C -21.990800 -9.896100 -14.539800
H -21.985400 -9.934300 -13.569900
N -21.855300 -5.958300 -13.349000
H -21.785800 -4.439500 -17.159400
N -21.638600 -9.411500 -16.710600
C -21.271000 -9.128300 -15.406800
C -21.269500 -5.914800 -15.763600
C -21.256600 -5.219900 -16.953100
H -20.865200 -6.326600 -10.992700
C -20.856000 -6.855200 -12.993000
N -20.506300 -6.909700 -11.684800
N -20.372400 -5.782700 -17.829200
N -20.350500 -6.935700 -15.934000
C -20.171300 -8.148400 -15.111200
C -20.079700 -7.805100 -13.649000
C -19.866000 -6.815300 -17.186000
N -19.566700 -7.831700 -11.441200
H -19.337400 -8.533100 -15.427800
C -19.304100 -8.403400 -12.631800
H -19.209600 -7.440000 -17.527300
H -18.853200 -10.326900 -14.495100
C -18.349100 -9.527600 -12.658800
C -18.271200 -10.423900 -13.726800
H -17.561100 -9.123900 -10.806500
C -17.546000 -9.777400 -11.534600
C -17.420700 -11.511000 -13.692100
H -17.383800 -12.142100 -14.425400
C -16.713000 -10.877100 -11.491400
C -16.640200 -11.749200 -12.572600
H -16.145600 -11.061500 -10.687900
H -16.030100 -12.515700 -12.538200
