37
Fragment
H -17.971900 -18.827200 -14.671400
H -17.856400 -17.373000 -16.521600
C -17.361800 -18.060700 -14.637000
C -17.289000 -17.188600 -15.718200
H -16.618200 -18.453600 -12.784100
C -16.581400 -17.822500 -13.517500
C -16.456000 -16.088900 -15.675000
H -16.441000 -15.435400 -16.403000
C -15.730800 -16.735400 -13.482800
C -15.652900 -15.839100 -14.550800
H -15.148800 -16.638400 -12.714500
H -14.792400 -13.751500 -9.682200
C -14.697900 -14.714900 -14.577800
H -14.664700 -14.844600 -11.781700
N -14.435400 -14.143200 -15.768400
C -14.136000 -13.126800 -10.023600
C -13.922300 -14.116600 -13.560600
C -13.830700 -14.459900 -12.098300
N -13.651500 -13.247200 -11.275500
N -13.629600 -12.094200 -9.380300
N -13.495700 -13.221200 -15.524800
C -13.146100 -13.166700 -14.216600
H -13.136800 -12.638100 -16.216900
C -12.745500 -11.531400 -10.256500
C -12.732600 -12.226300 -11.446000
C -12.731000 -15.439800 -11.802700
N -12.363400 -15.723000 -10.499000
H -12.216200 -10.751000 -10.050100
N -12.146700 -12.269800 -13.860500
H -12.016700 -16.245800 -13.639600
C -12.011200 -16.207600 -12.669700
C -11.985800 -11.894300 -12.634600
C -11.440300 -16.649200 -10.602500
H -11.282200 -11.230700 -12.462000
N -11.192200 -16.980000 -11.891400
H -10.930100 -17.080200 -9.895600
H -10.579400 -17.540900 -12.134400
6
Fragment
H -15.153700 -8.218800 -12.715600
H -14.554500 -8.730100 -11.322400
C -14.331600 -8.448800 -12.234500
H -13.875000 -9.180700 -12.700300
O -13.488800 -7.327500 -12.185300
H -13.296000 -7.056300 -12.973500
43
Fragment
H -17.971900 -18.827200 -14.671400
H -17.856400 -17.373000 -16.521600
C -17.361800 -18.060700 -14.637000
C -17.289000 -17.188600 -15.718200
H -16.618200 -18.453600 -12.784100
C -16.581400 -17.822500 -13.517500
C -16.456000 -16.088900 -15.675000
H -16.441000 -15.435400 -16.403000
C -15.730800 -16.735400 -13.482800
C -15.652900 -15.839100 -14.550800
H -15.148800 -16.638400 -12.714500
H -14.792400 -13.751500 -9.682200
C -14.697900 -14.714900 -14.577800
H -14.664700 -14.844600 -11.781700
N -14.435400 -14.143200 -15.768400
C -14.136000 -13.126800 -10.023600
C -13.922300 -14.116600 -13.560600
C -13.830700 -14.459900 -12.098300
N -13.651500 -13.247200 -11.275500
N -13.629600 -12.094200 -9.380300
N -13.495700 -13.221200 -15.524800
C -13.146100 -13.166700 -14.216600
H -13.136800 -12.638100 -16.216900
C -12.745500 -11.531400 -10.256500
C -12.732600 -12.226300 -11.446000
C -12.731000 -15.439800 -11.802700
N -12.363400 -15.723000 -10.499000
H -12.216200 -10.751000 -10.050100
N -12.146700 -12.269800 -13.860500
H -12.016700 -16.245800 -13.639600
C -12.011200 -16.207600 -12.669700
C -11.985800 -11.894300 -12.634600
C -11.440300 -16.649200 -10.602500
H -11.282200 -11.230700 -12.462000
N -11.192200 -16.980000 -11.891400
H -10.930100 -17.080200 -9.895600
H -10.579400 -17.540900 -12.134400
H -15.153700 -8.218800 -12.715600
H -14.554500 -8.730100 -11.322400
C -14.331600 -8.448800 -12.234500
H -13.875000 -9.180700 -12.700300
O -13.488800 -7.327500 -12.185300
H -13.296000 -7.056300 -12.973500
