17
Fragment
Cl -5.601500 -22.040300 -20.078600
N -5.479800 -17.056000 -20.345700
N -4.914300 -19.354200 -20.677800
N -4.912600 -15.973800 -20.757600
N -4.694000 -18.042700 -20.874700
C -4.267300 -21.563600 -21.067800
C -4.048700 -20.122500 -21.263500
N -3.807300 -16.185300 -21.535100
O -3.795000 -23.709800 -21.384500
C -3.687300 -17.505000 -21.586600
N -3.486600 -22.400200 -21.627800
H -3.203000 -24.141500 -21.805400
C -2.927600 -19.576600 -22.080900
N -2.767100 -18.259700 -22.222500
H -2.124200 -21.275700 -22.629200
N -2.072600 -20.369500 -22.683300
H -1.476000 -20.006500 -23.208500
6
Fragment
O 0.319800 -19.914000 -24.155900
H 0.429900 -20.694300 -24.354100
H 0.742600 -18.173700 -25.001600
H 0.755700 -19.408800 -26.019700
C 0.999200 -19.112600 -25.117400
H 1.967400 -19.204100 -24.995100
23
Fragment
Cl -5.601500 -22.040300 -20.078600
N -5.479800 -17.056000 -20.345700
N -4.914300 -19.354200 -20.677800
N -4.912600 -15.973800 -20.757600
N -4.694000 -18.042700 -20.874700
C -4.267300 -21.563600 -21.067800
C -4.048700 -20.122500 -21.263500
N -3.807300 -16.185300 -21.535100
O -3.795000 -23.709800 -21.384500
C -3.687300 -17.505000 -21.586600
N -3.486600 -22.400200 -21.627800
H -3.203000 -24.141500 -21.805400
C -2.927600 -19.576600 -22.080900
N -2.767100 -18.259700 -22.222500
H -2.124200 -21.275700 -22.629200
N -2.072600 -20.369500 -22.683300
H -1.476000 -20.006500 -23.208500
O 0.319800 -19.914000 -24.155900
H 0.429900 -20.694300 -24.354100
H 0.742600 -18.173700 -25.001600
H 0.755700 -19.408800 -26.019700
C 0.999200 -19.112600 -25.117400
H 1.967400 -19.204100 -24.995100
