17
Fragment
Cl -5.601500 -22.040300 -20.078600
N -5.479800 -17.056000 -20.345700
N -4.914300 -19.354200 -20.677800
N -4.912600 -15.973800 -20.757600
N -4.694000 -18.042700 -20.874700
C -4.267300 -21.563600 -21.067800
C -4.048700 -20.122500 -21.263500
N -3.807300 -16.185300 -21.535100
O -3.795000 -23.709800 -21.384500
C -3.687300 -17.505000 -21.586600
N -3.486600 -22.400200 -21.627800
H -3.203000 -24.141500 -21.805400
C -2.927600 -19.576600 -22.080900
N -2.767100 -18.259700 -22.222500
H -2.124200 -21.275700 -22.629200
N -2.072600 -20.369500 -22.683300
H -1.476000 -20.006500 -23.208500
17
Fragment
H -3.205500 -13.183000 -21.844000
N -2.608900 -13.546000 -22.369200
H -2.557300 -14.452200 -22.423300
N -1.914400 -11.436200 -22.830000
C -1.753900 -12.753100 -22.971600
H -1.478500 -17.318000 -23.247100
N -1.194900 -15.576700 -23.424700
C -0.994200 -10.681500 -23.465900
O -0.886500 -16.886300 -23.668000
N -0.874200 -9.361800 -23.517400
C -0.632800 -13.299000 -23.789000
C -0.414200 -14.740100 -23.984700
N 0.012500 -11.219200 -24.177700
N 0.231100 -9.150300 -24.294900
N 0.232800 -12.530700 -24.374700
N 0.798300 -10.232500 -24.706800
Cl 0.920000 -15.216800 -24.973900
34
Fragment
Cl -5.601500 -22.040300 -20.078600
N -5.479800 -17.056000 -20.345700
N -4.914300 -19.354200 -20.677800
N -4.912600 -15.973800 -20.757600
N -4.694000 -18.042700 -20.874700
C -4.267300 -21.563600 -21.067800
C -4.048700 -20.122500 -21.263500
N -3.807300 -16.185300 -21.535100
O -3.795000 -23.709800 -21.384500
C -3.687300 -17.505000 -21.586600
N -3.486600 -22.400200 -21.627800
H -3.203000 -24.141500 -21.805400
C -2.927600 -19.576600 -22.080900
N -2.767100 -18.259700 -22.222500
H -2.124200 -21.275700 -22.629200
N -2.072600 -20.369500 -22.683300
H -1.476000 -20.006500 -23.208500
H -3.205500 -13.183000 -21.844000
N -2.608900 -13.546000 -22.369200
H -2.557300 -14.452200 -22.423300
N -1.914400 -11.436200 -22.830000
C -1.753900 -12.753100 -22.971600
H -1.478500 -17.318000 -23.247100
N -1.194900 -15.576700 -23.424700
C -0.994200 -10.681500 -23.465900
O -0.886500 -16.886300 -23.668000
N -0.874200 -9.361800 -23.517400
C -0.632800 -13.299000 -23.789000
C -0.414200 -14.740100 -23.984700
N 0.012500 -11.219200 -24.177700
N 0.231100 -9.150300 -24.294900
N 0.232800 -12.530700 -24.374700
N 0.798300 -10.232500 -24.706800
Cl 0.920000 -15.216800 -24.973900
