17
Fragment
Cl -5.601500 -22.040300 -20.078600
N -5.479800 -17.056000 -20.345700
N -4.914300 -19.354200 -20.677800
N -4.912600 -15.973800 -20.757600
N -4.694000 -18.042700 -20.874700
C -4.267300 -21.563600 -21.067800
C -4.048700 -20.122500 -21.263500
N -3.807300 -16.185300 -21.535100
O -3.795000 -23.709800 -21.384500
C -3.687300 -17.505000 -21.586600
N -3.486600 -22.400200 -21.627800
H -3.203000 -24.141500 -21.805400
C -2.927600 -19.576600 -22.080900
N -2.767100 -18.259700 -22.222500
H -2.124200 -21.275700 -22.629200
N -2.072600 -20.369500 -22.683300
H -1.476000 -20.006500 -23.208500
17
Fragment
H -8.560600 -26.830000 -21.844000
N -7.964000 -27.193000 -22.369200
H -7.912400 -28.099200 -22.423300
N -7.269500 -25.083200 -22.830000
C -7.109000 -26.400100 -22.971600
H -6.833600 -30.965000 -23.247100
N -6.550000 -29.223700 -23.424700
C -6.349300 -24.328500 -23.465900
O -6.241600 -30.533300 -23.668000
N -6.229300 -23.008800 -23.517400
C -5.987900 -26.946000 -23.789000
C -5.769300 -28.387100 -23.984700
N -5.342600 -24.866200 -24.177700
N -5.124000 -22.797300 -24.294900
N -5.122300 -26.177700 -24.374700
N -4.556800 -23.879500 -24.706800
Cl -4.435100 -28.863800 -24.973900
34
Fragment
Cl -5.601500 -22.040300 -20.078600
N -5.479800 -17.056000 -20.345700
N -4.914300 -19.354200 -20.677800
N -4.912600 -15.973800 -20.757600
N -4.694000 -18.042700 -20.874700
C -4.267300 -21.563600 -21.067800
C -4.048700 -20.122500 -21.263500
N -3.807300 -16.185300 -21.535100
O -3.795000 -23.709800 -21.384500
C -3.687300 -17.505000 -21.586600
N -3.486600 -22.400200 -21.627800
H -3.203000 -24.141500 -21.805400
C -2.927600 -19.576600 -22.080900
N -2.767100 -18.259700 -22.222500
H -2.124200 -21.275700 -22.629200
N -2.072600 -20.369500 -22.683300
H -1.476000 -20.006500 -23.208500
H -8.560600 -26.830000 -21.844000
N -7.964000 -27.193000 -22.369200
H -7.912400 -28.099200 -22.423300
N -7.269500 -25.083200 -22.830000
C -7.109000 -26.400100 -22.971600
H -6.833600 -30.965000 -23.247100
N -6.550000 -29.223700 -23.424700
C -6.349300 -24.328500 -23.465900
O -6.241600 -30.533300 -23.668000
N -6.229300 -23.008800 -23.517400
C -5.987900 -26.946000 -23.789000
C -5.769300 -28.387100 -23.984700
N -5.342600 -24.866200 -24.177700
N -5.124000 -22.797300 -24.294900
N -5.122300 -26.177700 -24.374700
N -4.556800 -23.879500 -24.706800
Cl -4.435100 -28.863800 -24.973900
