17
Fragment
Cl -5.601500 -22.040300 -20.078600
N -5.479800 -17.056000 -20.345700
N -4.914300 -19.354200 -20.677800
N -4.912600 -15.973800 -20.757600
N -4.694000 -18.042700 -20.874700
C -4.267300 -21.563600 -21.067800
C -4.048700 -20.122500 -21.263500
N -3.807300 -16.185300 -21.535100
O -3.795000 -23.709800 -21.384500
C -3.687300 -17.505000 -21.586600
N -3.486600 -22.400200 -21.627800
H -3.203000 -24.141500 -21.805400
C -2.927600 -19.576600 -22.080900
N -2.767100 -18.259700 -22.222500
H -2.124200 -21.275700 -22.629200
N -2.072600 -20.369500 -22.683300
H -1.476000 -20.006500 -23.208500
17
Fragment
H -11.716900 -20.934500 -15.408000
N -11.120300 -20.571500 -15.933100
H -11.068600 -19.665300 -15.987200
N -10.425800 -22.681300 -16.394000
C -10.265300 -21.364400 -16.535600
H -9.989900 -16.799500 -16.811000
N -9.706300 -18.540800 -16.988600
C -9.505600 -23.436000 -17.029800
O -9.397900 -17.231200 -17.231900
N -9.385600 -24.755700 -17.081300
C -9.144200 -20.818500 -17.352900
C -8.925600 -19.377400 -17.548600
N -8.498900 -22.898300 -17.741700
N -8.280300 -24.967200 -17.858800
N -8.278600 -21.586800 -17.938600
N -7.713000 -23.885000 -18.270700
Cl -7.591400 -18.900700 -18.537800
34
Fragment
Cl -5.601500 -22.040300 -20.078600
N -5.479800 -17.056000 -20.345700
N -4.914300 -19.354200 -20.677800
N -4.912600 -15.973800 -20.757600
N -4.694000 -18.042700 -20.874700
C -4.267300 -21.563600 -21.067800
C -4.048700 -20.122500 -21.263500
N -3.807300 -16.185300 -21.535100
O -3.795000 -23.709800 -21.384500
C -3.687300 -17.505000 -21.586600
N -3.486600 -22.400200 -21.627800
H -3.203000 -24.141500 -21.805400
C -2.927600 -19.576600 -22.080900
N -2.767100 -18.259700 -22.222500
H -2.124200 -21.275700 -22.629200
N -2.072600 -20.369500 -22.683300
H -1.476000 -20.006500 -23.208500
H -11.716900 -20.934500 -15.408000
N -11.120300 -20.571500 -15.933100
H -11.068600 -19.665300 -15.987200
N -10.425800 -22.681300 -16.394000
C -10.265300 -21.364400 -16.535600
H -9.989900 -16.799500 -16.811000
N -9.706300 -18.540800 -16.988600
C -9.505600 -23.436000 -17.029800
O -9.397900 -17.231200 -17.231900
N -9.385600 -24.755700 -17.081300
C -9.144200 -20.818500 -17.352900
C -8.925600 -19.377400 -17.548600
N -8.498900 -22.898300 -17.741700
N -8.280300 -24.967200 -17.858800
N -8.278600 -21.586800 -17.938600
N -7.713000 -23.885000 -18.270700
Cl -7.591400 -18.900700 -18.537800
