6
Fragment
H -9.017000 -11.078700 -25.043200
O -8.708000 -11.172000 -25.818800
H -7.380600 -12.641300 -25.959700
C -7.375600 -11.685600 -25.742100
H -7.027800 -11.558300 -24.834400
H -6.804500 -11.209600 -26.380700
18
Fragment
N -15.882900 -8.700900 -19.681400
N -15.328400 -9.364400 -18.711100
N -15.115100 -8.773500 -20.809200
H -14.522500 -8.559600 -22.844000
N -14.192700 -9.886800 -19.190000
C -14.074000 -9.510300 -20.469900
N -13.813500 -8.790700 -23.311000
H -13.755400 -8.569500 -24.161600
H -13.607200 -10.354300 -18.672600
C -12.923600 -9.850000 -21.309900
C -12.836300 -9.469200 -22.736900
N -11.977500 -10.491100 -20.689700
N -11.770200 -9.811800 -23.456900
N -10.937300 -10.795500 -21.477700
C -10.827300 -10.494900 -22.792300
N -9.845300 -11.505200 -21.074900
N -9.678700 -10.996400 -23.221000
N -9.113200 -11.605100 -22.140000
24
Fragment
H -9.017000 -11.078700 -25.043200
O -8.708000 -11.172000 -25.818800
H -7.380600 -12.641300 -25.959700
C -7.375600 -11.685600 -25.742100
H -7.027800 -11.558300 -24.834400
H -6.804500 -11.209600 -26.380700
N -15.882900 -8.700900 -19.681400
N -15.328400 -9.364400 -18.711100
N -15.115100 -8.773500 -20.809200
H -14.522500 -8.559600 -22.844000
N -14.192700 -9.886800 -19.190000
C -14.074000 -9.510300 -20.469900
N -13.813500 -8.790700 -23.311000
H -13.755400 -8.569500 -24.161600
H -13.607200 -10.354300 -18.672600
C -12.923600 -9.850000 -21.309900
C -12.836300 -9.469200 -22.736900
N -11.977500 -10.491100 -20.689700
N -11.770200 -9.811800 -23.456900
N -10.937300 -10.795500 -21.477700
C -10.827300 -10.494900 -22.792300
N -9.845300 -11.505200 -21.074900
N -9.678700 -10.996400 -23.221000
N -9.113200 -11.605100 -22.140000
