6
Fragment
H -9.017000 -11.078700 -25.043200
O -8.708000 -11.172000 -25.818800
H -7.380600 -12.641300 -25.959700
C -7.375600 -11.685600 -25.742100
H -7.027800 -11.558300 -24.834400
H -6.804500 -11.209600 -26.380700
18
Fragment
N -12.009100 -13.711100 -27.967800
N -11.454600 -13.047600 -26.997500
N -11.241300 -13.638500 -29.095600
H -10.648600 -13.852400 -31.130400
N -10.318900 -12.525200 -27.476500
C -10.200200 -12.901700 -28.756400
N -9.939600 -13.621300 -31.597500
H -9.881500 -13.842500 -32.448000
H -9.733400 -12.057700 -26.959000
C -9.049800 -12.562000 -29.596300
C -8.962500 -12.942800 -31.023400
N -8.103600 -11.920900 -28.976100
N -7.896400 -12.600200 -31.743300
N -7.063400 -11.616500 -29.764200
C -6.953500 -11.917100 -31.078700
N -5.971400 -10.906800 -29.361300
N -5.804800 -11.415600 -31.507500
N -5.239300 -10.806900 -30.426400
24
Fragment
H -9.017000 -11.078700 -25.043200
O -8.708000 -11.172000 -25.818800
H -7.380600 -12.641300 -25.959700
C -7.375600 -11.685600 -25.742100
H -7.027800 -11.558300 -24.834400
H -6.804500 -11.209600 -26.380700
N -12.009100 -13.711100 -27.967800
N -11.454600 -13.047600 -26.997500
N -11.241300 -13.638500 -29.095600
H -10.648600 -13.852400 -31.130400
N -10.318900 -12.525200 -27.476500
C -10.200200 -12.901700 -28.756400
N -9.939600 -13.621300 -31.597500
H -9.881500 -13.842500 -32.448000
H -9.733400 -12.057700 -26.959000
C -9.049800 -12.562000 -29.596300
C -8.962500 -12.942800 -31.023400
N -8.103600 -11.920900 -28.976100
N -7.896400 -12.600200 -31.743300
N -7.063400 -11.616500 -29.764200
C -6.953500 -11.917100 -31.078700
N -5.971400 -10.906800 -29.361300
N -5.804800 -11.415600 -31.507500
N -5.239300 -10.806900 -30.426400
