21
Fragment
H -42.098900 -19.150000 -18.443100
H -41.804400 -20.553600 -18.498200
N -41.504900 -19.737000 -18.629100
C -40.199900 -19.477500 -18.844000
N -39.819700 -18.186700 -18.963800
N -39.262600 -21.845500 -18.881100
C -39.229500 -20.459000 -18.970700
C -38.530500 -17.914500 -19.202100
H -38.318800 -16.949000 -19.366000
C -38.004300 -22.186800 -19.042300
C -37.940300 -20.024100 -19.192400
H -37.713900 -23.094900 -19.090500
N -37.513100 -18.753400 -19.352200
N -37.150000 -21.152200 -19.235100
C -35.690400 -21.150100 -19.392200
H -35.502800 -21.967800 -19.517500
H -35.443200 -20.617400 -20.164900
H -35.176600 -19.649800 -17.850900
H -35.133500 -21.234100 -17.299900
C -34.995600 -20.601400 -18.192500
H -34.029500 -20.606800 -18.374300
33
Fragment
H -45.771100 -15.917600 -27.451200
H -45.517600 -18.862900 -22.534000
H -44.993500 -16.587500 -29.558600
C -44.900900 -16.308900 -27.495300
C -44.603600 -18.524800 -22.568400
H -44.460400 -18.533300 -24.613800
C -44.435600 -16.691700 -28.721200
H -44.418200 -18.193100 -20.578100
H -44.392100 -16.311000 -25.467800
C -44.166300 -16.553500 -26.359000
C -44.024000 -18.267500 -23.797000
C -43.979500 -18.184600 -21.403100
C -43.227300 -17.336000 -28.825800
C -42.945100 -17.225500 -26.440200
H -42.844400 -17.597600 -29.641300
C -42.793400 -17.633800 -23.867300
C -42.730100 -17.595500 -21.451300
C -42.483400 -17.607200 -27.693600
H -42.297500 -17.268000 -20.660700
C -42.147900 -17.304100 -22.678600
C -42.058300 -17.405200 -25.200600
O -41.809900 -15.031900 -24.921000
O -41.659500 -19.786900 -25.440200
H -41.621300 -18.044200 -27.740500
C -41.254300 -16.102600 -25.130300
H -41.242800 -16.885200 -22.726800
C -41.179500 -18.666200 -25.387900
N -39.933500 -16.153700 -25.416800
N -39.837800 -18.486500 -25.474700
H -39.521000 -15.439100 -25.495300
H -39.352800 -19.181900 -25.481600
C -39.164400 -17.279700 -25.547700
O -37.963900 -17.234000 -25.719800
54
Fragment
H -42.098900 -19.150000 -18.443100
H -41.804400 -20.553600 -18.498200
N -41.504900 -19.737000 -18.629100
C -40.199900 -19.477500 -18.844000
N -39.819700 -18.186700 -18.963800
N -39.262600 -21.845500 -18.881100
C -39.229500 -20.459000 -18.970700
C -38.530500 -17.914500 -19.202100
H -38.318800 -16.949000 -19.366000
C -38.004300 -22.186800 -19.042300
C -37.940300 -20.024100 -19.192400
H -37.713900 -23.094900 -19.090500
N -37.513100 -18.753400 -19.352200
N -37.150000 -21.152200 -19.235100
C -35.690400 -21.150100 -19.392200
H -35.502800 -21.967800 -19.517500
H -35.443200 -20.617400 -20.164900
H -35.176600 -19.649800 -17.850900
H -35.133500 -21.234100 -17.299900
C -34.995600 -20.601400 -18.192500
H -34.029500 -20.606800 -18.374300
H -45.771100 -15.917600 -27.451200
H -45.517600 -18.862900 -22.534000
H -44.993500 -16.587500 -29.558600
C -44.900900 -16.308900 -27.495300
C -44.603600 -18.524800 -22.568400
H -44.460400 -18.533300 -24.613800
C -44.435600 -16.691700 -28.721200
H -44.418200 -18.193100 -20.578100
H -44.392100 -16.311000 -25.467800
C -44.166300 -16.553500 -26.359000
C -44.024000 -18.267500 -23.797000
C -43.979500 -18.184600 -21.403100
C -43.227300 -17.336000 -28.825800
C -42.945100 -17.225500 -26.440200
H -42.844400 -17.597600 -29.641300
C -42.793400 -17.633800 -23.867300
C -42.730100 -17.595500 -21.451300
C -42.483400 -17.607200 -27.693600
H -42.297500 -17.268000 -20.660700
C -42.147900 -17.304100 -22.678600
C -42.058300 -17.405200 -25.200600
O -41.809900 -15.031900 -24.921000
O -41.659500 -19.786900 -25.440200
H -41.621300 -18.044200 -27.740500
C -41.254300 -16.102600 -25.130300
H -41.242800 -16.885200 -22.726800
C -41.179500 -18.666200 -25.387900
N -39.933500 -16.153700 -25.416800
N -39.837800 -18.486500 -25.474700
H -39.521000 -15.439100 -25.495300
H -39.352800 -19.181900 -25.481600
C -39.164400 -17.279700 -25.547700
O -37.963900 -17.234000 -25.719800
