21
Fragment
H -42.098900 -19.150000 -18.443100
H -41.804400 -20.553600 -18.498200
N -41.504900 -19.737000 -18.629100
C -40.199900 -19.477500 -18.844000
N -39.819700 -18.186700 -18.963800
N -39.262600 -21.845500 -18.881100
C -39.229500 -20.459000 -18.970700
C -38.530500 -17.914500 -19.202100
H -38.318800 -16.949000 -19.366000
C -38.004300 -22.186800 -19.042300
C -37.940300 -20.024100 -19.192400
H -37.713900 -23.094900 -19.090500
N -37.513100 -18.753400 -19.352200
N -37.150000 -21.152200 -19.235100
C -35.690400 -21.150100 -19.392200
H -35.502800 -21.967800 -19.517500
H -35.443200 -20.617400 -20.164900
H -35.176600 -19.649800 -17.850900
H -35.133500 -21.234100 -17.299900
C -34.995600 -20.601400 -18.192500
H -34.029500 -20.606800 -18.374300
33
Fragment
H -32.781800 -21.297900 -20.564300
H -32.528200 -18.352600 -15.647100
H -32.004200 -20.628000 -22.671700
C -31.911600 -20.906600 -20.608400
C -31.614300 -18.690700 -15.681500
H -31.471100 -18.682200 -17.726900
C -31.446300 -20.523800 -21.834300
H -31.428900 -19.022400 -13.691200
H -31.402800 -20.904500 -18.580900
C -31.177000 -20.662000 -19.472000
C -31.034600 -18.948000 -16.910100
C -30.990100 -19.030900 -14.516200
C -30.238000 -19.879500 -21.938900
C -29.955800 -19.990000 -19.553300
H -29.855000 -19.617900 -22.754300
C -29.804000 -19.581700 -16.980400
C -29.740700 -19.620000 -14.564400
C -29.494100 -19.608300 -20.806700
H -29.308200 -19.947500 -13.773800
C -29.158500 -19.911400 -15.791700
C -29.069000 -19.810300 -18.313700
O -28.820500 -22.183600 -18.034100
O -28.670200 -17.428600 -18.553300
H -28.631900 -19.171300 -20.853600
C -28.264900 -21.112900 -18.243400
H -28.253500 -20.330300 -15.839900
C -28.190100 -18.549300 -18.501000
N -26.944200 -21.061800 -18.529900
N -26.848400 -18.729000 -18.587800
H -26.531700 -21.776400 -18.608400
H -26.363400 -18.033600 -18.594700
C -26.175100 -19.935800 -18.660800
O -24.974500 -19.981500 -18.832900
54
Fragment
H -42.098900 -19.150000 -18.443100
H -41.804400 -20.553600 -18.498200
N -41.504900 -19.737000 -18.629100
C -40.199900 -19.477500 -18.844000
N -39.819700 -18.186700 -18.963800
N -39.262600 -21.845500 -18.881100
C -39.229500 -20.459000 -18.970700
C -38.530500 -17.914500 -19.202100
H -38.318800 -16.949000 -19.366000
C -38.004300 -22.186800 -19.042300
C -37.940300 -20.024100 -19.192400
H -37.713900 -23.094900 -19.090500
N -37.513100 -18.753400 -19.352200
N -37.150000 -21.152200 -19.235100
C -35.690400 -21.150100 -19.392200
H -35.502800 -21.967800 -19.517500
H -35.443200 -20.617400 -20.164900
H -35.176600 -19.649800 -17.850900
H -35.133500 -21.234100 -17.299900
C -34.995600 -20.601400 -18.192500
H -34.029500 -20.606800 -18.374300
H -32.781800 -21.297900 -20.564300
H -32.528200 -18.352600 -15.647100
H -32.004200 -20.628000 -22.671700
C -31.911600 -20.906600 -20.608400
C -31.614300 -18.690700 -15.681500
H -31.471100 -18.682200 -17.726900
C -31.446300 -20.523800 -21.834300
H -31.428900 -19.022400 -13.691200
H -31.402800 -20.904500 -18.580900
C -31.177000 -20.662000 -19.472000
C -31.034600 -18.948000 -16.910100
C -30.990100 -19.030900 -14.516200
C -30.238000 -19.879500 -21.938900
C -29.955800 -19.990000 -19.553300
H -29.855000 -19.617900 -22.754300
C -29.804000 -19.581700 -16.980400
C -29.740700 -19.620000 -14.564400
C -29.494100 -19.608300 -20.806700
H -29.308200 -19.947500 -13.773800
C -29.158500 -19.911400 -15.791700
C -29.069000 -19.810300 -18.313700
O -28.820500 -22.183600 -18.034100
O -28.670200 -17.428600 -18.553300
H -28.631900 -19.171300 -20.853600
C -28.264900 -21.112900 -18.243400
H -28.253500 -20.330300 -15.839900
C -28.190100 -18.549300 -18.501000
N -26.944200 -21.061800 -18.529900
N -26.848400 -18.729000 -18.587800
H -26.531700 -21.776400 -18.608400
H -26.363400 -18.033600 -18.594700
C -26.175100 -19.935800 -18.660800
O -24.974500 -19.981500 -18.832900
