34
Fragment
O -21.174400 -21.421200 -14.534200
H -20.791800 -22.445900 -16.905200
C -20.223500 -21.295800 -15.321000
N -20.126100 -21.873400 -16.541900
N -19.120400 -20.557300 -15.104600
H -19.089100 -21.167800 -18.093300
H -18.950000 -20.088600 -14.296800
C -18.907000 -21.528800 -17.234300
H -18.441200 -23.380700 -18.050000
C -18.214000 -20.554700 -16.246800
H -18.149600 -25.285900 -16.440900
H -18.078700 -19.671900 -16.568100
C -17.993500 -22.732200 -17.520200
C -17.688100 -24.676600 -15.877000
C -17.565400 -23.350300 -16.236300
H -17.234500 -26.018000 -14.435800
C -17.132800 -25.108500 -14.688900
H -17.038400 -21.834100 -19.054500
C -16.871000 -22.466200 -15.391800
C -16.796800 -21.065200 -15.934700
C -16.731300 -22.162200 -18.217900
C -16.441200 -24.258600 -13.866700
H -16.361900 -20.510400 -15.298700
C -16.303600 -22.927300 -14.226000
H -16.104200 -20.212700 -17.601500
C -16.065200 -21.107000 -17.285500
H -16.058800 -24.579000 -13.057500
H -15.817100 -22.333200 -13.667300
H -15.770700 -23.936800 -18.895900
N -15.675500 -23.141300 -18.384400
N -14.691400 -21.573200 -17.193700
C -14.549200 -22.806900 -17.741800
H -13.984400 -21.076600 -16.798900
O -13.515100 -23.487200 -17.692000
34
Fragment
O -19.056500 -22.913300 -21.091100
H -18.674000 -21.888600 -23.462100
C -18.105600 -23.038700 -21.878000
N -18.008200 -22.461100 -23.098900
N -17.002600 -23.777200 -21.661600
H -16.971300 -23.166700 -24.650200
H -16.832200 -24.245900 -20.853800
C -16.789200 -22.805700 -23.791300
H -16.323300 -20.953800 -24.607000
C -16.096200 -23.779800 -22.803800
H -16.031800 -19.048600 -22.997900
H -15.960900 -24.662600 -23.125100
C -15.875700 -21.602300 -24.077200
C -15.570200 -19.657900 -22.434000
C -15.447600 -20.984200 -22.793300
H -15.116700 -18.316500 -20.992800
C -15.015000 -19.226000 -21.245900
H -14.920500 -22.500400 -25.611500
C -14.753100 -21.868300 -21.948800
C -14.679000 -23.269300 -22.491700
C -14.613400 -22.172300 -24.774800
C -14.323300 -20.075900 -20.423600
H -14.244000 -23.824100 -21.855700
C -14.185700 -21.407200 -20.782900
H -13.986300 -24.121800 -24.158500
C -13.947400 -23.227500 -23.842400
H -13.941000 -19.755500 -19.614500
H -13.699200 -22.001300 -20.224300
H -13.652900 -20.397700 -25.452800
N -13.557600 -21.193200 -24.941400
N -12.573500 -22.761300 -23.750600
C -12.431300 -21.527600 -24.298800
H -11.866600 -23.257900 -23.355900
O -11.397300 -20.847300 -24.249000
68
Fragment
O -21.174400 -21.421200 -14.534200
H -20.791800 -22.445900 -16.905200
C -20.223500 -21.295800 -15.321000
N -20.126100 -21.873400 -16.541900
N -19.120400 -20.557300 -15.104600
H -19.089100 -21.167800 -18.093300
H -18.950000 -20.088600 -14.296800
C -18.907000 -21.528800 -17.234300
H -18.441200 -23.380700 -18.050000
C -18.214000 -20.554700 -16.246800
H -18.149600 -25.285900 -16.440900
H -18.078700 -19.671900 -16.568100
C -17.993500 -22.732200 -17.520200
C -17.688100 -24.676600 -15.877000
C -17.565400 -23.350300 -16.236300
H -17.234500 -26.018000 -14.435800
C -17.132800 -25.108500 -14.688900
H -17.038400 -21.834100 -19.054500
C -16.871000 -22.466200 -15.391800
C -16.796800 -21.065200 -15.934700
C -16.731300 -22.162200 -18.217900
C -16.441200 -24.258600 -13.866700
H -16.361900 -20.510400 -15.298700
C -16.303600 -22.927300 -14.226000
H -16.104200 -20.212700 -17.601500
C -16.065200 -21.107000 -17.285500
H -16.058800 -24.579000 -13.057500
H -15.817100 -22.333200 -13.667300
H -15.770700 -23.936800 -18.895900
N -15.675500 -23.141300 -18.384400
N -14.691400 -21.573200 -17.193700
C -14.549200 -22.806900 -17.741800
H -13.984400 -21.076600 -16.798900
O -13.515100 -23.487200 -17.692000
O -19.056500 -22.913300 -21.091100
H -18.674000 -21.888600 -23.462100
C -18.105600 -23.038700 -21.878000
N -18.008200 -22.461100 -23.098900
N -17.002600 -23.777200 -21.661600
H -16.971300 -23.166700 -24.650200
H -16.832200 -24.245900 -20.853800
C -16.789200 -22.805700 -23.791300
H -16.323300 -20.953800 -24.607000
C -16.096200 -23.779800 -22.803800
H -16.031800 -19.048600 -22.997900
H -15.960900 -24.662600 -23.125100
C -15.875700 -21.602300 -24.077200
C -15.570200 -19.657900 -22.434000
C -15.447600 -20.984200 -22.793300
H -15.116700 -18.316500 -20.992800
C -15.015000 -19.226000 -21.245900
H -14.920500 -22.500400 -25.611500
C -14.753100 -21.868300 -21.948800
C -14.679000 -23.269300 -22.491700
C -14.613400 -22.172300 -24.774800
C -14.323300 -20.075900 -20.423600
H -14.244000 -23.824100 -21.855700
C -14.185700 -21.407200 -20.782900
H -13.986300 -24.121800 -24.158500
C -13.947400 -23.227500 -23.842400
H -13.941000 -19.755500 -19.614500
H -13.699200 -22.001300 -20.224300
H -13.652900 -20.397700 -25.452800
N -13.557600 -21.193200 -24.941400
N -12.573500 -22.761300 -23.750600
C -12.431300 -21.527600 -24.298800
H -11.866600 -23.257900 -23.355900
O -11.397300 -20.847300 -24.249000
