34
Fragment
O -21.174400 -21.421200 -14.534200
H -20.791800 -22.445900 -16.905200
C -20.223500 -21.295800 -15.321000
N -20.126100 -21.873400 -16.541900
N -19.120400 -20.557300 -15.104600
H -19.089100 -21.167800 -18.093300
H -18.950000 -20.088600 -14.296800
C -18.907000 -21.528800 -17.234300
H -18.441200 -23.380700 -18.050000
C -18.214000 -20.554700 -16.246800
H -18.149600 -25.285900 -16.440900
H -18.078700 -19.671900 -16.568100
C -17.993500 -22.732200 -17.520200
C -17.688100 -24.676600 -15.877000
C -17.565400 -23.350300 -16.236300
H -17.234500 -26.018000 -14.435800
C -17.132800 -25.108500 -14.688900
H -17.038400 -21.834100 -19.054500
C -16.871000 -22.466200 -15.391800
C -16.796800 -21.065200 -15.934700
C -16.731300 -22.162200 -18.217900
C -16.441200 -24.258600 -13.866700
H -16.361900 -20.510400 -15.298700
C -16.303600 -22.927300 -14.226000
H -16.104200 -20.212700 -17.601500
C -16.065200 -21.107000 -17.285500
H -16.058800 -24.579000 -13.057500
H -15.817100 -22.333200 -13.667300
H -15.770700 -23.936800 -18.895900
N -15.675500 -23.141300 -18.384400
N -14.691400 -21.573200 -17.193700
C -14.549200 -22.806900 -17.741800
H -13.984400 -21.076600 -16.798900
O -13.515100 -23.487200 -17.692000
34
Fragment
O -23.292200 -22.913300 -7.977200
H -22.909600 -21.888600 -10.348200
C -22.341300 -23.038700 -8.764000
N -22.243900 -22.461100 -9.984900
N -21.238300 -23.777200 -8.547700
H -21.207000 -23.166700 -11.536300
H -21.067900 -24.245900 -7.739800
C -21.024900 -22.805700 -10.677400
H -20.559000 -20.953800 -11.493000
C -20.331800 -23.779800 -9.689900
H -20.267500 -19.048600 -9.884000
H -20.196500 -24.662600 -10.011200
C -20.111300 -21.602300 -10.963200
C -19.805900 -19.657900 -9.320100
C -19.683200 -20.984200 -9.679400
H -19.352300 -18.316500 -7.878800
C -19.250700 -19.226000 -8.131900
H -19.156200 -22.500400 -12.497600
C -18.988800 -21.868300 -8.834800
C -18.914700 -23.269300 -9.377800
C -18.849100 -22.172300 -11.660900
C -18.559000 -20.075900 -7.309700
H -18.479700 -23.824100 -8.741700
C -18.421400 -21.407200 -7.669000
H -18.222000 -24.121800 -11.044500
C -18.183100 -23.227500 -10.728500
H -18.176700 -19.755500 -6.500600
H -17.934900 -22.001300 -7.110400
H -17.888600 -20.397700 -12.338900
N -17.793300 -21.193200 -11.827400
N -16.809200 -22.761300 -10.636700
C -16.667000 -21.527600 -11.184900
H -16.102200 -23.257900 -10.242000
O -15.633000 -20.847300 -11.135000
68
Fragment
O -21.174400 -21.421200 -14.534200
H -20.791800 -22.445900 -16.905200
C -20.223500 -21.295800 -15.321000
N -20.126100 -21.873400 -16.541900
N -19.120400 -20.557300 -15.104600
H -19.089100 -21.167800 -18.093300
H -18.950000 -20.088600 -14.296800
C -18.907000 -21.528800 -17.234300
H -18.441200 -23.380700 -18.050000
C -18.214000 -20.554700 -16.246800
H -18.149600 -25.285900 -16.440900
H -18.078700 -19.671900 -16.568100
C -17.993500 -22.732200 -17.520200
C -17.688100 -24.676600 -15.877000
C -17.565400 -23.350300 -16.236300
H -17.234500 -26.018000 -14.435800
C -17.132800 -25.108500 -14.688900
H -17.038400 -21.834100 -19.054500
C -16.871000 -22.466200 -15.391800
C -16.796800 -21.065200 -15.934700
C -16.731300 -22.162200 -18.217900
C -16.441200 -24.258600 -13.866700
H -16.361900 -20.510400 -15.298700
C -16.303600 -22.927300 -14.226000
H -16.104200 -20.212700 -17.601500
C -16.065200 -21.107000 -17.285500
H -16.058800 -24.579000 -13.057500
H -15.817100 -22.333200 -13.667300
H -15.770700 -23.936800 -18.895900
N -15.675500 -23.141300 -18.384400
N -14.691400 -21.573200 -17.193700
C -14.549200 -22.806900 -17.741800
H -13.984400 -21.076600 -16.798900
O -13.515100 -23.487200 -17.692000
O -23.292200 -22.913300 -7.977200
H -22.909600 -21.888600 -10.348200
C -22.341300 -23.038700 -8.764000
N -22.243900 -22.461100 -9.984900
N -21.238300 -23.777200 -8.547700
H -21.207000 -23.166700 -11.536300
H -21.067900 -24.245900 -7.739800
C -21.024900 -22.805700 -10.677400
H -20.559000 -20.953800 -11.493000
C -20.331800 -23.779800 -9.689900
H -20.267500 -19.048600 -9.884000
H -20.196500 -24.662600 -10.011200
C -20.111300 -21.602300 -10.963200
C -19.805900 -19.657900 -9.320100
C -19.683200 -20.984200 -9.679400
H -19.352300 -18.316500 -7.878800
C -19.250700 -19.226000 -8.131900
H -19.156200 -22.500400 -12.497600
C -18.988800 -21.868300 -8.834800
C -18.914700 -23.269300 -9.377800
C -18.849100 -22.172300 -11.660900
C -18.559000 -20.075900 -7.309700
H -18.479700 -23.824100 -8.741700
C -18.421400 -21.407200 -7.669000
H -18.222000 -24.121800 -11.044500
C -18.183100 -23.227500 -10.728500
H -18.176700 -19.755500 -6.500600
H -17.934900 -22.001300 -7.110400
H -17.888600 -20.397700 -12.338900
N -17.793300 -21.193200 -11.827400
N -16.809200 -22.761300 -10.636700
C -16.667000 -21.527600 -11.184900
H -16.102200 -23.257900 -10.242000
O -15.633000 -20.847300 -11.135000
