34
Fragment
O -21.174400 -21.421200 -14.534200
H -20.791800 -22.445900 -16.905200
C -20.223500 -21.295800 -15.321000
N -20.126100 -21.873400 -16.541900
N -19.120400 -20.557300 -15.104600
H -19.089100 -21.167800 -18.093300
H -18.950000 -20.088600 -14.296800
C -18.907000 -21.528800 -17.234300
H -18.441200 -23.380700 -18.050000
C -18.214000 -20.554700 -16.246800
H -18.149600 -25.285900 -16.440900
H -18.078700 -19.671900 -16.568100
C -17.993500 -22.732200 -17.520200
C -17.688100 -24.676600 -15.877000
C -17.565400 -23.350300 -16.236300
H -17.234500 -26.018000 -14.435800
C -17.132800 -25.108500 -14.688900
H -17.038400 -21.834100 -19.054500
C -16.871000 -22.466200 -15.391800
C -16.796800 -21.065200 -15.934700
C -16.731300 -22.162200 -18.217900
C -16.441200 -24.258600 -13.866700
H -16.361900 -20.510400 -15.298700
C -16.303600 -22.927300 -14.226000
H -16.104200 -20.212700 -17.601500
C -16.065200 -21.107000 -17.285500
H -16.058800 -24.579000 -13.057500
H -15.817100 -22.333200 -13.667300
H -15.770700 -23.936800 -18.895900
N -15.675500 -23.141300 -18.384400
N -14.691400 -21.573200 -17.193700
C -14.549200 -22.806900 -17.741800
H -13.984400 -21.076600 -16.798900
O -13.515100 -23.487200 -17.692000
34
Fragment
O -17.055500 -29.916900 -15.144000
H -16.779700 -29.167000 -17.610700
C -16.088600 -30.030900 -15.903300
N -16.037800 -29.558400 -17.164800
N -14.932900 -30.656700 -15.629200
H -14.784900 -30.070200 -18.645400
H -14.755600 -31.086100 -14.801700
C -14.726500 -29.711700 -17.768100
H -14.496900 -25.926800 -16.758300
H -14.493800 -27.776200 -18.452600
C -13.983300 -30.609800 -16.720300
C -13.970500 -28.386700 -17.946400
C -13.938900 -26.481600 -16.225900
H -13.753200 -31.486400 -17.006100
C -13.649600 -27.774900 -16.623200
H -13.622000 -25.128800 -14.751900
C -13.405200 -26.006600 -15.043000
H -12.864400 -29.050500 -19.475500
C -12.855500 -28.586900 -15.810100
C -12.631000 -29.966300 -16.371400
C -12.628500 -28.756600 -18.603400
C -12.573300 -26.780600 -14.285000
C -12.301200 -28.087800 -14.654800
H -12.178400 -26.420800 -13.499500
H -12.155400 -30.497100 -15.743300
C -11.883400 -29.795300 -17.710400
H -11.834100 -26.845200 -19.110900
H -11.831900 -30.665500 -18.085400
H -11.738300 -28.632500 -14.117100
N -11.673000 -27.660900 -18.649300
N -10.572700 -29.194900 -17.530700
C -10.549400 -27.916800 -17.977900
H -9.827100 -29.642000 -17.147800
O -9.600800 -27.127600 -17.802100
68
Fragment
O -21.174400 -21.421200 -14.534200
H -20.791800 -22.445900 -16.905200
C -20.223500 -21.295800 -15.321000
N -20.126100 -21.873400 -16.541900
N -19.120400 -20.557300 -15.104600
H -19.089100 -21.167800 -18.093300
H -18.950000 -20.088600 -14.296800
C -18.907000 -21.528800 -17.234300
H -18.441200 -23.380700 -18.050000
C -18.214000 -20.554700 -16.246800
H -18.149600 -25.285900 -16.440900
H -18.078700 -19.671900 -16.568100
C -17.993500 -22.732200 -17.520200
C -17.688100 -24.676600 -15.877000
C -17.565400 -23.350300 -16.236300
H -17.234500 -26.018000 -14.435800
C -17.132800 -25.108500 -14.688900
H -17.038400 -21.834100 -19.054500
C -16.871000 -22.466200 -15.391800
C -16.796800 -21.065200 -15.934700
C -16.731300 -22.162200 -18.217900
C -16.441200 -24.258600 -13.866700
H -16.361900 -20.510400 -15.298700
C -16.303600 -22.927300 -14.226000
H -16.104200 -20.212700 -17.601500
C -16.065200 -21.107000 -17.285500
H -16.058800 -24.579000 -13.057500
H -15.817100 -22.333200 -13.667300
H -15.770700 -23.936800 -18.895900
N -15.675500 -23.141300 -18.384400
N -14.691400 -21.573200 -17.193700
C -14.549200 -22.806900 -17.741800
H -13.984400 -21.076600 -16.798900
O -13.515100 -23.487200 -17.692000
O -17.055500 -29.916900 -15.144000
H -16.779700 -29.167000 -17.610700
C -16.088600 -30.030900 -15.903300
N -16.037800 -29.558400 -17.164800
N -14.932900 -30.656700 -15.629200
H -14.784900 -30.070200 -18.645400
H -14.755600 -31.086100 -14.801700
C -14.726500 -29.711700 -17.768100
H -14.496900 -25.926800 -16.758300
H -14.493800 -27.776200 -18.452600
C -13.983300 -30.609800 -16.720300
C -13.970500 -28.386700 -17.946400
C -13.938900 -26.481600 -16.225900
H -13.753200 -31.486400 -17.006100
C -13.649600 -27.774900 -16.623200
H -13.622000 -25.128800 -14.751900
C -13.405200 -26.006600 -15.043000
H -12.864400 -29.050500 -19.475500
C -12.855500 -28.586900 -15.810100
C -12.631000 -29.966300 -16.371400
C -12.628500 -28.756600 -18.603400
C -12.573300 -26.780600 -14.285000
C -12.301200 -28.087800 -14.654800
H -12.178400 -26.420800 -13.499500
H -12.155400 -30.497100 -15.743300
C -11.883400 -29.795300 -17.710400
H -11.834100 -26.845200 -19.110900
H -11.831900 -30.665500 -18.085400
H -11.738300 -28.632500 -14.117100
N -11.673000 -27.660900 -18.649300
N -10.572700 -29.194900 -17.530700
C -10.549400 -27.916800 -17.977900
H -9.827100 -29.642000 -17.147800
O -9.600800 -27.127600 -17.802100
