34
Fragment
O -21.174400 -21.421200 -14.534200
H -20.791800 -22.445900 -16.905200
C -20.223500 -21.295800 -15.321000
N -20.126100 -21.873400 -16.541900
N -19.120400 -20.557300 -15.104600
H -19.089100 -21.167800 -18.093300
H -18.950000 -20.088600 -14.296800
C -18.907000 -21.528800 -17.234300
H -18.441200 -23.380700 -18.050000
C -18.214000 -20.554700 -16.246800
H -18.149600 -25.285900 -16.440900
H -18.078700 -19.671900 -16.568100
C -17.993500 -22.732200 -17.520200
C -17.688100 -24.676600 -15.877000
C -17.565400 -23.350300 -16.236300
H -17.234500 -26.018000 -14.435800
C -17.132800 -25.108500 -14.688900
H -17.038400 -21.834100 -19.054500
C -16.871000 -22.466200 -15.391800
C -16.796800 -21.065200 -15.934700
C -16.731300 -22.162200 -18.217900
C -16.441200 -24.258600 -13.866700
H -16.361900 -20.510400 -15.298700
C -16.303600 -22.927300 -14.226000
H -16.104200 -20.212700 -17.601500
C -16.065200 -21.107000 -17.285500
H -16.058800 -24.579000 -13.057500
H -15.817100 -22.333200 -13.667300
H -15.770700 -23.936800 -18.895900
N -15.675500 -23.141300 -18.384400
N -14.691400 -21.573200 -17.193700
C -14.549200 -22.806900 -17.741800
H -13.984400 -21.076600 -16.798900
O -13.515100 -23.487200 -17.692000
34
Fragment
O -29.580000 -20.794100 -14.982700
H -29.353700 -23.308500 -15.637000
C -28.631400 -21.583300 -14.806900
N -28.608100 -22.861400 -15.254100
N -27.507800 -21.327400 -14.135500
H -27.442500 -22.299000 -18.667700
H -27.348900 -24.332000 -14.699400
H -27.346700 -20.511700 -13.673900
C -27.297400 -23.461800 -15.074500
H -27.025400 -24.163600 -17.041500
H -27.002400 -20.087300 -19.285300
C -26.879600 -21.754300 -18.130000
C -26.607500 -20.447100 -18.499800
C -26.552300 -22.423100 -14.181400
C -26.549800 -23.632800 -16.413400
C -26.325300 -22.253400 -16.974700
H -26.316400 -22.717000 -13.309300
C -25.775600 -19.673100 -17.741800
H -25.558800 -18.795300 -18.033000
C -25.531200 -21.441400 -16.161600
H -25.427600 -25.152900 -15.778700
C -25.241900 -20.148100 -16.558900
C -25.210300 -22.053200 -14.838400
C -25.197500 -24.276300 -16.064600
H -24.687000 -21.442700 -14.332200
H -24.683900 -19.593300 -16.026500
C -24.454300 -23.378200 -15.016800
H -24.425200 -24.752600 -17.983100
H -24.395900 -23.736700 -14.139400
N -24.247900 -24.323200 -17.155600
N -23.142900 -23.224900 -15.620000
C -23.092200 -23.697400 -16.881600
H -22.401100 -22.833500 -15.174100
O -22.125300 -23.583400 -17.640800
68
Fragment
O -21.174400 -21.421200 -14.534200
H -20.791800 -22.445900 -16.905200
C -20.223500 -21.295800 -15.321000
N -20.126100 -21.873400 -16.541900
N -19.120400 -20.557300 -15.104600
H -19.089100 -21.167800 -18.093300
H -18.950000 -20.088600 -14.296800
C -18.907000 -21.528800 -17.234300
H -18.441200 -23.380700 -18.050000
C -18.214000 -20.554700 -16.246800
H -18.149600 -25.285900 -16.440900
H -18.078700 -19.671900 -16.568100
C -17.993500 -22.732200 -17.520200
C -17.688100 -24.676600 -15.877000
C -17.565400 -23.350300 -16.236300
H -17.234500 -26.018000 -14.435800
C -17.132800 -25.108500 -14.688900
H -17.038400 -21.834100 -19.054500
C -16.871000 -22.466200 -15.391800
C -16.796800 -21.065200 -15.934700
C -16.731300 -22.162200 -18.217900
C -16.441200 -24.258600 -13.866700
H -16.361900 -20.510400 -15.298700
C -16.303600 -22.927300 -14.226000
H -16.104200 -20.212700 -17.601500
C -16.065200 -21.107000 -17.285500
H -16.058800 -24.579000 -13.057500
H -15.817100 -22.333200 -13.667300
H -15.770700 -23.936800 -18.895900
N -15.675500 -23.141300 -18.384400
N -14.691400 -21.573200 -17.193700
C -14.549200 -22.806900 -17.741800
H -13.984400 -21.076600 -16.798900
O -13.515100 -23.487200 -17.692000
O -29.580000 -20.794100 -14.982700
H -29.353700 -23.308500 -15.637000
C -28.631400 -21.583300 -14.806900
N -28.608100 -22.861400 -15.254100
N -27.507800 -21.327400 -14.135500
H -27.442500 -22.299000 -18.667700
H -27.348900 -24.332000 -14.699400
H -27.346700 -20.511700 -13.673900
C -27.297400 -23.461800 -15.074500
H -27.025400 -24.163600 -17.041500
H -27.002400 -20.087300 -19.285300
C -26.879600 -21.754300 -18.130000
C -26.607500 -20.447100 -18.499800
C -26.552300 -22.423100 -14.181400
C -26.549800 -23.632800 -16.413400
C -26.325300 -22.253400 -16.974700
H -26.316400 -22.717000 -13.309300
C -25.775600 -19.673100 -17.741800
H -25.558800 -18.795300 -18.033000
C -25.531200 -21.441400 -16.161600
H -25.427600 -25.152900 -15.778700
C -25.241900 -20.148100 -16.558900
C -25.210300 -22.053200 -14.838400
C -25.197500 -24.276300 -16.064600
H -24.687000 -21.442700 -14.332200
H -24.683900 -19.593300 -16.026500
C -24.454300 -23.378200 -15.016800
H -24.425200 -24.752600 -17.983100
H -24.395900 -23.736700 -14.139400
N -24.247900 -24.323200 -17.155600
N -23.142900 -23.224900 -15.620000
C -23.092200 -23.697400 -16.881600
H -22.401100 -22.833500 -15.174100
O -22.125300 -23.583400 -17.640800
