39
Fragment
O -17.860800 -16.289700 -17.733500
O -17.762500 -15.966200 -19.866800
N -17.273600 -16.198800 -18.769300
O -16.771100 -18.736300 -20.262500
O -16.472500 -18.553000 -15.949400
N -15.876200 -16.295600 -18.716700
H -15.800500 -16.378000 -16.706500
H -15.648100 -16.331400 -20.718900
N -15.620100 -19.015700 -20.018300
C -15.369200 -18.871300 -16.409900
C -15.231000 -16.622600 -17.465200
O -15.151100 -20.131300 -19.778400
C -15.142800 -16.595600 -19.921300
H -15.014300 -20.218100 -15.244400
H -14.884000 -20.586200 -16.763200
N -14.843700 -18.032500 -17.390800
C -14.726400 -19.904700 -16.104400
N -14.703700 -17.981800 -20.011500
C -13.868700 -15.851400 -17.408500
H -13.842900 -15.256600 -16.630500
H -13.788600 -19.701100 -16.073100
C -13.768000 -15.859800 -19.856500
N -13.688800 -15.098100 -18.626700
H -13.662100 -15.269000 -20.630900
C -13.462600 -18.126200 -17.807200
C -13.387000 -18.134000 -19.387400
H -13.033100 -18.921500 -17.429400
H -12.928900 -18.934900 -19.717300
N -12.859500 -16.902100 -17.284700
N -12.748000 -16.922900 -19.879300
N -12.644300 -14.132700 -18.606900
O -12.304300 -13.738300 -17.514800
O -12.221800 -13.764000 -19.674000
N -12.104600 -16.969200 -16.096200
N -12.088900 -17.075700 -21.155000
O -11.948200 -15.944400 -15.454600
O -11.933800 -16.071900 -21.796200
O -11.674400 -18.183100 -21.416400
O -11.589800 -18.115000 -15.809600
39
Fragment
O -9.693100 -16.289700 -17.733500
O -9.594800 -15.966200 -19.866800
N -9.105900 -16.198800 -18.769300
O -8.603400 -18.736300 -20.262500
O -8.304800 -18.553000 -15.949400
N -7.708500 -16.295600 -18.716700
H -7.632800 -16.378000 -16.706500
H -7.480400 -16.331400 -20.718900
N -7.452400 -19.015700 -20.018300
C -7.201500 -18.871300 -16.409900
C -7.063300 -16.622600 -17.465200
O -6.983400 -20.131300 -19.778400
C -6.975100 -16.595600 -19.921300
H -6.846600 -20.218100 -15.244400
H -6.716300 -20.586200 -16.763200
N -6.676000 -18.032500 -17.390800
C -6.558700 -19.904700 -16.104400
N -6.536000 -17.981800 -20.011500
C -5.701000 -15.851400 -17.408500
H -5.675200 -15.256600 -16.630500
H -5.620900 -19.701100 -16.073100
C -5.600300 -15.859800 -19.856500
N -5.521100 -15.098100 -18.626700
H -5.494400 -15.269000 -20.630900
C -5.294900 -18.126200 -17.807200
C -5.219300 -18.134000 -19.387400
H -4.865400 -18.921500 -17.429400
H -4.761200 -18.934900 -19.717300
N -4.691800 -16.902100 -17.284700
N -4.580300 -16.922900 -19.879300
N -4.476600 -14.132700 -18.606900
O -4.136600 -13.738300 -17.514800
O -4.054100 -13.764000 -19.674000
N -3.936900 -16.969200 -16.096200
N -3.921200 -17.075700 -21.155000
O -3.780500 -15.944400 -15.454600
O -3.766100 -16.071900 -21.796200
O -3.506700 -18.183100 -21.416400
O -3.422100 -18.115000 -15.809600
78
Fragment
O -17.860800 -16.289700 -17.733500
O -17.762500 -15.966200 -19.866800
N -17.273600 -16.198800 -18.769300
O -16.771100 -18.736300 -20.262500
O -16.472500 -18.553000 -15.949400
N -15.876200 -16.295600 -18.716700
H -15.800500 -16.378000 -16.706500
H -15.648100 -16.331400 -20.718900
N -15.620100 -19.015700 -20.018300
C -15.369200 -18.871300 -16.409900
C -15.231000 -16.622600 -17.465200
O -15.151100 -20.131300 -19.778400
C -15.142800 -16.595600 -19.921300
H -15.014300 -20.218100 -15.244400
H -14.884000 -20.586200 -16.763200
N -14.843700 -18.032500 -17.390800
C -14.726400 -19.904700 -16.104400
N -14.703700 -17.981800 -20.011500
C -13.868700 -15.851400 -17.408500
H -13.842900 -15.256600 -16.630500
H -13.788600 -19.701100 -16.073100
C -13.768000 -15.859800 -19.856500
N -13.688800 -15.098100 -18.626700
H -13.662100 -15.269000 -20.630900
C -13.462600 -18.126200 -17.807200
C -13.387000 -18.134000 -19.387400
H -13.033100 -18.921500 -17.429400
H -12.928900 -18.934900 -19.717300
N -12.859500 -16.902100 -17.284700
N -12.748000 -16.922900 -19.879300
N -12.644300 -14.132700 -18.606900
O -12.304300 -13.738300 -17.514800
O -12.221800 -13.764000 -19.674000
N -12.104600 -16.969200 -16.096200
N -12.088900 -17.075700 -21.155000
O -11.948200 -15.944400 -15.454600
O -11.933800 -16.071900 -21.796200
O -11.674400 -18.183100 -21.416400
O -11.589800 -18.115000 -15.809600
O -9.693100 -16.289700 -17.733500
O -9.594800 -15.966200 -19.866800
N -9.105900 -16.198800 -18.769300
O -8.603400 -18.736300 -20.262500
O -8.304800 -18.553000 -15.949400
N -7.708500 -16.295600 -18.716700
H -7.632800 -16.378000 -16.706500
H -7.480400 -16.331400 -20.718900
N -7.452400 -19.015700 -20.018300
C -7.201500 -18.871300 -16.409900
C -7.063300 -16.622600 -17.465200
O -6.983400 -20.131300 -19.778400
C -6.975100 -16.595600 -19.921300
H -6.846600 -20.218100 -15.244400
H -6.716300 -20.586200 -16.763200
N -6.676000 -18.032500 -17.390800
C -6.558700 -19.904700 -16.104400
N -6.536000 -17.981800 -20.011500
C -5.701000 -15.851400 -17.408500
H -5.675200 -15.256600 -16.630500
H -5.620900 -19.701100 -16.073100
C -5.600300 -15.859800 -19.856500
N -5.521100 -15.098100 -18.626700
H -5.494400 -15.269000 -20.630900
C -5.294900 -18.126200 -17.807200
C -5.219300 -18.134000 -19.387400
H -4.865400 -18.921500 -17.429400
H -4.761200 -18.934900 -19.717300
N -4.691800 -16.902100 -17.284700
N -4.580300 -16.922900 -19.879300
N -4.476600 -14.132700 -18.606900
O -4.136600 -13.738300 -17.514800
O -4.054100 -13.764000 -19.674000
N -3.936900 -16.969200 -16.096200
N -3.921200 -17.075700 -21.155000
O -3.780500 -15.944400 -15.454600
O -3.766100 -16.071900 -21.796200
O -3.506700 -18.183100 -21.416400
O -3.422100 -18.115000 -15.809600
