39
Fragment
O -17.860800 -16.289700 -17.733500
O -17.762500 -15.966200 -19.866800
N -17.273600 -16.198800 -18.769300
O -16.771100 -18.736300 -20.262500
O -16.472500 -18.553000 -15.949400
N -15.876200 -16.295600 -18.716700
H -15.800500 -16.378000 -16.706500
H -15.648100 -16.331400 -20.718900
N -15.620100 -19.015700 -20.018300
C -15.369200 -18.871300 -16.409900
C -15.231000 -16.622600 -17.465200
O -15.151100 -20.131300 -19.778400
C -15.142800 -16.595600 -19.921300
H -15.014300 -20.218100 -15.244400
H -14.884000 -20.586200 -16.763200
N -14.843700 -18.032500 -17.390800
C -14.726400 -19.904700 -16.104400
N -14.703700 -17.981800 -20.011500
C -13.868700 -15.851400 -17.408500
H -13.842900 -15.256600 -16.630500
H -13.788600 -19.701100 -16.073100
C -13.768000 -15.859800 -19.856500
N -13.688800 -15.098100 -18.626700
H -13.662100 -15.269000 -20.630900
C -13.462600 -18.126200 -17.807200
C -13.387000 -18.134000 -19.387400
H -13.033100 -18.921500 -17.429400
H -12.928900 -18.934900 -19.717300
N -12.859500 -16.902100 -17.284700
N -12.748000 -16.922900 -19.879300
N -12.644300 -14.132700 -18.606900
O -12.304300 -13.738300 -17.514800
O -12.221800 -13.764000 -19.674000
N -12.104600 -16.969200 -16.096200
N -12.088900 -17.075700 -21.155000
O -11.948200 -15.944400 -15.454600
O -11.933800 -16.071900 -21.796200
O -11.674400 -18.183100 -21.416400
O -11.589800 -18.115000 -15.809600
39
Fragment
O -17.944400 -24.482700 -13.999600
O -17.859800 -24.414600 -8.392800
O -17.600400 -26.525700 -8.013000
O -17.585900 -26.653200 -14.354600
N -17.445300 -25.521900 -8.654200
N -17.429600 -25.628500 -13.713000
O -17.312400 -28.833700 -10.135100
O -17.229900 -28.859300 -12.294300
N -16.889800 -28.465000 -11.202300
N -16.786200 -25.674800 -9.929900
N -16.674600 -25.695600 -12.524500
H -16.605200 -23.662700 -10.091900
H -16.501000 -23.676100 -12.379700
C -16.147100 -24.463700 -10.421700
C -16.071600 -24.471500 -12.001900
H -15.872100 -27.328700 -9.178200
N -15.845400 -27.499600 -11.182500
C -15.766200 -26.737900 -9.952700
H -15.745600 -22.896500 -13.736100
H -15.691300 -27.341100 -13.178600
C -15.665400 -26.746300 -12.400600
N -14.830400 -24.615900 -9.797700
C -14.807800 -22.692900 -13.704800
N -14.690400 -24.565200 -12.418300
H -14.650100 -22.011500 -13.046000
H -14.519800 -22.379600 -14.564800
C -14.391300 -26.002100 -9.887800
O -14.383100 -22.466300 -10.030800
C -14.303100 -25.975000 -12.344000
C -14.164900 -23.726400 -13.399200
N -13.914100 -23.582000 -9.790800
H -13.886100 -26.266300 -9.090300
H -13.733600 -26.219600 -13.102600
N -13.658000 -26.302100 -11.092400
O -13.061600 -24.044700 -13.859800
O -12.763100 -23.861400 -9.546700
N -12.260500 -26.398800 -11.039800
O -11.771600 -26.631500 -9.942400
O -11.673400 -26.307900 -12.075700
78
Fragment
O -17.860800 -16.289700 -17.733500
O -17.762500 -15.966200 -19.866800
N -17.273600 -16.198800 -18.769300
O -16.771100 -18.736300 -20.262500
O -16.472500 -18.553000 -15.949400
N -15.876200 -16.295600 -18.716700
H -15.800500 -16.378000 -16.706500
H -15.648100 -16.331400 -20.718900
N -15.620100 -19.015700 -20.018300
C -15.369200 -18.871300 -16.409900
C -15.231000 -16.622600 -17.465200
O -15.151100 -20.131300 -19.778400
C -15.142800 -16.595600 -19.921300
H -15.014300 -20.218100 -15.244400
H -14.884000 -20.586200 -16.763200
N -14.843700 -18.032500 -17.390800
C -14.726400 -19.904700 -16.104400
N -14.703700 -17.981800 -20.011500
C -13.868700 -15.851400 -17.408500
H -13.842900 -15.256600 -16.630500
H -13.788600 -19.701100 -16.073100
C -13.768000 -15.859800 -19.856500
N -13.688800 -15.098100 -18.626700
H -13.662100 -15.269000 -20.630900
C -13.462600 -18.126200 -17.807200
C -13.387000 -18.134000 -19.387400
H -13.033100 -18.921500 -17.429400
H -12.928900 -18.934900 -19.717300
N -12.859500 -16.902100 -17.284700
N -12.748000 -16.922900 -19.879300
N -12.644300 -14.132700 -18.606900
O -12.304300 -13.738300 -17.514800
O -12.221800 -13.764000 -19.674000
N -12.104600 -16.969200 -16.096200
N -12.088900 -17.075700 -21.155000
O -11.948200 -15.944400 -15.454600
O -11.933800 -16.071900 -21.796200
O -11.674400 -18.183100 -21.416400
O -11.589800 -18.115000 -15.809600
O -17.944400 -24.482700 -13.999600
O -17.859800 -24.414600 -8.392800
O -17.600400 -26.525700 -8.013000
O -17.585900 -26.653200 -14.354600
N -17.445300 -25.521900 -8.654200
N -17.429600 -25.628500 -13.713000
O -17.312400 -28.833700 -10.135100
O -17.229900 -28.859300 -12.294300
N -16.889800 -28.465000 -11.202300
N -16.786200 -25.674800 -9.929900
N -16.674600 -25.695600 -12.524500
H -16.605200 -23.662700 -10.091900
H -16.501000 -23.676100 -12.379700
C -16.147100 -24.463700 -10.421700
C -16.071600 -24.471500 -12.001900
H -15.872100 -27.328700 -9.178200
N -15.845400 -27.499600 -11.182500
C -15.766200 -26.737900 -9.952700
H -15.745600 -22.896500 -13.736100
H -15.691300 -27.341100 -13.178600
C -15.665400 -26.746300 -12.400600
N -14.830400 -24.615900 -9.797700
C -14.807800 -22.692900 -13.704800
N -14.690400 -24.565200 -12.418300
H -14.650100 -22.011500 -13.046000
H -14.519800 -22.379600 -14.564800
C -14.391300 -26.002100 -9.887800
O -14.383100 -22.466300 -10.030800
C -14.303100 -25.975000 -12.344000
C -14.164900 -23.726400 -13.399200
N -13.914100 -23.582000 -9.790800
H -13.886100 -26.266300 -9.090300
H -13.733600 -26.219600 -13.102600
N -13.658000 -26.302100 -11.092400
O -13.061600 -24.044700 -13.859800
O -12.763100 -23.861400 -9.546700
N -12.260500 -26.398800 -11.039800
O -11.771600 -26.631500 -9.942400
O -11.673400 -26.307900 -12.075700
