39
Fragment
O -17.860800 -16.289700 -17.733500
O -17.762500 -15.966200 -19.866800
N -17.273600 -16.198800 -18.769300
O -16.771100 -18.736300 -20.262500
O -16.472500 -18.553000 -15.949400
N -15.876200 -16.295600 -18.716700
H -15.800500 -16.378000 -16.706500
H -15.648100 -16.331400 -20.718900
N -15.620100 -19.015700 -20.018300
C -15.369200 -18.871300 -16.409900
C -15.231000 -16.622600 -17.465200
O -15.151100 -20.131300 -19.778400
C -15.142800 -16.595600 -19.921300
H -15.014300 -20.218100 -15.244400
H -14.884000 -20.586200 -16.763200
N -14.843700 -18.032500 -17.390800
C -14.726400 -19.904700 -16.104400
N -14.703700 -17.981800 -20.011500
C -13.868700 -15.851400 -17.408500
H -13.842900 -15.256600 -16.630500
H -13.788600 -19.701100 -16.073100
C -13.768000 -15.859800 -19.856500
N -13.688800 -15.098100 -18.626700
H -13.662100 -15.269000 -20.630900
C -13.462600 -18.126200 -17.807200
C -13.387000 -18.134000 -19.387400
H -13.033100 -18.921500 -17.429400
H -12.928900 -18.934900 -19.717300
N -12.859500 -16.902100 -17.284700
N -12.748000 -16.922900 -19.879300
N -12.644300 -14.132700 -18.606900
O -12.304300 -13.738300 -17.514800
O -12.221800 -13.764000 -19.674000
N -12.104600 -16.969200 -16.096200
N -12.088900 -17.075700 -21.155000
O -11.948200 -15.944400 -15.454600
O -11.933800 -16.071900 -21.796200
O -11.674400 -18.183100 -21.416400
O -11.589800 -18.115000 -15.809600
39
Fragment
O -21.041000 -25.917100 -17.733500
O -20.942700 -25.593500 -19.866800
N -20.453800 -25.826200 -18.769300
O -19.951300 -28.363600 -20.262500
O -19.652700 -28.180300 -15.949400
N -19.056400 -25.922900 -18.716700
H -18.980700 -26.005400 -16.706500
H -18.828300 -25.958700 -20.718900
N -18.800300 -28.643000 -20.018300
C -18.549400 -28.498600 -16.409900
C -18.411200 -26.250000 -17.465200
O -18.331300 -29.758700 -19.778400
C -18.323000 -26.222900 -19.921300
H -18.194500 -29.845400 -15.244400
H -18.064200 -30.213500 -16.763200
N -18.023900 -27.659800 -17.390800
C -17.906600 -29.532100 -16.104400
N -17.883900 -27.609100 -20.011500
C -17.048900 -25.478700 -17.408500
H -17.023100 -24.883900 -16.630500
H -16.968800 -29.328500 -16.073100
C -16.948200 -25.487200 -19.856500
N -16.869000 -24.725400 -18.626700
H -16.842300 -24.896300 -20.630900
C -16.642800 -27.753500 -17.807200
C -16.567200 -27.761300 -19.387400
H -16.213300 -28.548900 -17.429400
H -16.109100 -28.562300 -19.717300
N -16.039700 -26.529400 -17.284700
N -15.928200 -26.550200 -19.879300
N -15.824500 -23.760000 -18.606900
O -15.484500 -23.365700 -17.514800
O -15.402000 -23.391300 -19.674000
N -15.284800 -26.596500 -16.096200
N -15.269100 -26.703100 -21.155000
O -15.128400 -25.571800 -15.454600
O -15.114000 -25.699300 -21.796200
O -14.854600 -27.810400 -21.416400
O -14.770000 -27.742300 -15.809600
78
Fragment
O -17.860800 -16.289700 -17.733500
O -17.762500 -15.966200 -19.866800
N -17.273600 -16.198800 -18.769300
O -16.771100 -18.736300 -20.262500
O -16.472500 -18.553000 -15.949400
N -15.876200 -16.295600 -18.716700
H -15.800500 -16.378000 -16.706500
H -15.648100 -16.331400 -20.718900
N -15.620100 -19.015700 -20.018300
C -15.369200 -18.871300 -16.409900
C -15.231000 -16.622600 -17.465200
O -15.151100 -20.131300 -19.778400
C -15.142800 -16.595600 -19.921300
H -15.014300 -20.218100 -15.244400
H -14.884000 -20.586200 -16.763200
N -14.843700 -18.032500 -17.390800
C -14.726400 -19.904700 -16.104400
N -14.703700 -17.981800 -20.011500
C -13.868700 -15.851400 -17.408500
H -13.842900 -15.256600 -16.630500
H -13.788600 -19.701100 -16.073100
C -13.768000 -15.859800 -19.856500
N -13.688800 -15.098100 -18.626700
H -13.662100 -15.269000 -20.630900
C -13.462600 -18.126200 -17.807200
C -13.387000 -18.134000 -19.387400
H -13.033100 -18.921500 -17.429400
H -12.928900 -18.934900 -19.717300
N -12.859500 -16.902100 -17.284700
N -12.748000 -16.922900 -19.879300
N -12.644300 -14.132700 -18.606900
O -12.304300 -13.738300 -17.514800
O -12.221800 -13.764000 -19.674000
N -12.104600 -16.969200 -16.096200
N -12.088900 -17.075700 -21.155000
O -11.948200 -15.944400 -15.454600
O -11.933800 -16.071900 -21.796200
O -11.674400 -18.183100 -21.416400
O -11.589800 -18.115000 -15.809600
O -21.041000 -25.917100 -17.733500
O -20.942700 -25.593500 -19.866800
N -20.453800 -25.826200 -18.769300
O -19.951300 -28.363600 -20.262500
O -19.652700 -28.180300 -15.949400
N -19.056400 -25.922900 -18.716700
H -18.980700 -26.005400 -16.706500
H -18.828300 -25.958700 -20.718900
N -18.800300 -28.643000 -20.018300
C -18.549400 -28.498600 -16.409900
C -18.411200 -26.250000 -17.465200
O -18.331300 -29.758700 -19.778400
C -18.323000 -26.222900 -19.921300
H -18.194500 -29.845400 -15.244400
H -18.064200 -30.213500 -16.763200
N -18.023900 -27.659800 -17.390800
C -17.906600 -29.532100 -16.104400
N -17.883900 -27.609100 -20.011500
C -17.048900 -25.478700 -17.408500
H -17.023100 -24.883900 -16.630500
H -16.968800 -29.328500 -16.073100
C -16.948200 -25.487200 -19.856500
N -16.869000 -24.725400 -18.626700
H -16.842300 -24.896300 -20.630900
C -16.642800 -27.753500 -17.807200
C -16.567200 -27.761300 -19.387400
H -16.213300 -28.548900 -17.429400
H -16.109100 -28.562300 -19.717300
N -16.039700 -26.529400 -17.284700
N -15.928200 -26.550200 -19.879300
N -15.824500 -23.760000 -18.606900
O -15.484500 -23.365700 -17.514800
O -15.402000 -23.391300 -19.674000
N -15.284800 -26.596500 -16.096200
N -15.269100 -26.703100 -21.155000
O -15.128400 -25.571800 -15.454600
O -15.114000 -25.699300 -21.796200
O -14.854600 -27.810400 -21.416400
O -14.770000 -27.742300 -15.809600
