39
Fragment
O -17.860800 -16.289700 -17.733500
O -17.762500 -15.966200 -19.866800
N -17.273600 -16.198800 -18.769300
O -16.771100 -18.736300 -20.262500
O -16.472500 -18.553000 -15.949400
N -15.876200 -16.295600 -18.716700
H -15.800500 -16.378000 -16.706500
H -15.648100 -16.331400 -20.718900
N -15.620100 -19.015700 -20.018300
C -15.369200 -18.871300 -16.409900
C -15.231000 -16.622600 -17.465200
O -15.151100 -20.131300 -19.778400
C -15.142800 -16.595600 -19.921300
H -15.014300 -20.218100 -15.244400
H -14.884000 -20.586200 -16.763200
N -14.843700 -18.032500 -17.390800
C -14.726400 -19.904700 -16.104400
N -14.703700 -17.981800 -20.011500
C -13.868700 -15.851400 -17.408500
H -13.842900 -15.256600 -16.630500
H -13.788600 -19.701100 -16.073100
C -13.768000 -15.859800 -19.856500
N -13.688800 -15.098100 -18.626700
H -13.662100 -15.269000 -20.630900
C -13.462600 -18.126200 -17.807200
C -13.387000 -18.134000 -19.387400
H -13.033100 -18.921500 -17.429400
H -12.928900 -18.934900 -19.717300
N -12.859500 -16.902100 -17.284700
N -12.748000 -16.922900 -19.879300
N -12.644300 -14.132700 -18.606900
O -12.304300 -13.738300 -17.514800
O -12.221800 -13.764000 -19.674000
N -12.104600 -16.969200 -16.096200
N -12.088900 -17.075700 -21.155000
O -11.948200 -15.944400 -15.454600
O -11.933800 -16.071900 -21.796200
O -11.674400 -18.183100 -21.416400
O -11.589800 -18.115000 -15.809600
14
Fragment
H -12.247900 -21.040000 -13.108600
H -11.448600 -22.542800 -11.557000
H -11.406500 -21.089500 -10.963800
C -11.290500 -21.121500 -12.972900
C -11.023900 -21.674600 -11.636000
H -10.939100 -21.720000 -13.651100
O -10.680100 -19.848400 -13.096700
O -9.624700 -21.809500 -11.405000
H -9.414500 -19.953500 -10.865400
C -9.290700 -20.002700 -12.888000
C -9.042600 -20.553200 -11.531700
H -8.924900 -20.603600 -13.555700
H -8.848700 -19.144900 -12.978900
H -8.087300 -20.619800 -11.378200
53
Fragment
O -17.860800 -16.289700 -17.733500
O -17.762500 -15.966200 -19.866800
N -17.273600 -16.198800 -18.769300
O -16.771100 -18.736300 -20.262500
O -16.472500 -18.553000 -15.949400
N -15.876200 -16.295600 -18.716700
H -15.800500 -16.378000 -16.706500
H -15.648100 -16.331400 -20.718900
N -15.620100 -19.015700 -20.018300
C -15.369200 -18.871300 -16.409900
C -15.231000 -16.622600 -17.465200
O -15.151100 -20.131300 -19.778400
C -15.142800 -16.595600 -19.921300
H -15.014300 -20.218100 -15.244400
H -14.884000 -20.586200 -16.763200
N -14.843700 -18.032500 -17.390800
C -14.726400 -19.904700 -16.104400
N -14.703700 -17.981800 -20.011500
C -13.868700 -15.851400 -17.408500
H -13.842900 -15.256600 -16.630500
H -13.788600 -19.701100 -16.073100
C -13.768000 -15.859800 -19.856500
N -13.688800 -15.098100 -18.626700
H -13.662100 -15.269000 -20.630900
C -13.462600 -18.126200 -17.807200
C -13.387000 -18.134000 -19.387400
H -13.033100 -18.921500 -17.429400
H -12.928900 -18.934900 -19.717300
N -12.859500 -16.902100 -17.284700
N -12.748000 -16.922900 -19.879300
N -12.644300 -14.132700 -18.606900
O -12.304300 -13.738300 -17.514800
O -12.221800 -13.764000 -19.674000
N -12.104600 -16.969200 -16.096200
N -12.088900 -17.075700 -21.155000
O -11.948200 -15.944400 -15.454600
O -11.933800 -16.071900 -21.796200
O -11.674400 -18.183100 -21.416400
O -11.589800 -18.115000 -15.809600
H -12.247900 -21.040000 -13.108600
H -11.448600 -22.542800 -11.557000
H -11.406500 -21.089500 -10.963800
C -11.290500 -21.121500 -12.972900
C -11.023900 -21.674600 -11.636000
H -10.939100 -21.720000 -13.651100
O -10.680100 -19.848400 -13.096700
O -9.624700 -21.809500 -11.405000
H -9.414500 -19.953500 -10.865400
C -9.290700 -20.002700 -12.888000
C -9.042600 -20.553200 -11.531700
H -8.924900 -20.603600 -13.555700
H -8.848700 -19.144900 -12.978900
H -8.087300 -20.619800 -11.378200
