3
Fragment
H -23.346100 -16.694200 -40.159800
O -22.773900 -17.277400 -40.278300
H -22.135300 -16.863100 -40.766300
51
Fragment
F -25.359700 -9.659300 -46.237100
H -24.782700 -7.583700 -44.900800
C -24.728000 -9.586600 -45.041400
Cl -24.694600 -12.279500 -45.107900
C -24.496900 -8.358300 -44.472900
C -24.334700 -10.738700 -44.400900
C -23.835400 -8.282500 -43.259400
C -23.681800 -10.682100 -43.175500
H -23.668900 -7.451100 -42.877400
H -23.424900 -11.464800 -42.743200
C -23.414900 -9.441000 -42.600200
H -22.880900 -8.477500 -41.019200
N -22.783100 -9.257600 -41.368700
H -22.556600 -14.204100 -41.605100
C -22.029800 -10.135300 -40.632600
N -21.872800 -11.381200 -41.055100
H -21.823100 -13.175500 -42.534200
C -21.687000 -13.910800 -41.916600
H -21.574600 -15.381200 -43.344500
N -21.511700 -9.573300 -39.522900
H -21.262400 -7.629700 -38.626800
H -21.180600 -14.866900 -39.393300
C -21.143200 -12.201500 -40.262000
C -20.999100 -15.052000 -42.635600
N -20.897800 -7.549500 -37.850800
N -20.891300 -13.447700 -40.775900
C -20.838900 -10.421200 -38.739600
N -20.802200 -6.368400 -37.163300
H -20.733600 -17.635100 -43.042600
N -20.692700 -16.141300 -41.711100
C -20.650200 -11.767500 -39.027100
H -20.526000 -5.855900 -34.218800
C -20.429100 -14.515000 -39.896100
C -20.350000 -8.571000 -37.162000
N -20.287600 -9.885700 -37.594500
H -20.222900 -12.343700 -38.435900
H -20.177400 -14.731200 -43.040000
C -20.175400 -6.689500 -36.033100
H -20.151700 -4.795300 -35.310500
C -20.107700 -17.294700 -42.399700
C -19.952500 -5.668300 -34.965500
H -19.903100 -17.979300 -41.759900
C -19.860900 -8.048100 -35.983300
H -19.854600 -10.430900 -37.091300
H -19.788000 -14.155900 -39.264300
C -19.784900 -15.633100 -40.685800
H -19.541000 -16.354200 -40.085000
H -19.418200 -8.502100 -35.302800
H -19.303000 -17.025600 -42.849000
H -19.036300 -5.697700 -34.680800
H -18.974200 -15.305300 -41.107000
54
Fragment
H -23.346100 -16.694200 -40.159800
O -22.773900 -17.277400 -40.278300
H -22.135300 -16.863100 -40.766300
F -25.359700 -9.659300 -46.237100
H -24.782700 -7.583700 -44.900800
C -24.728000 -9.586600 -45.041400
Cl -24.694600 -12.279500 -45.107900
C -24.496900 -8.358300 -44.472900
C -24.334700 -10.738700 -44.400900
C -23.835400 -8.282500 -43.259400
C -23.681800 -10.682100 -43.175500
H -23.668900 -7.451100 -42.877400
H -23.424900 -11.464800 -42.743200
C -23.414900 -9.441000 -42.600200
H -22.880900 -8.477500 -41.019200
N -22.783100 -9.257600 -41.368700
H -22.556600 -14.204100 -41.605100
C -22.029800 -10.135300 -40.632600
N -21.872800 -11.381200 -41.055100
H -21.823100 -13.175500 -42.534200
C -21.687000 -13.910800 -41.916600
H -21.574600 -15.381200 -43.344500
N -21.511700 -9.573300 -39.522900
H -21.262400 -7.629700 -38.626800
H -21.180600 -14.866900 -39.393300
C -21.143200 -12.201500 -40.262000
C -20.999100 -15.052000 -42.635600
N -20.897800 -7.549500 -37.850800
N -20.891300 -13.447700 -40.775900
C -20.838900 -10.421200 -38.739600
N -20.802200 -6.368400 -37.163300
H -20.733600 -17.635100 -43.042600
N -20.692700 -16.141300 -41.711100
C -20.650200 -11.767500 -39.027100
H -20.526000 -5.855900 -34.218800
C -20.429100 -14.515000 -39.896100
C -20.350000 -8.571000 -37.162000
N -20.287600 -9.885700 -37.594500
H -20.222900 -12.343700 -38.435900
H -20.177400 -14.731200 -43.040000
C -20.175400 -6.689500 -36.033100
H -20.151700 -4.795300 -35.310500
C -20.107700 -17.294700 -42.399700
C -19.952500 -5.668300 -34.965500
H -19.903100 -17.979300 -41.759900
C -19.860900 -8.048100 -35.983300
H -19.854600 -10.430900 -37.091300
H -19.788000 -14.155900 -39.264300
C -19.784900 -15.633100 -40.685800
H -19.541000 -16.354200 -40.085000
H -19.418200 -8.502100 -35.302800
H -19.303000 -17.025600 -42.849000
H -19.036300 -5.697700 -34.680800
H -18.974200 -15.305300 -41.107000
