3
Fragment
H -23.346100 -16.694200 -40.159800
O -22.773900 -17.277400 -40.278300
H -22.135300 -16.863100 -40.766300
51
Fragment
H -26.487500 -6.078300 -36.317000
H -26.425400 -15.685900 -42.743200
H -26.158700 -4.358000 -34.575000
H -26.043500 -12.881500 -42.121200
H -25.920700 -5.029400 -37.339000
C -25.676800 -5.750500 -36.738200
H -25.673700 -7.227700 -38.159700
H -25.607100 -10.952700 -40.332700
C -25.600800 -13.335500 -41.440700
H -25.558600 -3.404300 -35.664100
C -25.509200 -15.715300 -42.458500
C -25.354000 -4.088900 -35.024300
H -25.310000 -16.588300 -42.113500
C -25.286300 -14.694100 -41.390900
H -25.284300 -6.652400 -34.384000
H -25.238800 -9.039900 -38.988100
N -25.174100 -11.497900 -39.829500
C -25.111700 -12.812600 -40.262000
C -25.032600 -6.868600 -37.527900
H -24.935700 -15.527700 -43.205200
C -24.811500 -9.616100 -38.396900
N -24.769000 -5.242300 -35.712900
H -24.728100 -3.748500 -34.381400
N -24.659500 -15.015200 -40.260700
C -24.622800 -10.962400 -38.684400
N -24.570400 -7.935900 -36.648100
N -24.563900 -13.834100 -39.573200
C -24.462600 -6.331600 -34.788400
C -24.318500 -9.182100 -37.162000
H -24.281100 -6.516700 -38.030700
H -24.199300 -13.753900 -38.797200
N -23.950000 -11.810300 -37.901100
H -23.887100 -6.002400 -34.079500
C -23.774700 -7.472800 -35.507400
H -23.638600 -8.208100 -34.889800
N -23.588900 -10.002400 -36.368900
C -23.431900 -11.248300 -36.791400
H -22.905100 -7.179500 -35.818900
N -22.678600 -12.126000 -36.055300
H -22.580800 -12.906100 -36.404800
C -22.046800 -11.942600 -34.823800
H -22.036800 -9.918800 -34.680800
H -21.792800 -13.932500 -34.546600
C -21.779900 -10.701500 -34.248500
C -21.626300 -13.101100 -34.164600
C -21.127000 -10.644900 -33.023100
C -20.964800 -13.025300 -32.951100
Cl -20.767100 -9.104100 -32.316100
C -20.733700 -11.797000 -32.382600
H -20.679000 -13.799900 -32.523200
F -20.102000 -11.724300 -31.186900
54
Fragment
H -23.346100 -16.694200 -40.159800
O -22.773900 -17.277400 -40.278300
H -22.135300 -16.863100 -40.766300
H -26.487500 -6.078300 -36.317000
H -26.425400 -15.685900 -42.743200
H -26.158700 -4.358000 -34.575000
H -26.043500 -12.881500 -42.121200
H -25.920700 -5.029400 -37.339000
C -25.676800 -5.750500 -36.738200
H -25.673700 -7.227700 -38.159700
H -25.607100 -10.952700 -40.332700
C -25.600800 -13.335500 -41.440700
H -25.558600 -3.404300 -35.664100
C -25.509200 -15.715300 -42.458500
C -25.354000 -4.088900 -35.024300
H -25.310000 -16.588300 -42.113500
C -25.286300 -14.694100 -41.390900
H -25.284300 -6.652400 -34.384000
H -25.238800 -9.039900 -38.988100
N -25.174100 -11.497900 -39.829500
C -25.111700 -12.812600 -40.262000
C -25.032600 -6.868600 -37.527900
H -24.935700 -15.527700 -43.205200
C -24.811500 -9.616100 -38.396900
N -24.769000 -5.242300 -35.712900
H -24.728100 -3.748500 -34.381400
N -24.659500 -15.015200 -40.260700
C -24.622800 -10.962400 -38.684400
N -24.570400 -7.935900 -36.648100
N -24.563900 -13.834100 -39.573200
C -24.462600 -6.331600 -34.788400
C -24.318500 -9.182100 -37.162000
H -24.281100 -6.516700 -38.030700
H -24.199300 -13.753900 -38.797200
N -23.950000 -11.810300 -37.901100
H -23.887100 -6.002400 -34.079500
C -23.774700 -7.472800 -35.507400
H -23.638600 -8.208100 -34.889800
N -23.588900 -10.002400 -36.368900
C -23.431900 -11.248300 -36.791400
H -22.905100 -7.179500 -35.818900
N -22.678600 -12.126000 -36.055300
H -22.580800 -12.906100 -36.404800
C -22.046800 -11.942600 -34.823800
H -22.036800 -9.918800 -34.680800
H -21.792800 -13.932500 -34.546600
C -21.779900 -10.701500 -34.248500
C -21.626300 -13.101100 -34.164600
C -21.127000 -10.644900 -33.023100
C -20.964800 -13.025300 -32.951100
Cl -20.767100 -9.104100 -32.316100
C -20.733700 -11.797000 -32.382600
H -20.679000 -13.799900 -32.523200
F -20.102000 -11.724300 -31.186900
