27
Fragment
N -14.555000 -16.339300 -26.064600
N -13.969500 -16.854900 -27.102000
H -13.801300 -15.018600 -24.814200
N -13.667000 -15.498400 -25.515200
N -12.706600 -16.356600 -27.238400
H -12.628200 -10.932900 -27.438100
C -12.537100 -15.525000 -26.234000
O -12.354000 -11.273500 -26.709900
H -12.329700 -13.188000 -24.989000
O -12.293000 -13.095100 -27.974300
C -12.125600 -12.538500 -26.896500
C -11.641400 -13.242200 -25.670000
H -11.284300 -14.982800 -23.820700
C -11.276200 -14.733700 -25.888300
H -10.858600 -12.777300 -25.334400
H -10.704100 -16.337000 -28.151600
C -10.679200 -15.241200 -24.533500
O -10.598600 -17.518800 -25.306900
C -10.430000 -16.724600 -24.427600
C -10.241100 -14.823600 -26.994600
N -10.162700 -15.684100 -28.009000
O -10.009900 -17.053200 -23.217500
H -9.880500 -17.893100 -23.193900
H -9.838900 -14.780900 -24.380700
N -9.233300 -13.962000 -27.102800
N -9.100300 -15.369200 -28.774300
N -8.544000 -14.335700 -28.220800
27
Fragment
N -14.156400 -12.498200 -33.171400
N -13.570900 -11.982600 -34.208900
H -13.402700 -13.818900 -31.921000
N -13.268400 -13.339100 -32.622100
N -12.308000 -12.480900 -34.345200
H -12.229600 -17.904600 -34.544900
C -12.138500 -13.312500 -33.340800
O -11.955400 -17.564000 -33.816700
H -11.931100 -15.649500 -32.095900
O -11.894500 -15.742400 -35.081200
C -11.727000 -16.299000 -34.003300
C -11.242800 -15.595300 -32.776900
H -10.885700 -13.854700 -30.927500
C -10.877600 -14.103800 -32.995200
H -10.460000 -16.060200 -32.441300
H -10.305600 -12.500500 -35.258400
C -10.280600 -13.596300 -31.640300
O -10.200000 -11.318700 -32.413700
C -10.031500 -12.112900 -31.534400
C -9.842500 -14.013900 -34.101400
N -9.764100 -13.153400 -35.115900
O -9.611300 -11.784300 -30.324300
H -9.481900 -10.944400 -30.300700
H -9.440400 -14.056600 -31.487500
N -8.834700 -14.875500 -34.209600
N -8.701700 -13.468300 -35.881100
N -8.145400 -14.501800 -35.327600
54
Fragment
N -14.555000 -16.339300 -26.064600
N -13.969500 -16.854900 -27.102000
H -13.801300 -15.018600 -24.814200
N -13.667000 -15.498400 -25.515200
N -12.706600 -16.356600 -27.238400
H -12.628200 -10.932900 -27.438100
C -12.537100 -15.525000 -26.234000
O -12.354000 -11.273500 -26.709900
H -12.329700 -13.188000 -24.989000
O -12.293000 -13.095100 -27.974300
C -12.125600 -12.538500 -26.896500
C -11.641400 -13.242200 -25.670000
H -11.284300 -14.982800 -23.820700
C -11.276200 -14.733700 -25.888300
H -10.858600 -12.777300 -25.334400
H -10.704100 -16.337000 -28.151600
C -10.679200 -15.241200 -24.533500
O -10.598600 -17.518800 -25.306900
C -10.430000 -16.724600 -24.427600
C -10.241100 -14.823600 -26.994600
N -10.162700 -15.684100 -28.009000
O -10.009900 -17.053200 -23.217500
H -9.880500 -17.893100 -23.193900
H -9.838900 -14.780900 -24.380700
N -9.233300 -13.962000 -27.102800
N -9.100300 -15.369200 -28.774300
N -8.544000 -14.335700 -28.220800
N -14.156400 -12.498200 -33.171400
N -13.570900 -11.982600 -34.208900
H -13.402700 -13.818900 -31.921000
N -13.268400 -13.339100 -32.622100
N -12.308000 -12.480900 -34.345200
H -12.229600 -17.904600 -34.544900
C -12.138500 -13.312500 -33.340800
O -11.955400 -17.564000 -33.816700
H -11.931100 -15.649500 -32.095900
O -11.894500 -15.742400 -35.081200
C -11.727000 -16.299000 -34.003300
C -11.242800 -15.595300 -32.776900
H -10.885700 -13.854700 -30.927500
C -10.877600 -14.103800 -32.995200
H -10.460000 -16.060200 -32.441300
H -10.305600 -12.500500 -35.258400
C -10.280600 -13.596300 -31.640300
O -10.200000 -11.318700 -32.413700
C -10.031500 -12.112900 -31.534400
C -9.842500 -14.013900 -34.101400
N -9.764100 -13.153400 -35.115900
O -9.611300 -11.784300 -30.324300
H -9.481900 -10.944400 -30.300700
H -9.440400 -14.056600 -31.487500
N -8.834700 -14.875500 -34.209600
N -8.701700 -13.468300 -35.881100
N -8.145400 -14.501800 -35.327600
