27
Fragment
N -14.555000 -16.339300 -26.064600
N -13.969500 -16.854900 -27.102000
H -13.801300 -15.018600 -24.814200
N -13.667000 -15.498400 -25.515200
N -12.706600 -16.356600 -27.238400
H -12.628200 -10.932900 -27.438100
C -12.537100 -15.525000 -26.234000
O -12.354000 -11.273500 -26.709900
H -12.329700 -13.188000 -24.989000
O -12.293000 -13.095100 -27.974300
C -12.125600 -12.538500 -26.896500
C -11.641400 -13.242200 -25.670000
H -11.284300 -14.982800 -23.820700
C -11.276200 -14.733700 -25.888300
H -10.858600 -12.777300 -25.334400
H -10.704100 -16.337000 -28.151600
C -10.679200 -15.241200 -24.533500
O -10.598600 -17.518800 -25.306900
C -10.430000 -16.724600 -24.427600
C -10.241100 -14.823600 -26.994600
N -10.162700 -15.684100 -28.009000
O -10.009900 -17.053200 -23.217500
H -9.880500 -17.893100 -23.193900
H -9.838900 -14.780900 -24.380700
N -9.233300 -13.962000 -27.102800
N -9.100300 -15.369200 -28.774300
N -8.544000 -14.335700 -28.220800
27
Fragment
N -9.701100 -20.269300 -28.633900
N -9.144900 -19.235800 -28.080400
N -9.011900 -20.643000 -29.751900
H -8.406200 -19.824100 -32.474000
H -8.364700 -16.711900 -33.660800
O -8.235300 -17.551800 -33.637200
N -8.082500 -18.920900 -28.845600
C -8.004100 -19.781400 -29.860100
C -7.815100 -17.880400 -32.427100
O -7.646500 -17.086200 -31.547800
C -7.566000 -19.363800 -32.321200
H -7.541000 -18.268000 -28.703100
H -7.386600 -21.827700 -31.520200
C -6.969000 -19.871300 -30.966300
H -6.960900 -19.622200 -33.034000
C -6.603800 -21.362800 -31.184600
C -6.119600 -22.066500 -29.958100
O -5.952100 -21.509900 -28.880300
H -5.915400 -21.417000 -31.865600
O -5.891200 -23.331500 -30.144800
C -5.708100 -19.080000 -30.620600
H -5.617000 -23.672100 -29.416600
N -5.538600 -18.248400 -29.616300
N -4.578200 -19.106600 -31.339400
H -4.443900 -19.586400 -32.040400
N -4.275700 -17.750100 -29.752600
N -3.690200 -18.265700 -30.790100
54
Fragment
N -14.555000 -16.339300 -26.064600
N -13.969500 -16.854900 -27.102000
H -13.801300 -15.018600 -24.814200
N -13.667000 -15.498400 -25.515200
N -12.706600 -16.356600 -27.238400
H -12.628200 -10.932900 -27.438100
C -12.537100 -15.525000 -26.234000
O -12.354000 -11.273500 -26.709900
H -12.329700 -13.188000 -24.989000
O -12.293000 -13.095100 -27.974300
C -12.125600 -12.538500 -26.896500
C -11.641400 -13.242200 -25.670000
H -11.284300 -14.982800 -23.820700
C -11.276200 -14.733700 -25.888300
H -10.858600 -12.777300 -25.334400
H -10.704100 -16.337000 -28.151600
C -10.679200 -15.241200 -24.533500
O -10.598600 -17.518800 -25.306900
C -10.430000 -16.724600 -24.427600
C -10.241100 -14.823600 -26.994600
N -10.162700 -15.684100 -28.009000
O -10.009900 -17.053200 -23.217500
H -9.880500 -17.893100 -23.193900
H -9.838900 -14.780900 -24.380700
N -9.233300 -13.962000 -27.102800
N -9.100300 -15.369200 -28.774300
N -8.544000 -14.335700 -28.220800
N -9.701100 -20.269300 -28.633900
N -9.144900 -19.235800 -28.080400
N -9.011900 -20.643000 -29.751900
H -8.406200 -19.824100 -32.474000
H -8.364700 -16.711900 -33.660800
O -8.235300 -17.551800 -33.637200
N -8.082500 -18.920900 -28.845600
C -8.004100 -19.781400 -29.860100
C -7.815100 -17.880400 -32.427100
O -7.646500 -17.086200 -31.547800
C -7.566000 -19.363800 -32.321200
H -7.541000 -18.268000 -28.703100
H -7.386600 -21.827700 -31.520200
C -6.969000 -19.871300 -30.966300
H -6.960900 -19.622200 -33.034000
C -6.603800 -21.362800 -31.184600
C -6.119600 -22.066500 -29.958100
O -5.952100 -21.509900 -28.880300
H -5.915400 -21.417000 -31.865600
O -5.891200 -23.331500 -30.144800
C -5.708100 -19.080000 -30.620600
H -5.617000 -23.672100 -29.416600
N -5.538600 -18.248400 -29.616300
N -4.578200 -19.106600 -31.339400
H -4.443900 -19.586400 -32.040400
N -4.275700 -17.750100 -29.752600
N -3.690200 -18.265700 -30.790100
