27
Fragment
H -11.321800 -26.708400 -15.877000
O -11.180400 -28.903100 -14.126000
N -10.926500 -27.613300 -16.033800
C -10.789600 -28.758100 -15.259200
C -10.358100 -27.738300 -17.273700
O -10.315700 -26.880000 -18.126200
H -10.235200 -29.649400 -18.063300
N -10.138000 -29.670700 -16.038100
N -9.879700 -30.907900 -15.540900
C -9.804800 -29.141100 -17.358000
C -9.330900 -31.765300 -16.325100
H -9.267300 -33.282500 -14.957200
H -9.113900 -31.531700 -17.197900
C -9.058000 -33.084400 -15.840700
H -8.846800 -29.135600 -17.506300
H -8.750400 -35.682100 -14.175100
C -8.521100 -34.036800 -16.588700
C -8.377700 -36.026400 -14.954000
H -8.322700 -33.825700 -17.473200
C -8.222900 -35.364400 -16.143700
C -7.868100 -37.320900 -15.132200
H -7.832600 -38.003800 -14.501600
O -7.647600 -36.201300 -17.066700
C -7.440300 -37.365600 -16.408300
N -6.830300 -38.402700 -17.143500
O -6.613700 -39.457400 -16.548100
O -6.526800 -38.206900 -18.318300
27
Fragment
O -13.951800 -29.556700 -19.026800
O -13.864900 -30.807200 -20.796900
N -13.648300 -29.752500 -20.201500
C -13.038300 -28.715400 -20.936700
O -12.831000 -27.551100 -20.278300
H -12.646000 -29.353600 -22.843400
C -12.610500 -28.670700 -22.212800
C -12.255700 -26.714200 -21.201300
H -12.155900 -25.175500 -19.871800
C -12.100900 -27.376200 -22.391000
C -11.957500 -25.386600 -20.756400
H -11.728300 -27.031900 -23.169900
H -11.631800 -20.485400 -19.838700
C -11.420600 -24.434200 -21.504300
H -11.364700 -22.881500 -20.147100
H -11.211300 -24.632300 -22.387800
C -11.147700 -23.115100 -21.019900
C -10.673900 -20.490900 -19.987100
N -10.598900 -22.257700 -21.804200
N -10.340600 -21.020500 -21.306900
H -10.243400 -20.999200 -19.281800
O -10.162900 -18.229800 -19.218800
C -10.120500 -19.088100 -20.071300
C -9.689000 -20.107900 -22.085800
N -9.552200 -18.963100 -21.311200
O -9.298200 -20.252900 -23.219000
H -9.156900 -18.058200 -21.468100
54
Fragment
H -11.321800 -26.708400 -15.877000
O -11.180400 -28.903100 -14.126000
N -10.926500 -27.613300 -16.033800
C -10.789600 -28.758100 -15.259200
C -10.358100 -27.738300 -17.273700
O -10.315700 -26.880000 -18.126200
H -10.235200 -29.649400 -18.063300
N -10.138000 -29.670700 -16.038100
N -9.879700 -30.907900 -15.540900
C -9.804800 -29.141100 -17.358000
C -9.330900 -31.765300 -16.325100
H -9.267300 -33.282500 -14.957200
H -9.113900 -31.531700 -17.197900
C -9.058000 -33.084400 -15.840700
H -8.846800 -29.135600 -17.506300
H -8.750400 -35.682100 -14.175100
C -8.521100 -34.036800 -16.588700
C -8.377700 -36.026400 -14.954000
H -8.322700 -33.825700 -17.473200
C -8.222900 -35.364400 -16.143700
C -7.868100 -37.320900 -15.132200
H -7.832600 -38.003800 -14.501600
O -7.647600 -36.201300 -17.066700
C -7.440300 -37.365600 -16.408300
N -6.830300 -38.402700 -17.143500
O -6.613700 -39.457400 -16.548100
O -6.526800 -38.206900 -18.318300
O -13.951800 -29.556700 -19.026800
O -13.864900 -30.807200 -20.796900
N -13.648300 -29.752500 -20.201500
C -13.038300 -28.715400 -20.936700
O -12.831000 -27.551100 -20.278300
H -12.646000 -29.353600 -22.843400
C -12.610500 -28.670700 -22.212800
C -12.255700 -26.714200 -21.201300
H -12.155900 -25.175500 -19.871800
C -12.100900 -27.376200 -22.391000
C -11.957500 -25.386600 -20.756400
H -11.728300 -27.031900 -23.169900
H -11.631800 -20.485400 -19.838700
C -11.420600 -24.434200 -21.504300
H -11.364700 -22.881500 -20.147100
H -11.211300 -24.632300 -22.387800
C -11.147700 -23.115100 -21.019900
C -10.673900 -20.490900 -19.987100
N -10.598900 -22.257700 -21.804200
N -10.340600 -21.020500 -21.306900
H -10.243400 -20.999200 -19.281800
O -10.162900 -18.229800 -19.218800
C -10.120500 -19.088100 -20.071300
C -9.689000 -20.107900 -22.085800
N -9.552200 -18.963100 -21.311200
O -9.298200 -20.252900 -23.219000
H -9.156900 -18.058200 -21.468100
