27
Fragment
H -11.321800 -26.708400 -15.877000
O -11.180400 -28.903100 -14.126000
N -10.926500 -27.613300 -16.033800
C -10.789600 -28.758100 -15.259200
C -10.358100 -27.738300 -17.273700
O -10.315700 -26.880000 -18.126200
H -10.235200 -29.649400 -18.063300
N -10.138000 -29.670700 -16.038100
N -9.879700 -30.907900 -15.540900
C -9.804800 -29.141100 -17.358000
C -9.330900 -31.765300 -16.325100
H -9.267300 -33.282500 -14.957200
H -9.113900 -31.531700 -17.197900
C -9.058000 -33.084400 -15.840700
H -8.846800 -29.135600 -17.506300
H -8.750400 -35.682100 -14.175100
C -8.521100 -34.036800 -16.588700
C -8.377700 -36.026400 -14.954000
H -8.322700 -33.825700 -17.473200
C -8.222900 -35.364400 -16.143700
C -7.868100 -37.320900 -15.132200
H -7.832600 -38.003800 -14.501600
O -7.647600 -36.201300 -17.066700
C -7.440300 -37.365600 -16.408300
N -6.830300 -38.402700 -17.143500
O -6.613700 -39.457400 -16.548100
O -6.526800 -38.206900 -18.318300
27
Fragment
O -6.820800 -30.994700 -13.691800
O -6.733900 -29.744200 -15.461900
N -6.517200 -30.798900 -14.866500
C -5.907300 -31.836000 -15.601700
O -5.700000 -33.000300 -14.943300
H -5.515000 -31.197800 -17.508400
C -5.479400 -31.880700 -16.877800
C -5.124600 -33.837200 -15.866300
H -5.024800 -35.375900 -14.536800
C -4.969900 -33.175200 -17.056000
C -4.826500 -35.164800 -15.421400
H -4.597200 -33.519500 -17.834900
H -4.500800 -40.066000 -14.503700
C -4.289600 -36.117200 -16.169300
H -4.233600 -37.669900 -14.812100
H -4.080200 -35.919100 -17.052800
C -4.016700 -37.436300 -15.684900
C -3.542800 -40.060500 -14.652100
N -3.467900 -38.293700 -16.469200
N -3.209500 -39.530900 -15.971900
H -3.112300 -39.552200 -13.946800
O -3.031800 -42.321600 -13.883800
C -2.989400 -41.463300 -14.736300
C -2.557900 -40.443500 -16.750800
N -2.421100 -41.588300 -15.976200
O -2.167100 -40.298500 -17.884000
H -2.025800 -42.493200 -16.133000
54
Fragment
H -11.321800 -26.708400 -15.877000
O -11.180400 -28.903100 -14.126000
N -10.926500 -27.613300 -16.033800
C -10.789600 -28.758100 -15.259200
C -10.358100 -27.738300 -17.273700
O -10.315700 -26.880000 -18.126200
H -10.235200 -29.649400 -18.063300
N -10.138000 -29.670700 -16.038100
N -9.879700 -30.907900 -15.540900
C -9.804800 -29.141100 -17.358000
C -9.330900 -31.765300 -16.325100
H -9.267300 -33.282500 -14.957200
H -9.113900 -31.531700 -17.197900
C -9.058000 -33.084400 -15.840700
H -8.846800 -29.135600 -17.506300
H -8.750400 -35.682100 -14.175100
C -8.521100 -34.036800 -16.588700
C -8.377700 -36.026400 -14.954000
H -8.322700 -33.825700 -17.473200
C -8.222900 -35.364400 -16.143700
C -7.868100 -37.320900 -15.132200
H -7.832600 -38.003800 -14.501600
O -7.647600 -36.201300 -17.066700
C -7.440300 -37.365600 -16.408300
N -6.830300 -38.402700 -17.143500
O -6.613700 -39.457400 -16.548100
O -6.526800 -38.206900 -18.318300
O -6.820800 -30.994700 -13.691800
O -6.733900 -29.744200 -15.461900
N -6.517200 -30.798900 -14.866500
C -5.907300 -31.836000 -15.601700
O -5.700000 -33.000300 -14.943300
H -5.515000 -31.197800 -17.508400
C -5.479400 -31.880700 -16.877800
C -5.124600 -33.837200 -15.866300
H -5.024800 -35.375900 -14.536800
C -4.969900 -33.175200 -17.056000
C -4.826500 -35.164800 -15.421400
H -4.597200 -33.519500 -17.834900
H -4.500800 -40.066000 -14.503700
C -4.289600 -36.117200 -16.169300
H -4.233600 -37.669900 -14.812100
H -4.080200 -35.919100 -17.052800
C -4.016700 -37.436300 -15.684900
C -3.542800 -40.060500 -14.652100
N -3.467900 -38.293700 -16.469200
N -3.209500 -39.530900 -15.971900
H -3.112300 -39.552200 -13.946800
O -3.031800 -42.321600 -13.883800
C -2.989400 -41.463300 -14.736300
C -2.557900 -40.443500 -16.750800
N -2.421100 -41.588300 -15.976200
O -2.167100 -40.298500 -17.884000
H -2.025800 -42.493200 -16.133000
