27
Fragment
H -22.971300 -19.631500 -8.335400
H -22.931500 -21.552000 -9.974200
C -22.245200 -19.929900 -8.833700
C -22.218700 -20.999000 -9.747800
O -21.908600 -26.457700 -15.271500
H -21.826100 -22.863300 -11.937300
O -21.207600 -17.728500 -7.384200
C -20.998900 -19.433500 -8.833700
C -20.944700 -21.067000 -10.238800
C -20.896300 -22.845000 -11.925900
N -20.819100 -24.604500 -13.486000
C -20.717600 -26.351200 -15.083500
N -20.436300 -18.374300 -8.080600
C -20.280700 -21.960200 -11.148500
O -20.173400 -20.091200 -9.668600
C -20.170000 -23.774700 -12.751200
N -20.083500 -25.474400 -14.242500
H -19.887600 -27.710100 -16.271900
N -19.730700 -27.082900 -15.705100
H -19.353000 -21.915500 -11.196100
O -19.240700 -18.173400 -8.145900
H -19.239800 -23.773600 -12.752500
C -18.634300 -25.604200 -14.300000
C -18.482100 -26.706500 -15.327300
H -18.265200 -25.863500 -13.440900
H -18.213700 -24.781400 -14.595300
O -17.444500 -27.156400 -15.739900
27
Fragment
H -17.206800 -30.172400 -17.041100
H -17.167000 -28.251900 -18.679900
C -16.480700 -29.874000 -17.539400
C -16.454200 -28.804900 -18.453500
O -16.144100 -23.346200 -23.977200
H -16.061600 -26.940600 -20.643000
O -15.443100 -32.075400 -16.089900
C -15.234400 -30.370400 -17.539400
C -15.180200 -28.736900 -18.944500
C -15.131800 -26.958900 -20.631600
N -15.054600 -25.199400 -22.191700
C -14.953100 -23.452700 -23.789200
N -14.671800 -31.429600 -16.786300
C -14.516200 -27.843700 -19.854200
O -14.408900 -29.712700 -18.374300
C -14.405500 -26.029200 -21.456900
N -14.319000 -24.329500 -22.948200
H -14.123100 -22.093800 -24.977600
N -13.966200 -22.721000 -24.410800
H -13.588500 -27.888400 -19.901800
O -13.476200 -31.630500 -16.851600
H -13.475300 -26.030300 -21.458200
C -12.869800 -24.199700 -23.005700
C -12.717600 -23.097400 -24.033000
H -12.500700 -23.940400 -22.146600
H -12.449200 -25.022500 -23.301000
O -11.680000 -22.647500 -24.445600
54
Fragment
H -22.971300 -19.631500 -8.335400
H -22.931500 -21.552000 -9.974200
C -22.245200 -19.929900 -8.833700
C -22.218700 -20.999000 -9.747800
O -21.908600 -26.457700 -15.271500
H -21.826100 -22.863300 -11.937300
O -21.207600 -17.728500 -7.384200
C -20.998900 -19.433500 -8.833700
C -20.944700 -21.067000 -10.238800
C -20.896300 -22.845000 -11.925900
N -20.819100 -24.604500 -13.486000
C -20.717600 -26.351200 -15.083500
N -20.436300 -18.374300 -8.080600
C -20.280700 -21.960200 -11.148500
O -20.173400 -20.091200 -9.668600
C -20.170000 -23.774700 -12.751200
N -20.083500 -25.474400 -14.242500
H -19.887600 -27.710100 -16.271900
N -19.730700 -27.082900 -15.705100
H -19.353000 -21.915500 -11.196100
O -19.240700 -18.173400 -8.145900
H -19.239800 -23.773600 -12.752500
C -18.634300 -25.604200 -14.300000
C -18.482100 -26.706500 -15.327300
H -18.265200 -25.863500 -13.440900
H -18.213700 -24.781400 -14.595300
O -17.444500 -27.156400 -15.739900
H -17.206800 -30.172400 -17.041100
H -17.167000 -28.251900 -18.679900
C -16.480700 -29.874000 -17.539400
C -16.454200 -28.804900 -18.453500
O -16.144100 -23.346200 -23.977200
H -16.061600 -26.940600 -20.643000
O -15.443100 -32.075400 -16.089900
C -15.234400 -30.370400 -17.539400
C -15.180200 -28.736900 -18.944500
C -15.131800 -26.958900 -20.631600
N -15.054600 -25.199400 -22.191700
C -14.953100 -23.452700 -23.789200
N -14.671800 -31.429600 -16.786300
C -14.516200 -27.843700 -19.854200
O -14.408900 -29.712700 -18.374300
C -14.405500 -26.029200 -21.456900
N -14.319000 -24.329500 -22.948200
H -14.123100 -22.093800 -24.977600
N -13.966200 -22.721000 -24.410800
H -13.588500 -27.888400 -19.901800
O -13.476200 -31.630500 -16.851600
H -13.475300 -26.030300 -21.458200
C -12.869800 -24.199700 -23.005700
C -12.717600 -23.097400 -24.033000
H -12.500700 -23.940400 -22.146600
H -12.449200 -25.022500 -23.301000
O -11.680000 -22.647500 -24.445600
