27
Fragment
H -11.321800 -26.708400 -15.877000
O -11.180400 -28.903100 -14.126000
N -10.926500 -27.613300 -16.033800
C -10.789600 -28.758100 -15.259200
C -10.358100 -27.738300 -17.273700
O -10.315700 -26.880000 -18.126200
H -10.235200 -29.649400 -18.063300
N -10.138000 -29.670700 -16.038100
N -9.879700 -30.907900 -15.540900
C -9.804800 -29.141100 -17.358000
C -9.330900 -31.765300 -16.325100
H -9.267300 -33.282500 -14.957200
H -9.113900 -31.531700 -17.197900
C -9.058000 -33.084400 -15.840700
H -8.846800 -29.135600 -17.506300
H -8.750400 -35.682100 -14.175100
C -8.521100 -34.036800 -16.588700
C -8.377700 -36.026400 -14.954000
H -8.322700 -33.825700 -17.473200
C -8.222900 -35.364400 -16.143700
C -7.868100 -37.320900 -15.132200
H -7.832600 -38.003800 -14.501600
O -7.647600 -36.201300 -17.066700
C -7.440300 -37.365600 -16.408300
N -6.830300 -38.402700 -17.143500
O -6.613700 -39.457400 -16.548100
O -6.526800 -38.206900 -18.318300
14
Fragment
H -15.456300 -26.329500 -14.266900
O -15.295200 -26.530300 -16.222700
C -14.740400 -26.431600 -14.913500
H -14.648500 -26.658200 -18.087800
H -14.302600 -24.443700 -14.945500
H -14.260700 -27.248100 -14.704300
C -14.257500 -26.634000 -17.200000
C -13.809400 -25.267200 -14.810000
H -13.806300 -24.653100 -17.305700
H -13.764300 -27.457500 -17.064500
H -13.418400 -25.243000 -13.922200
C -13.326500 -25.469600 -17.096600
O -12.771800 -25.370900 -15.787300
H -12.610700 -25.571700 -17.743200
41
Fragment
H -11.321800 -26.708400 -15.877000
O -11.180400 -28.903100 -14.126000
N -10.926500 -27.613300 -16.033800
C -10.789600 -28.758100 -15.259200
C -10.358100 -27.738300 -17.273700
O -10.315700 -26.880000 -18.126200
H -10.235200 -29.649400 -18.063300
N -10.138000 -29.670700 -16.038100
N -9.879700 -30.907900 -15.540900
C -9.804800 -29.141100 -17.358000
C -9.330900 -31.765300 -16.325100
H -9.267300 -33.282500 -14.957200
H -9.113900 -31.531700 -17.197900
C -9.058000 -33.084400 -15.840700
H -8.846800 -29.135600 -17.506300
H -8.750400 -35.682100 -14.175100
C -8.521100 -34.036800 -16.588700
C -8.377700 -36.026400 -14.954000
H -8.322700 -33.825700 -17.473200
C -8.222900 -35.364400 -16.143700
C -7.868100 -37.320900 -15.132200
H -7.832600 -38.003800 -14.501600
O -7.647600 -36.201300 -17.066700
C -7.440300 -37.365600 -16.408300
N -6.830300 -38.402700 -17.143500
O -6.613700 -39.457400 -16.548100
O -6.526800 -38.206900 -18.318300
H -15.456300 -26.329500 -14.266900
O -15.295200 -26.530300 -16.222700
C -14.740400 -26.431600 -14.913500
H -14.648500 -26.658200 -18.087800
H -14.302600 -24.443700 -14.945500
H -14.260700 -27.248100 -14.704300
C -14.257500 -26.634000 -17.200000
C -13.809400 -25.267200 -14.810000
H -13.806300 -24.653100 -17.305700
H -13.764300 -27.457500 -17.064500
H -13.418400 -25.243000 -13.922200
C -13.326500 -25.469600 -17.096600
O -12.771800 -25.370900 -15.787300
H -12.610700 -25.571700 -17.743200
