27
Fragment
H -22.971300 -19.631500 -8.335400
H -22.931500 -21.552000 -9.974200
C -22.245200 -19.929900 -8.833700
C -22.218700 -20.999000 -9.747800
O -21.908600 -26.457700 -15.271500
H -21.826100 -22.863300 -11.937300
O -21.207600 -17.728500 -7.384200
C -20.998900 -19.433500 -8.833700
C -20.944700 -21.067000 -10.238800
C -20.896300 -22.845000 -11.925900
N -20.819100 -24.604500 -13.486000
C -20.717600 -26.351200 -15.083500
N -20.436300 -18.374300 -8.080600
C -20.280700 -21.960200 -11.148500
O -20.173400 -20.091200 -9.668600
C -20.170000 -23.774700 -12.751200
N -20.083500 -25.474400 -14.242500
H -19.887600 -27.710100 -16.271900
N -19.730700 -27.082900 -15.705100
H -19.353000 -21.915500 -11.196100
O -19.240700 -18.173400 -8.145900
H -19.239800 -23.773600 -12.752500
C -18.634300 -25.604200 -14.300000
C -18.482100 -26.706500 -15.327300
H -18.265200 -25.863500 -13.440900
H -18.213700 -24.781400 -14.595300
O -17.444500 -27.156400 -15.739900
27
Fragment
H -28.735800 -30.172400 -8.335400
H -28.696000 -28.251900 -9.974200
C -28.009700 -29.874000 -8.833700
C -27.983200 -28.804900 -9.747800
O -27.673100 -23.346200 -15.271500
H -27.590600 -26.940600 -11.937300
O -26.972100 -32.075400 -7.384200
C -26.763400 -30.370400 -8.833700
C -26.709200 -28.736900 -10.238800
C -26.660800 -26.958900 -11.925900
N -26.583600 -25.199400 -13.486000
C -26.482100 -23.452700 -15.083500
N -26.200800 -31.429600 -8.080600
C -26.045200 -27.843700 -11.148500
O -25.937900 -29.712700 -9.668600
C -25.934500 -26.029200 -12.751200
N -25.848000 -24.329500 -14.242500
H -25.652100 -22.093800 -16.271900
N -25.495200 -22.721000 -15.705100
H -25.117500 -27.888400 -11.196100
O -25.005200 -31.630500 -8.145900
H -25.004300 -26.030300 -12.752500
C -24.398800 -24.199700 -14.300000
C -24.246600 -23.097400 -15.327300
H -24.029700 -23.940400 -13.440900
H -23.978200 -25.022500 -14.595300
O -23.209000 -22.647500 -15.739900
54
Fragment
H -22.971300 -19.631500 -8.335400
H -22.931500 -21.552000 -9.974200
C -22.245200 -19.929900 -8.833700
C -22.218700 -20.999000 -9.747800
O -21.908600 -26.457700 -15.271500
H -21.826100 -22.863300 -11.937300
O -21.207600 -17.728500 -7.384200
C -20.998900 -19.433500 -8.833700
C -20.944700 -21.067000 -10.238800
C -20.896300 -22.845000 -11.925900
N -20.819100 -24.604500 -13.486000
C -20.717600 -26.351200 -15.083500
N -20.436300 -18.374300 -8.080600
C -20.280700 -21.960200 -11.148500
O -20.173400 -20.091200 -9.668600
C -20.170000 -23.774700 -12.751200
N -20.083500 -25.474400 -14.242500
H -19.887600 -27.710100 -16.271900
N -19.730700 -27.082900 -15.705100
H -19.353000 -21.915500 -11.196100
O -19.240700 -18.173400 -8.145900
H -19.239800 -23.773600 -12.752500
C -18.634300 -25.604200 -14.300000
C -18.482100 -26.706500 -15.327300
H -18.265200 -25.863500 -13.440900
H -18.213700 -24.781400 -14.595300
O -17.444500 -27.156400 -15.739900
H -28.735800 -30.172400 -8.335400
H -28.696000 -28.251900 -9.974200
C -28.009700 -29.874000 -8.833700
C -27.983200 -28.804900 -9.747800
O -27.673100 -23.346200 -15.271500
H -27.590600 -26.940600 -11.937300
O -26.972100 -32.075400 -7.384200
C -26.763400 -30.370400 -8.833700
C -26.709200 -28.736900 -10.238800
C -26.660800 -26.958900 -11.925900
N -26.583600 -25.199400 -13.486000
C -26.482100 -23.452700 -15.083500
N -26.200800 -31.429600 -8.080600
C -26.045200 -27.843700 -11.148500
O -25.937900 -29.712700 -9.668600
C -25.934500 -26.029200 -12.751200
N -25.848000 -24.329500 -14.242500
H -25.652100 -22.093800 -16.271900
N -25.495200 -22.721000 -15.705100
H -25.117500 -27.888400 -11.196100
O -25.005200 -31.630500 -8.145900
H -25.004300 -26.030300 -12.752500
C -24.398800 -24.199700 -14.300000
C -24.246600 -23.097400 -15.327300
H -24.029700 -23.940400 -13.440900
H -23.978200 -25.022500 -14.595300
O -23.209000 -22.647500 -15.739900
