27
Fragment
H -11.321800 -26.708400 -15.877000
O -11.180400 -28.903100 -14.126000
N -10.926500 -27.613300 -16.033800
C -10.789600 -28.758100 -15.259200
C -10.358100 -27.738300 -17.273700
O -10.315700 -26.880000 -18.126200
H -10.235200 -29.649400 -18.063300
N -10.138000 -29.670700 -16.038100
N -9.879700 -30.907900 -15.540900
C -9.804800 -29.141100 -17.358000
C -9.330900 -31.765300 -16.325100
H -9.267300 -33.282500 -14.957200
H -9.113900 -31.531700 -17.197900
C -9.058000 -33.084400 -15.840700
H -8.846800 -29.135600 -17.506300
H -8.750400 -35.682100 -14.175100
C -8.521100 -34.036800 -16.588700
C -8.377700 -36.026400 -14.954000
H -8.322700 -33.825700 -17.473200
C -8.222900 -35.364400 -16.143700
C -7.868100 -37.320900 -15.132200
H -7.832600 -38.003800 -14.501600
O -7.647600 -36.201300 -17.066700
C -7.440300 -37.365600 -16.408300
N -6.830300 -38.402700 -17.143500
O -6.613700 -39.457400 -16.548100
O -6.526800 -38.206900 -18.318300
27
Fragment
H -11.093100 -33.843000 -21.212000
O -10.951800 -31.648300 -19.461000
N -10.697800 -32.938100 -21.368800
C -10.561000 -31.793300 -20.594200
C -10.129500 -32.813100 -22.608700
O -10.087100 -33.671400 -23.461200
H -10.006600 -30.902000 -23.398300
N -9.909400 -30.880700 -21.373100
N -9.651000 -29.643500 -20.875900
C -9.576100 -31.410300 -22.693000
C -9.102300 -28.786100 -21.660100
H -9.038700 -27.268900 -20.292200
H -8.885300 -29.019700 -22.532900
C -8.829400 -27.467000 -21.175700
H -8.618100 -31.415800 -22.841300
H -8.521700 -24.869300 -19.510100
C -8.292400 -26.514600 -21.923700
C -8.149100 -24.525000 -20.289000
H -8.094100 -26.725700 -22.808200
C -7.994300 -25.187000 -21.478700
C -7.639500 -23.230500 -20.467200
H -7.604000 -22.547600 -19.836600
O -7.419000 -24.350100 -22.401700
C -7.211700 -23.185800 -21.743300
N -6.601700 -22.148700 -22.478500
O -6.385100 -21.094000 -21.883100
O -6.298200 -22.344500 -23.653300
54
Fragment
H -11.321800 -26.708400 -15.877000
O -11.180400 -28.903100 -14.126000
N -10.926500 -27.613300 -16.033800
C -10.789600 -28.758100 -15.259200
C -10.358100 -27.738300 -17.273700
O -10.315700 -26.880000 -18.126200
H -10.235200 -29.649400 -18.063300
N -10.138000 -29.670700 -16.038100
N -9.879700 -30.907900 -15.540900
C -9.804800 -29.141100 -17.358000
C -9.330900 -31.765300 -16.325100
H -9.267300 -33.282500 -14.957200
H -9.113900 -31.531700 -17.197900
C -9.058000 -33.084400 -15.840700
H -8.846800 -29.135600 -17.506300
H -8.750400 -35.682100 -14.175100
C -8.521100 -34.036800 -16.588700
C -8.377700 -36.026400 -14.954000
H -8.322700 -33.825700 -17.473200
C -8.222900 -35.364400 -16.143700
C -7.868100 -37.320900 -15.132200
H -7.832600 -38.003800 -14.501600
O -7.647600 -36.201300 -17.066700
C -7.440300 -37.365600 -16.408300
N -6.830300 -38.402700 -17.143500
O -6.613700 -39.457400 -16.548100
O -6.526800 -38.206900 -18.318300
H -11.093100 -33.843000 -21.212000
O -10.951800 -31.648300 -19.461000
N -10.697800 -32.938100 -21.368800
C -10.561000 -31.793300 -20.594200
C -10.129500 -32.813100 -22.608700
O -10.087100 -33.671400 -23.461200
H -10.006600 -30.902000 -23.398300
N -9.909400 -30.880700 -21.373100
N -9.651000 -29.643500 -20.875900
C -9.576100 -31.410300 -22.693000
C -9.102300 -28.786100 -21.660100
H -9.038700 -27.268900 -20.292200
H -8.885300 -29.019700 -22.532900
C -8.829400 -27.467000 -21.175700
H -8.618100 -31.415800 -22.841300
H -8.521700 -24.869300 -19.510100
C -8.292400 -26.514600 -21.923700
C -8.149100 -24.525000 -20.289000
H -8.094100 -26.725700 -22.808200
C -7.994300 -25.187000 -21.478700
C -7.639500 -23.230500 -20.467200
H -7.604000 -22.547600 -19.836600
O -7.419000 -24.350100 -22.401700
C -7.211700 -23.185800 -21.743300
N -6.601700 -22.148700 -22.478500
O -6.385100 -21.094000 -21.883100
O -6.298200 -22.344500 -23.653300
