27
Fragment
H -22.971300 -19.631500 -8.335400
H -22.931500 -21.552000 -9.974200
C -22.245200 -19.929900 -8.833700
C -22.218700 -20.999000 -9.747800
O -21.908600 -26.457700 -15.271500
H -21.826100 -22.863300 -11.937300
O -21.207600 -17.728500 -7.384200
C -20.998900 -19.433500 -8.833700
C -20.944700 -21.067000 -10.238800
C -20.896300 -22.845000 -11.925900
N -20.819100 -24.604500 -13.486000
C -20.717600 -26.351200 -15.083500
N -20.436300 -18.374300 -8.080600
C -20.280700 -21.960200 -11.148500
O -20.173400 -20.091200 -9.668600
C -20.170000 -23.774700 -12.751200
N -20.083500 -25.474400 -14.242500
H -19.887600 -27.710100 -16.271900
N -19.730700 -27.082900 -15.705100
H -19.353000 -21.915500 -11.196100
O -19.240700 -18.173400 -8.145900
H -19.239800 -23.773600 -12.752500
C -18.634300 -25.604200 -14.300000
C -18.482100 -26.706500 -15.327300
H -18.265200 -25.863500 -13.440900
H -18.213700 -24.781400 -14.595300
O -17.444500 -27.156400 -15.739900
15
Fragment
H -21.348800 -14.153800 -5.964400
H -21.246300 -15.284500 -4.883500
C -20.829400 -14.901300 -5.658700
H -20.777800 -15.560900 -6.353700
O -20.344100 -12.625300 -4.382400
N -19.482900 -14.449800 -5.314000
C -19.349100 -13.297600 -4.700200
H -18.506200 -15.673000 -6.549900
C -18.366800 -15.318000 -5.669200
H -18.309600 -16.038500 -5.038200
H -18.020400 -11.983800 -3.903100
C -17.967900 -12.832800 -4.347600
H -17.553900 -13.474100 -3.765600
H -17.551300 -14.811800 -5.653000
H -17.446700 -12.743700 -5.148500
42
Fragment
H -22.971300 -19.631500 -8.335400
H -22.931500 -21.552000 -9.974200
C -22.245200 -19.929900 -8.833700
C -22.218700 -20.999000 -9.747800
O -21.908600 -26.457700 -15.271500
H -21.826100 -22.863300 -11.937300
O -21.207600 -17.728500 -7.384200
C -20.998900 -19.433500 -8.833700
C -20.944700 -21.067000 -10.238800
C -20.896300 -22.845000 -11.925900
N -20.819100 -24.604500 -13.486000
C -20.717600 -26.351200 -15.083500
N -20.436300 -18.374300 -8.080600
C -20.280700 -21.960200 -11.148500
O -20.173400 -20.091200 -9.668600
C -20.170000 -23.774700 -12.751200
N -20.083500 -25.474400 -14.242500
H -19.887600 -27.710100 -16.271900
N -19.730700 -27.082900 -15.705100
H -19.353000 -21.915500 -11.196100
O -19.240700 -18.173400 -8.145900
H -19.239800 -23.773600 -12.752500
C -18.634300 -25.604200 -14.300000
C -18.482100 -26.706500 -15.327300
H -18.265200 -25.863500 -13.440900
H -18.213700 -24.781400 -14.595300
O -17.444500 -27.156400 -15.739900
H -21.348800 -14.153800 -5.964400
H -21.246300 -15.284500 -4.883500
C -20.829400 -14.901300 -5.658700
H -20.777800 -15.560900 -6.353700
O -20.344100 -12.625300 -4.382400
N -19.482900 -14.449800 -5.314000
C -19.349100 -13.297600 -4.700200
H -18.506200 -15.673000 -6.549900
C -18.366800 -15.318000 -5.669200
H -18.309600 -16.038500 -5.038200
H -18.020400 -11.983800 -3.903100
C -17.967900 -12.832800 -4.347600
H -17.553900 -13.474100 -3.765600
H -17.551300 -14.811800 -5.653000
H -17.446700 -12.743700 -5.148500
