27
Fragment
H -11.321800 -26.708400 -15.877000
O -11.180400 -28.903100 -14.126000
N -10.926500 -27.613300 -16.033800
C -10.789600 -28.758100 -15.259200
C -10.358100 -27.738300 -17.273700
O -10.315700 -26.880000 -18.126200
H -10.235200 -29.649400 -18.063300
N -10.138000 -29.670700 -16.038100
N -9.879700 -30.907900 -15.540900
C -9.804800 -29.141100 -17.358000
C -9.330900 -31.765300 -16.325100
H -9.267300 -33.282500 -14.957200
H -9.113900 -31.531700 -17.197900
C -9.058000 -33.084400 -15.840700
H -8.846800 -29.135600 -17.506300
H -8.750400 -35.682100 -14.175100
C -8.521100 -34.036800 -16.588700
C -8.377700 -36.026400 -14.954000
H -8.322700 -33.825700 -17.473200
C -8.222900 -35.364400 -16.143700
C -7.868100 -37.320900 -15.132200
H -7.832600 -38.003800 -14.501600
O -7.647600 -36.201300 -17.066700
C -7.440300 -37.365600 -16.408300
N -6.830300 -38.402700 -17.143500
O -6.613700 -39.457400 -16.548100
O -6.526800 -38.206900 -18.318300
27
Fragment
O -14.409100 -29.556700 -8.356700
O -14.322200 -30.807200 -10.126900
N -14.105600 -29.752500 -9.531500
C -13.495600 -28.715400 -10.266700
O -13.288300 -27.551100 -9.608300
H -13.103300 -29.353600 -12.173400
C -13.067800 -28.670700 -11.542800
C -12.713000 -26.714200 -10.531300
H -12.613200 -25.175500 -9.201800
C -12.558200 -27.376200 -11.721000
C -12.414800 -25.386600 -10.086400
H -12.185500 -27.031900 -12.499900
H -12.089100 -20.485400 -9.168700
C -11.877900 -24.434200 -10.834300
H -11.822000 -22.881500 -9.477100
H -11.668600 -24.632300 -11.717800
C -11.605000 -23.115100 -10.349900
C -11.131100 -20.490900 -9.317000
N -11.056200 -22.257700 -11.134200
N -10.797900 -21.020500 -10.636900
H -10.700700 -20.999200 -8.611800
O -10.620200 -18.229800 -8.548800
C -10.577800 -19.088100 -9.401300
C -10.146300 -20.107900 -11.415800
N -10.009400 -18.963100 -10.641200
O -9.755500 -20.252900 -12.549000
H -9.614100 -18.058200 -10.798000
54
Fragment
H -11.321800 -26.708400 -15.877000
O -11.180400 -28.903100 -14.126000
N -10.926500 -27.613300 -16.033800
C -10.789600 -28.758100 -15.259200
C -10.358100 -27.738300 -17.273700
O -10.315700 -26.880000 -18.126200
H -10.235200 -29.649400 -18.063300
N -10.138000 -29.670700 -16.038100
N -9.879700 -30.907900 -15.540900
C -9.804800 -29.141100 -17.358000
C -9.330900 -31.765300 -16.325100
H -9.267300 -33.282500 -14.957200
H -9.113900 -31.531700 -17.197900
C -9.058000 -33.084400 -15.840700
H -8.846800 -29.135600 -17.506300
H -8.750400 -35.682100 -14.175100
C -8.521100 -34.036800 -16.588700
C -8.377700 -36.026400 -14.954000
H -8.322700 -33.825700 -17.473200
C -8.222900 -35.364400 -16.143700
C -7.868100 -37.320900 -15.132200
H -7.832600 -38.003800 -14.501600
O -7.647600 -36.201300 -17.066700
C -7.440300 -37.365600 -16.408300
N -6.830300 -38.402700 -17.143500
O -6.613700 -39.457400 -16.548100
O -6.526800 -38.206900 -18.318300
O -14.409100 -29.556700 -8.356700
O -14.322200 -30.807200 -10.126900
N -14.105600 -29.752500 -9.531500
C -13.495600 -28.715400 -10.266700
O -13.288300 -27.551100 -9.608300
H -13.103300 -29.353600 -12.173400
C -13.067800 -28.670700 -11.542800
C -12.713000 -26.714200 -10.531300
H -12.613200 -25.175500 -9.201800
C -12.558200 -27.376200 -11.721000
C -12.414800 -25.386600 -10.086400
H -12.185500 -27.031900 -12.499900
H -12.089100 -20.485400 -9.168700
C -11.877900 -24.434200 -10.834300
H -11.822000 -22.881500 -9.477100
H -11.668600 -24.632300 -11.717800
C -11.605000 -23.115100 -10.349900
C -11.131100 -20.490900 -9.317000
N -11.056200 -22.257700 -11.134200
N -10.797900 -21.020500 -10.636900
H -10.700700 -20.999200 -8.611800
O -10.620200 -18.229800 -8.548800
C -10.577800 -19.088100 -9.401300
C -10.146300 -20.107900 -11.415800
N -10.009400 -18.963100 -10.641200
O -9.755500 -20.252900 -12.549000
H -9.614100 -18.058200 -10.798000
