27
Fragment
H -11.321800 -26.708400 -15.877000
O -11.180400 -28.903100 -14.126000
N -10.926500 -27.613300 -16.033800
C -10.789600 -28.758100 -15.259200
C -10.358100 -27.738300 -17.273700
O -10.315700 -26.880000 -18.126200
H -10.235200 -29.649400 -18.063300
N -10.138000 -29.670700 -16.038100
N -9.879700 -30.907900 -15.540900
C -9.804800 -29.141100 -17.358000
C -9.330900 -31.765300 -16.325100
H -9.267300 -33.282500 -14.957200
H -9.113900 -31.531700 -17.197900
C -9.058000 -33.084400 -15.840700
H -8.846800 -29.135600 -17.506300
H -8.750400 -35.682100 -14.175100
C -8.521100 -34.036800 -16.588700
C -8.377700 -36.026400 -14.954000
H -8.322700 -33.825700 -17.473200
C -8.222900 -35.364400 -16.143700
C -7.868100 -37.320900 -15.132200
H -7.832600 -38.003800 -14.501600
O -7.647600 -36.201300 -17.066700
C -7.440300 -37.365600 -16.408300
N -6.830300 -38.402700 -17.143500
O -6.613700 -39.457400 -16.548100
O -6.526800 -38.206900 -18.318300
27
Fragment
O -14.409100 -46.857100 -8.356700
O -14.322200 -48.107600 -10.126900
N -14.105600 -47.052900 -9.531500
C -13.495600 -46.015800 -10.266700
O -13.288300 -44.851500 -9.608300
H -13.103300 -46.654000 -12.173400
C -13.067800 -45.971100 -11.542800
C -12.713000 -44.014600 -10.531300
H -12.613200 -42.475900 -9.201800
C -12.558200 -44.676600 -11.721000
C -12.414800 -42.687000 -10.086400
H -12.185500 -44.332300 -12.499900
H -12.089100 -37.785800 -9.168700
C -11.877900 -41.734600 -10.834300
H -11.822000 -40.181900 -9.477100
H -11.668600 -41.932700 -11.717800
C -11.605000 -40.415500 -10.349900
C -11.131100 -37.791300 -9.317000
N -11.056200 -39.558100 -11.134200
N -10.797900 -38.320900 -10.636900
H -10.700700 -38.299600 -8.611800
O -10.620200 -35.530200 -8.548800
C -10.577800 -36.388500 -9.401300
C -10.146300 -37.408300 -11.415800
N -10.009400 -36.263500 -10.641200
O -9.755500 -37.553300 -12.549000
H -9.614100 -35.358600 -10.798000
54
Fragment
H -11.321800 -26.708400 -15.877000
O -11.180400 -28.903100 -14.126000
N -10.926500 -27.613300 -16.033800
C -10.789600 -28.758100 -15.259200
C -10.358100 -27.738300 -17.273700
O -10.315700 -26.880000 -18.126200
H -10.235200 -29.649400 -18.063300
N -10.138000 -29.670700 -16.038100
N -9.879700 -30.907900 -15.540900
C -9.804800 -29.141100 -17.358000
C -9.330900 -31.765300 -16.325100
H -9.267300 -33.282500 -14.957200
H -9.113900 -31.531700 -17.197900
C -9.058000 -33.084400 -15.840700
H -8.846800 -29.135600 -17.506300
H -8.750400 -35.682100 -14.175100
C -8.521100 -34.036800 -16.588700
C -8.377700 -36.026400 -14.954000
H -8.322700 -33.825700 -17.473200
C -8.222900 -35.364400 -16.143700
C -7.868100 -37.320900 -15.132200
H -7.832600 -38.003800 -14.501600
O -7.647600 -36.201300 -17.066700
C -7.440300 -37.365600 -16.408300
N -6.830300 -38.402700 -17.143500
O -6.613700 -39.457400 -16.548100
O -6.526800 -38.206900 -18.318300
O -14.409100 -46.857100 -8.356700
O -14.322200 -48.107600 -10.126900
N -14.105600 -47.052900 -9.531500
C -13.495600 -46.015800 -10.266700
O -13.288300 -44.851500 -9.608300
H -13.103300 -46.654000 -12.173400
C -13.067800 -45.971100 -11.542800
C -12.713000 -44.014600 -10.531300
H -12.613200 -42.475900 -9.201800
C -12.558200 -44.676600 -11.721000
C -12.414800 -42.687000 -10.086400
H -12.185500 -44.332300 -12.499900
H -12.089100 -37.785800 -9.168700
C -11.877900 -41.734600 -10.834300
H -11.822000 -40.181900 -9.477100
H -11.668600 -41.932700 -11.717800
C -11.605000 -40.415500 -10.349900
C -11.131100 -37.791300 -9.317000
N -11.056200 -39.558100 -11.134200
N -10.797900 -38.320900 -10.636900
H -10.700700 -38.299600 -8.611800
O -10.620200 -35.530200 -8.548800
C -10.577800 -36.388500 -9.401300
C -10.146300 -37.408300 -11.415800
N -10.009400 -36.263500 -10.641200
O -9.755500 -37.553300 -12.549000
H -9.614100 -35.358600 -10.798000
