27
Fragment
O -34.863800 -12.721300 -66.334300
H -34.776200 -12.901200 -63.557100
H -34.558800 -11.373200 -63.908600
O -34.455000 -9.645500 -54.363900
H -34.298000 -10.941600 -59.064900
C -34.197200 -12.267300 -64.008800
H -34.110500 -11.671000 -61.541000
C -34.006200 -12.632600 -65.476800
O -33.517100 -10.330200 -56.708400
C -33.373300 -11.017000 -58.999300
N -33.233400 -9.681500 -54.458000
C -33.198700 -11.721200 -61.365300
N -32.826400 -12.349100 -63.516700
C -32.713000 -10.710000 -57.762300
N -32.675800 -12.859900 -65.662800
C -32.651900 -11.414900 -60.065600
C -32.650900 -10.088300 -55.681000
O -32.446700 -9.401500 -53.545200
N -32.340000 -12.070500 -62.275200
H -32.331600 -13.078300 -66.420100
C -31.934100 -12.701200 -64.495900
H -31.732300 -11.498200 -59.955400
C -31.404300 -10.703100 -57.364300
C -31.365000 -10.287900 -56.024600
O -30.742500 -12.867500 -64.391200
H -30.671200 -10.932600 -57.888500
H -30.611700 -10.174400 -55.490000
27
Fragment
O -40.726700 -15.108200 -70.959400
O -40.488600 -11.678200 -59.585000
H -40.213600 -11.680900 -62.332500
H -40.024500 -13.185400 -61.880000
H -39.791400 -13.540600 -66.532300
C -39.664500 -12.287400 -61.810700
C -39.564000 -11.839700 -60.364600
N -39.510300 -14.980000 -71.121100
H -39.497500 -12.901000 -64.203100
O -39.380600 -14.232200 -68.900300
O -38.921700 -15.235800 -72.174500
C -38.873900 -13.528000 -66.686200
C -38.711000 -14.539900 -70.047000
C -38.582800 -12.868200 -64.374200
C -38.396000 -13.876600 -68.001100
N -38.273500 -12.237500 -62.227700
N -38.252500 -11.624200 -60.107200
C -38.068000 -13.188400 -65.678500
H -37.952700 -11.388600 -59.336300
N -37.755900 -12.536300 -63.452000
C -37.442900 -11.822400 -61.214700
C -37.386000 -14.388100 -69.929400
C -37.173100 -13.954300 -68.597100
H -37.150300 -13.157800 -65.822900
H -36.741100 -14.536000 -70.583200
H -36.353000 -13.759400 -68.203600
O -36.257600 -11.660200 -61.246500
54
Fragment
O -34.863800 -12.721300 -66.334300
H -34.776200 -12.901200 -63.557100
H -34.558800 -11.373200 -63.908600
O -34.455000 -9.645500 -54.363900
H -34.298000 -10.941600 -59.064900
C -34.197200 -12.267300 -64.008800
H -34.110500 -11.671000 -61.541000
C -34.006200 -12.632600 -65.476800
O -33.517100 -10.330200 -56.708400
C -33.373300 -11.017000 -58.999300
N -33.233400 -9.681500 -54.458000
C -33.198700 -11.721200 -61.365300
N -32.826400 -12.349100 -63.516700
C -32.713000 -10.710000 -57.762300
N -32.675800 -12.859900 -65.662800
C -32.651900 -11.414900 -60.065600
C -32.650900 -10.088300 -55.681000
O -32.446700 -9.401500 -53.545200
N -32.340000 -12.070500 -62.275200
H -32.331600 -13.078300 -66.420100
C -31.934100 -12.701200 -64.495900
H -31.732300 -11.498200 -59.955400
C -31.404300 -10.703100 -57.364300
C -31.365000 -10.287900 -56.024600
O -30.742500 -12.867500 -64.391200
H -30.671200 -10.932600 -57.888500
H -30.611700 -10.174400 -55.490000
O -40.726700 -15.108200 -70.959400
O -40.488600 -11.678200 -59.585000
H -40.213600 -11.680900 -62.332500
H -40.024500 -13.185400 -61.880000
H -39.791400 -13.540600 -66.532300
C -39.664500 -12.287400 -61.810700
C -39.564000 -11.839700 -60.364600
N -39.510300 -14.980000 -71.121100
H -39.497500 -12.901000 -64.203100
O -39.380600 -14.232200 -68.900300
O -38.921700 -15.235800 -72.174500
C -38.873900 -13.528000 -66.686200
C -38.711000 -14.539900 -70.047000
C -38.582800 -12.868200 -64.374200
C -38.396000 -13.876600 -68.001100
N -38.273500 -12.237500 -62.227700
N -38.252500 -11.624200 -60.107200
C -38.068000 -13.188400 -65.678500
H -37.952700 -11.388600 -59.336300
N -37.755900 -12.536300 -63.452000
C -37.442900 -11.822400 -61.214700
C -37.386000 -14.388100 -69.929400
C -37.173100 -13.954300 -68.597100
H -37.150300 -13.157800 -65.822900
H -36.741100 -14.536000 -70.583200
H -36.353000 -13.759400 -68.203600
O -36.257600 -11.660200 -61.246500
