27
Fragment
O -34.863800 -12.721300 -66.334300
H -34.776200 -12.901200 -63.557100
H -34.558800 -11.373200 -63.908600
O -34.455000 -9.645500 -54.363900
H -34.298000 -10.941600 -59.064900
C -34.197200 -12.267300 -64.008800
H -34.110500 -11.671000 -61.541000
C -34.006200 -12.632600 -65.476800
O -33.517100 -10.330200 -56.708400
C -33.373300 -11.017000 -58.999300
N -33.233400 -9.681500 -54.458000
C -33.198700 -11.721200 -61.365300
N -32.826400 -12.349100 -63.516700
C -32.713000 -10.710000 -57.762300
N -32.675800 -12.859900 -65.662800
C -32.651900 -11.414900 -60.065600
C -32.650900 -10.088300 -55.681000
O -32.446700 -9.401500 -53.545200
N -32.340000 -12.070500 -62.275200
H -32.331600 -13.078300 -66.420100
C -31.934100 -12.701200 -64.495900
H -31.732300 -11.498200 -59.955400
C -31.404300 -10.703100 -57.364300
C -31.365000 -10.287900 -56.024600
O -30.742500 -12.867500 -64.391200
H -30.671200 -10.932600 -57.888500
H -30.611700 -10.174400 -55.490000
27
Fragment
H -40.162600 -10.526600 -68.111700
H -40.123500 -9.830500 -65.689600
O -40.083300 -8.156000 -59.134600
C -39.412600 -10.344100 -67.593600
C -39.386500 -9.958700 -66.241900
H -39.068500 -9.250400 -63.632600
C -38.895600 -8.030600 -59.095400
H -38.491400 -7.474400 -57.226500
N -38.466400 -8.574000 -61.346700
O -38.315000 -11.043400 -70.121200
C -38.144100 -9.165200 -63.564200
N -38.143400 -7.666700 -57.989200
C -38.122400 -10.393300 -67.982600
C -38.072400 -9.808300 -65.891300
N -37.991400 -8.184500 -60.126600
C -37.609700 -8.762500 -62.295000
N -37.533900 -10.731500 -69.208000
C -37.416400 -9.428500 -64.659700
O -37.263500 -10.076500 -66.967900
C -36.808200 -7.642500 -58.222600
H -36.697200 -8.643500 -62.162600
C -36.608400 -7.999400 -59.698000
H -36.489800 -9.367400 -64.627100
O -36.312100 -10.685800 -69.335500
H -36.176800 -7.278800 -60.184300
H -36.089700 -8.812700 -59.801600
O -35.951800 -7.381900 -57.416200
54
Fragment
O -34.863800 -12.721300 -66.334300
H -34.776200 -12.901200 -63.557100
H -34.558800 -11.373200 -63.908600
O -34.455000 -9.645500 -54.363900
H -34.298000 -10.941600 -59.064900
C -34.197200 -12.267300 -64.008800
H -34.110500 -11.671000 -61.541000
C -34.006200 -12.632600 -65.476800
O -33.517100 -10.330200 -56.708400
C -33.373300 -11.017000 -58.999300
N -33.233400 -9.681500 -54.458000
C -33.198700 -11.721200 -61.365300
N -32.826400 -12.349100 -63.516700
C -32.713000 -10.710000 -57.762300
N -32.675800 -12.859900 -65.662800
C -32.651900 -11.414900 -60.065600
C -32.650900 -10.088300 -55.681000
O -32.446700 -9.401500 -53.545200
N -32.340000 -12.070500 -62.275200
H -32.331600 -13.078300 -66.420100
C -31.934100 -12.701200 -64.495900
H -31.732300 -11.498200 -59.955400
C -31.404300 -10.703100 -57.364300
C -31.365000 -10.287900 -56.024600
O -30.742500 -12.867500 -64.391200
H -30.671200 -10.932600 -57.888500
H -30.611700 -10.174400 -55.490000
H -40.162600 -10.526600 -68.111700
H -40.123500 -9.830500 -65.689600
O -40.083300 -8.156000 -59.134600
C -39.412600 -10.344100 -67.593600
C -39.386500 -9.958700 -66.241900
H -39.068500 -9.250400 -63.632600
C -38.895600 -8.030600 -59.095400
H -38.491400 -7.474400 -57.226500
N -38.466400 -8.574000 -61.346700
O -38.315000 -11.043400 -70.121200
C -38.144100 -9.165200 -63.564200
N -38.143400 -7.666700 -57.989200
C -38.122400 -10.393300 -67.982600
C -38.072400 -9.808300 -65.891300
N -37.991400 -8.184500 -60.126600
C -37.609700 -8.762500 -62.295000
N -37.533900 -10.731500 -69.208000
C -37.416400 -9.428500 -64.659700
O -37.263500 -10.076500 -66.967900
C -36.808200 -7.642500 -58.222600
H -36.697200 -8.643500 -62.162600
C -36.608400 -7.999400 -59.698000
H -36.489800 -9.367400 -64.627100
O -36.312100 -10.685800 -69.335500
H -36.176800 -7.278800 -60.184300
H -36.089700 -8.812700 -59.801600
O -35.951800 -7.381900 -57.416200
