27
Fragment
O -34.863800 -12.721300 -66.334300
H -34.776200 -12.901200 -63.557100
H -34.558800 -11.373200 -63.908600
O -34.455000 -9.645500 -54.363900
H -34.298000 -10.941600 -59.064900
C -34.197200 -12.267300 -64.008800
H -34.110500 -11.671000 -61.541000
C -34.006200 -12.632600 -65.476800
O -33.517100 -10.330200 -56.708400
C -33.373300 -11.017000 -58.999300
N -33.233400 -9.681500 -54.458000
C -33.198700 -11.721200 -61.365300
N -32.826400 -12.349100 -63.516700
C -32.713000 -10.710000 -57.762300
N -32.675800 -12.859900 -65.662800
C -32.651900 -11.414900 -60.065600
C -32.650900 -10.088300 -55.681000
O -32.446700 -9.401500 -53.545200
N -32.340000 -12.070500 -62.275200
H -32.331600 -13.078300 -66.420100
C -31.934100 -12.701200 -64.495900
H -31.732300 -11.498200 -59.955400
C -31.404300 -10.703100 -57.364300
C -31.365000 -10.287900 -56.024600
O -30.742500 -12.867500 -64.391200
H -30.671200 -10.932600 -57.888500
H -30.611700 -10.174400 -55.490000
12
Fragment
H -28.859900 -13.798000 -55.828600
H -28.696100 -12.294900 -56.242800
H -28.365300 -13.431600 -57.270200
C -28.337100 -13.179400 -56.344600
H -27.276500 -13.621000 -53.947800
H -27.011000 -12.098400 -54.209700
N -26.966300 -13.200900 -55.879800
C -26.749300 -12.991600 -54.446000
O -26.050300 -13.559200 -57.916200
C -25.958600 -13.401900 -56.706000
H -25.820700 -13.118300 -54.240600
H -25.103900 -13.426600 -56.337600
39
Fragment
O -34.863800 -12.721300 -66.334300
H -34.776200 -12.901200 -63.557100
H -34.558800 -11.373200 -63.908600
O -34.455000 -9.645500 -54.363900
H -34.298000 -10.941600 -59.064900
C -34.197200 -12.267300 -64.008800
H -34.110500 -11.671000 -61.541000
C -34.006200 -12.632600 -65.476800
O -33.517100 -10.330200 -56.708400
C -33.373300 -11.017000 -58.999300
N -33.233400 -9.681500 -54.458000
C -33.198700 -11.721200 -61.365300
N -32.826400 -12.349100 -63.516700
C -32.713000 -10.710000 -57.762300
N -32.675800 -12.859900 -65.662800
C -32.651900 -11.414900 -60.065600
C -32.650900 -10.088300 -55.681000
O -32.446700 -9.401500 -53.545200
N -32.340000 -12.070500 -62.275200
H -32.331600 -13.078300 -66.420100
C -31.934100 -12.701200 -64.495900
H -31.732300 -11.498200 -59.955400
C -31.404300 -10.703100 -57.364300
C -31.365000 -10.287900 -56.024600
O -30.742500 -12.867500 -64.391200
H -30.671200 -10.932600 -57.888500
H -30.611700 -10.174400 -55.490000
H -28.859900 -13.798000 -55.828600
H -28.696100 -12.294900 -56.242800
H -28.365300 -13.431600 -57.270200
C -28.337100 -13.179400 -56.344600
H -27.276500 -13.621000 -53.947800
H -27.011000 -12.098400 -54.209700
N -26.966300 -13.200900 -55.879800
C -26.749300 -12.991600 -54.446000
O -26.050300 -13.559200 -57.916200
C -25.958600 -13.401900 -56.706000
H -25.820700 -13.118300 -54.240600
H -25.103900 -13.426600 -56.337600
