23
Fragment
H -12.395400 -16.683900 -15.593900
H -12.058400 -15.738200 -14.369100
H -11.954200 -15.184000 -15.848500
C -11.826500 -15.962000 -15.283800
H -10.634500 -18.361500 -14.808600
C -10.372600 -16.399800 -15.345800
H -10.366000 -17.417700 -13.565300
H -10.160300 -16.636500 -16.283500
C -10.112200 -17.612900 -14.481500
N -9.935000 -13.782200 -16.822700
H -9.915600 -12.310400 -18.057700
C -9.591900 -12.593000 -17.221400
N -9.501900 -15.271900 -14.944200
C -9.374300 -14.088900 -15.619500
H -9.169000 -17.837800 -14.514900
N -8.807200 -11.724400 -16.535700
C -8.726000 -15.144900 -13.823200
H -8.641500 -10.896400 -16.880700
H -8.623400 -15.828500 -13.185700
C -8.545900 -13.301400 -14.858400
C -8.221900 -11.982400 -15.300300
N -8.139800 -13.974600 -13.726000
O -7.535800 -11.138000 -14.728500
23
Fragment
H -14.855700 -5.661400 -21.032600
H -14.518800 -6.607000 -19.807800
H -14.414600 -7.161200 -21.287200
C -14.286800 -6.383200 -20.722500
H -13.094800 -3.983700 -20.247300
C -12.833000 -5.945400 -20.784500
H -12.826400 -4.927600 -19.004000
H -12.620700 -5.708800 -21.722300
C -12.572600 -4.732400 -19.920200
N -12.395400 -8.563100 -22.261500
H -12.376000 -10.034800 -23.496400
C -12.052300 -9.752300 -22.660100
N -11.962200 -7.073300 -20.382900
C -11.834700 -8.256400 -21.058200
H -11.629400 -4.507500 -19.953600
N -11.267500 -10.620900 -21.974400
C -11.186400 -7.200400 -19.261900
H -11.101900 -11.448800 -22.319400
H -11.083800 -6.516800 -18.624400
C -11.006300 -9.043800 -20.297100
C -10.682300 -10.362800 -20.739100
N -10.600200 -8.370600 -19.164800
O -9.996100 -11.207200 -20.167200
46
Fragment
H -12.395400 -16.683900 -15.593900
H -12.058400 -15.738200 -14.369100
H -11.954200 -15.184000 -15.848500
C -11.826500 -15.962000 -15.283800
H -10.634500 -18.361500 -14.808600
C -10.372600 -16.399800 -15.345800
H -10.366000 -17.417700 -13.565300
H -10.160300 -16.636500 -16.283500
C -10.112200 -17.612900 -14.481500
N -9.935000 -13.782200 -16.822700
H -9.915600 -12.310400 -18.057700
C -9.591900 -12.593000 -17.221400
N -9.501900 -15.271900 -14.944200
C -9.374300 -14.088900 -15.619500
H -9.169000 -17.837800 -14.514900
N -8.807200 -11.724400 -16.535700
C -8.726000 -15.144900 -13.823200
H -8.641500 -10.896400 -16.880700
H -8.623400 -15.828500 -13.185700
C -8.545900 -13.301400 -14.858400
C -8.221900 -11.982400 -15.300300
N -8.139800 -13.974600 -13.726000
O -7.535800 -11.138000 -14.728500
H -14.855700 -5.661400 -21.032600
H -14.518800 -6.607000 -19.807800
H -14.414600 -7.161200 -21.287200
C -14.286800 -6.383200 -20.722500
H -13.094800 -3.983700 -20.247300
C -12.833000 -5.945400 -20.784500
H -12.826400 -4.927600 -19.004000
H -12.620700 -5.708800 -21.722300
C -12.572600 -4.732400 -19.920200
N -12.395400 -8.563100 -22.261500
H -12.376000 -10.034800 -23.496400
C -12.052300 -9.752300 -22.660100
N -11.962200 -7.073300 -20.382900
C -11.834700 -8.256400 -21.058200
H -11.629400 -4.507500 -19.953600
N -11.267500 -10.620900 -21.974400
C -11.186400 -7.200400 -19.261900
H -11.101900 -11.448800 -22.319400
H -11.083800 -6.516800 -18.624400
C -11.006300 -9.043800 -20.297100
C -10.682300 -10.362800 -20.739100
N -10.600200 -8.370600 -19.164800
O -9.996100 -11.207200 -20.167200
