23
Fragment
H -12.395400 -16.683900 -15.593900
H -12.058400 -15.738200 -14.369100
H -11.954200 -15.184000 -15.848500
C -11.826500 -15.962000 -15.283800
H -10.634500 -18.361500 -14.808600
C -10.372600 -16.399800 -15.345800
H -10.366000 -17.417700 -13.565300
H -10.160300 -16.636500 -16.283500
C -10.112200 -17.612900 -14.481500
N -9.935000 -13.782200 -16.822700
H -9.915600 -12.310400 -18.057700
C -9.591900 -12.593000 -17.221400
N -9.501900 -15.271900 -14.944200
C -9.374300 -14.088900 -15.619500
H -9.169000 -17.837800 -14.514900
N -8.807200 -11.724400 -16.535700
C -8.726000 -15.144900 -13.823200
H -8.641500 -10.896400 -16.880700
H -8.623400 -15.828500 -13.185700
C -8.545900 -13.301400 -14.858400
C -8.221900 -11.982400 -15.300300
N -8.139800 -13.974600 -13.726000
O -7.535800 -11.138000 -14.728500
23
Fragment
H -9.935000 -5.661400 -10.155200
H -9.598000 -6.607000 -8.930400
H -9.493800 -7.161200 -10.409700
C -9.366100 -6.383200 -9.845100
H -8.174100 -3.983700 -9.369800
C -7.912200 -5.945400 -9.907100
H -7.905600 -4.927600 -8.126500
H -7.699900 -5.708800 -10.844800
C -7.651800 -4.732400 -9.042800
N -7.474600 -8.563100 -11.384000
H -7.455300 -10.034800 -12.618900
C -7.131500 -9.752300 -11.782700
N -7.041500 -7.073300 -9.505500
C -6.913900 -8.256400 -10.180800
H -6.708600 -4.507500 -9.076100
N -6.346800 -10.620900 -11.097000
C -6.265600 -7.200400 -8.384500
H -6.181100 -11.448800 -11.442000
H -6.163000 -6.516800 -7.746900
C -6.085500 -9.043800 -9.419700
C -5.761500 -10.362800 -9.861600
N -5.679400 -8.370600 -8.287300
O -5.075400 -11.207200 -9.289800
46
Fragment
H -12.395400 -16.683900 -15.593900
H -12.058400 -15.738200 -14.369100
H -11.954200 -15.184000 -15.848500
C -11.826500 -15.962000 -15.283800
H -10.634500 -18.361500 -14.808600
C -10.372600 -16.399800 -15.345800
H -10.366000 -17.417700 -13.565300
H -10.160300 -16.636500 -16.283500
C -10.112200 -17.612900 -14.481500
N -9.935000 -13.782200 -16.822700
H -9.915600 -12.310400 -18.057700
C -9.591900 -12.593000 -17.221400
N -9.501900 -15.271900 -14.944200
C -9.374300 -14.088900 -15.619500
H -9.169000 -17.837800 -14.514900
N -8.807200 -11.724400 -16.535700
C -8.726000 -15.144900 -13.823200
H -8.641500 -10.896400 -16.880700
H -8.623400 -15.828500 -13.185700
C -8.545900 -13.301400 -14.858400
C -8.221900 -11.982400 -15.300300
N -8.139800 -13.974600 -13.726000
O -7.535800 -11.138000 -14.728500
H -9.935000 -5.661400 -10.155200
H -9.598000 -6.607000 -8.930400
H -9.493800 -7.161200 -10.409700
C -9.366100 -6.383200 -9.845100
H -8.174100 -3.983700 -9.369800
C -7.912200 -5.945400 -9.907100
H -7.905600 -4.927600 -8.126500
H -7.699900 -5.708800 -10.844800
C -7.651800 -4.732400 -9.042800
N -7.474600 -8.563100 -11.384000
H -7.455300 -10.034800 -12.618900
C -7.131500 -9.752300 -11.782700
N -7.041500 -7.073300 -9.505500
C -6.913900 -8.256400 -10.180800
H -6.708600 -4.507500 -9.076100
N -6.346800 -10.620900 -11.097000
C -6.265600 -7.200400 -8.384500
H -6.181100 -11.448800 -11.442000
H -6.163000 -6.516800 -7.746900
C -6.085500 -9.043800 -9.419700
C -5.761500 -10.362800 -9.861600
N -5.679400 -8.370600 -8.287300
O -5.075400 -11.207200 -9.289800
