23
Fragment
H -12.395400 -16.683900 -15.593900
H -12.058400 -15.738200 -14.369100
H -11.954200 -15.184000 -15.848500
C -11.826500 -15.962000 -15.283800
H -10.634500 -18.361500 -14.808600
C -10.372600 -16.399800 -15.345800
H -10.366000 -17.417700 -13.565300
H -10.160300 -16.636500 -16.283500
C -10.112200 -17.612900 -14.481500
N -9.935000 -13.782200 -16.822700
H -9.915600 -12.310400 -18.057700
C -9.591900 -12.593000 -17.221400
N -9.501900 -15.271900 -14.944200
C -9.374300 -14.088900 -15.619500
H -9.169000 -17.837800 -14.514900
N -8.807200 -11.724400 -16.535700
C -8.726000 -15.144900 -13.823200
H -8.641500 -10.896400 -16.880700
H -8.623400 -15.828500 -13.185700
C -8.545900 -13.301400 -14.858400
C -8.221900 -11.982400 -15.300300
N -8.139800 -13.974600 -13.726000
O -7.535800 -11.138000 -14.728500
23
Fragment
O -14.373900 -15.607100 -12.465100
N -13.769900 -18.443700 -13.467600
C -13.687800 -16.451500 -11.893300
C -13.363800 -17.770500 -12.335300
H -13.286300 -20.297500 -14.008000
H -13.268200 -15.365500 -10.312900
C -13.183700 -19.613900 -13.370500
N -13.102500 -16.193400 -10.657900
H -12.740700 -22.306800 -12.678800
C -12.535400 -18.557900 -11.574200
N -12.407800 -19.741000 -12.249400
C -12.317800 -17.062000 -9.972200
H -11.994000 -16.779500 -9.136000
N -11.974700 -18.251200 -10.370900
C -11.797500 -22.081900 -12.712200
H -11.749400 -21.105500 -10.910100
H -11.543700 -21.886700 -13.628400
C -11.537100 -20.868900 -11.847800
H -11.275200 -22.830600 -12.385100
C -10.083200 -20.431100 -11.909800
H -9.955500 -19.653100 -11.345200
H -9.851300 -20.207300 -12.824500
H -9.514300 -21.152900 -11.599700
46
Fragment
H -12.395400 -16.683900 -15.593900
H -12.058400 -15.738200 -14.369100
H -11.954200 -15.184000 -15.848500
C -11.826500 -15.962000 -15.283800
H -10.634500 -18.361500 -14.808600
C -10.372600 -16.399800 -15.345800
H -10.366000 -17.417700 -13.565300
H -10.160300 -16.636500 -16.283500
C -10.112200 -17.612900 -14.481500
N -9.935000 -13.782200 -16.822700
H -9.915600 -12.310400 -18.057700
C -9.591900 -12.593000 -17.221400
N -9.501900 -15.271900 -14.944200
C -9.374300 -14.088900 -15.619500
H -9.169000 -17.837800 -14.514900
N -8.807200 -11.724400 -16.535700
C -8.726000 -15.144900 -13.823200
H -8.641500 -10.896400 -16.880700
H -8.623400 -15.828500 -13.185700
C -8.545900 -13.301400 -14.858400
C -8.221900 -11.982400 -15.300300
N -8.139800 -13.974600 -13.726000
O -7.535800 -11.138000 -14.728500
O -14.373900 -15.607100 -12.465100
N -13.769900 -18.443700 -13.467600
C -13.687800 -16.451500 -11.893300
C -13.363800 -17.770500 -12.335300
H -13.286300 -20.297500 -14.008000
H -13.268200 -15.365500 -10.312900
C -13.183700 -19.613900 -13.370500
N -13.102500 -16.193400 -10.657900
H -12.740700 -22.306800 -12.678800
C -12.535400 -18.557900 -11.574200
N -12.407800 -19.741000 -12.249400
C -12.317800 -17.062000 -9.972200
H -11.994000 -16.779500 -9.136000
N -11.974700 -18.251200 -10.370900
C -11.797500 -22.081900 -12.712200
H -11.749400 -21.105500 -10.910100
H -11.543700 -21.886700 -13.628400
C -11.537100 -20.868900 -11.847800
H -11.275200 -22.830600 -12.385100
C -10.083200 -20.431100 -11.909800
H -9.955500 -19.653100 -11.345200
H -9.851300 -20.207300 -12.824500
H -9.514300 -21.152900 -11.599700
