23
Fragment
H -12.395400 -16.683900 -15.593900
H -12.058400 -15.738200 -14.369100
H -11.954200 -15.184000 -15.848500
C -11.826500 -15.962000 -15.283800
H -10.634500 -18.361500 -14.808600
C -10.372600 -16.399800 -15.345800
H -10.366000 -17.417700 -13.565300
H -10.160300 -16.636500 -16.283500
C -10.112200 -17.612900 -14.481500
N -9.935000 -13.782200 -16.822700
H -9.915600 -12.310400 -18.057700
C -9.591900 -12.593000 -17.221400
N -9.501900 -15.271900 -14.944200
C -9.374300 -14.088900 -15.619500
H -9.169000 -17.837800 -14.514900
N -8.807200 -11.724400 -16.535700
C -8.726000 -15.144900 -13.823200
H -8.641500 -10.896400 -16.880700
H -8.623400 -15.828500 -13.185700
C -8.545900 -13.301400 -14.858400
C -8.221900 -11.982400 -15.300300
N -8.139800 -13.974600 -13.726000
O -7.535800 -11.138000 -14.728500
23
Fragment
H -12.395400 -25.622000 -15.593900
H -12.058400 -24.676300 -14.369100
H -11.954200 -24.122100 -15.848500
C -11.826500 -24.900100 -15.283800
H -10.634500 -27.299600 -14.808600
C -10.372600 -25.337900 -15.345800
H -10.366000 -26.355800 -13.565300
H -10.160300 -25.574600 -16.283500
C -10.112200 -26.551000 -14.481500
N -9.935000 -22.720300 -16.822700
H -9.915600 -21.248500 -18.057700
C -9.591900 -21.531100 -17.221400
N -9.501900 -24.210000 -14.944200
C -9.374300 -23.027000 -15.619500
H -9.169000 -26.775900 -14.514900
N -8.807200 -20.662500 -16.535700
C -8.726000 -24.083000 -13.823200
H -8.641500 -19.834500 -16.880700
H -8.623400 -24.766600 -13.185700
C -8.545900 -22.239500 -14.858400
C -8.221900 -20.920500 -15.300300
N -8.139800 -22.912700 -13.726000
O -7.535800 -20.076100 -14.728500
46
Fragment
H -12.395400 -16.683900 -15.593900
H -12.058400 -15.738200 -14.369100
H -11.954200 -15.184000 -15.848500
C -11.826500 -15.962000 -15.283800
H -10.634500 -18.361500 -14.808600
C -10.372600 -16.399800 -15.345800
H -10.366000 -17.417700 -13.565300
H -10.160300 -16.636500 -16.283500
C -10.112200 -17.612900 -14.481500
N -9.935000 -13.782200 -16.822700
H -9.915600 -12.310400 -18.057700
C -9.591900 -12.593000 -17.221400
N -9.501900 -15.271900 -14.944200
C -9.374300 -14.088900 -15.619500
H -9.169000 -17.837800 -14.514900
N -8.807200 -11.724400 -16.535700
C -8.726000 -15.144900 -13.823200
H -8.641500 -10.896400 -16.880700
H -8.623400 -15.828500 -13.185700
C -8.545900 -13.301400 -14.858400
C -8.221900 -11.982400 -15.300300
N -8.139800 -13.974600 -13.726000
O -7.535800 -11.138000 -14.728500
H -12.395400 -25.622000 -15.593900
H -12.058400 -24.676300 -14.369100
H -11.954200 -24.122100 -15.848500
C -11.826500 -24.900100 -15.283800
H -10.634500 -27.299600 -14.808600
C -10.372600 -25.337900 -15.345800
H -10.366000 -26.355800 -13.565300
H -10.160300 -25.574600 -16.283500
C -10.112200 -26.551000 -14.481500
N -9.935000 -22.720300 -16.822700
H -9.915600 -21.248500 -18.057700
C -9.591900 -21.531100 -17.221400
N -9.501900 -24.210000 -14.944200
C -9.374300 -23.027000 -15.619500
H -9.169000 -26.775900 -14.514900
N -8.807200 -20.662500 -16.535700
C -8.726000 -24.083000 -13.823200
H -8.641500 -19.834500 -16.880700
H -8.623400 -24.766600 -13.185700
C -8.545900 -22.239500 -14.858400
C -8.221900 -20.920500 -15.300300
N -8.139800 -22.912700 -13.726000
O -7.535800 -20.076100 -14.728500
