23
Fragment
H -12.395400 -16.683900 -15.593900
H -12.058400 -15.738200 -14.369100
H -11.954200 -15.184000 -15.848500
C -11.826500 -15.962000 -15.283800
H -10.634500 -18.361500 -14.808600
C -10.372600 -16.399800 -15.345800
H -10.366000 -17.417700 -13.565300
H -10.160300 -16.636500 -16.283500
C -10.112200 -17.612900 -14.481500
N -9.935000 -13.782200 -16.822700
H -9.915600 -12.310400 -18.057700
C -9.591900 -12.593000 -17.221400
N -9.501900 -15.271900 -14.944200
C -9.374300 -14.088900 -15.619500
H -9.169000 -17.837800 -14.514900
N -8.807200 -11.724400 -16.535700
C -8.726000 -15.144900 -13.823200
H -8.641500 -10.896400 -16.880700
H -8.623400 -15.828500 -13.185700
C -8.545900 -13.301400 -14.858400
C -8.221900 -11.982400 -15.300300
N -8.139800 -13.974600 -13.726000
O -7.535800 -11.138000 -14.728500
23
Fragment
H -9.935000 -14.599500 -10.155200
H -9.598000 -15.545100 -8.930400
H -9.493800 -16.099300 -10.409700
C -9.366100 -15.321300 -9.845100
H -8.174100 -12.921800 -9.369800
C -7.912200 -14.883500 -9.907100
H -7.905600 -13.865700 -8.126500
H -7.699900 -14.646900 -10.844800
C -7.651800 -13.670500 -9.042800
N -7.474600 -17.501200 -11.384000
H -7.455300 -18.972900 -12.618900
C -7.131500 -18.690400 -11.782700
N -7.041500 -16.011400 -9.505500
C -6.913900 -17.194500 -10.180800
H -6.708600 -13.445600 -9.076100
N -6.346800 -19.559000 -11.097000
C -6.265600 -16.138500 -8.384500
H -6.181100 -20.386900 -11.442000
H -6.163000 -15.454900 -7.746900
C -6.085500 -17.981900 -9.419700
C -5.761500 -19.300900 -9.861600
N -5.679400 -17.308700 -8.287300
O -5.075400 -20.145300 -9.289800
46
Fragment
H -12.395400 -16.683900 -15.593900
H -12.058400 -15.738200 -14.369100
H -11.954200 -15.184000 -15.848500
C -11.826500 -15.962000 -15.283800
H -10.634500 -18.361500 -14.808600
C -10.372600 -16.399800 -15.345800
H -10.366000 -17.417700 -13.565300
H -10.160300 -16.636500 -16.283500
C -10.112200 -17.612900 -14.481500
N -9.935000 -13.782200 -16.822700
H -9.915600 -12.310400 -18.057700
C -9.591900 -12.593000 -17.221400
N -9.501900 -15.271900 -14.944200
C -9.374300 -14.088900 -15.619500
H -9.169000 -17.837800 -14.514900
N -8.807200 -11.724400 -16.535700
C -8.726000 -15.144900 -13.823200
H -8.641500 -10.896400 -16.880700
H -8.623400 -15.828500 -13.185700
C -8.545900 -13.301400 -14.858400
C -8.221900 -11.982400 -15.300300
N -8.139800 -13.974600 -13.726000
O -7.535800 -11.138000 -14.728500
H -9.935000 -14.599500 -10.155200
H -9.598000 -15.545100 -8.930400
H -9.493800 -16.099300 -10.409700
C -9.366100 -15.321300 -9.845100
H -8.174100 -12.921800 -9.369800
C -7.912200 -14.883500 -9.907100
H -7.905600 -13.865700 -8.126500
H -7.699900 -14.646900 -10.844800
C -7.651800 -13.670500 -9.042800
N -7.474600 -17.501200 -11.384000
H -7.455300 -18.972900 -12.618900
C -7.131500 -18.690400 -11.782700
N -7.041500 -16.011400 -9.505500
C -6.913900 -17.194500 -10.180800
H -6.708600 -13.445600 -9.076100
N -6.346800 -19.559000 -11.097000
C -6.265600 -16.138500 -8.384500
H -6.181100 -20.386900 -11.442000
H -6.163000 -15.454900 -7.746900
C -6.085500 -17.981900 -9.419700
C -5.761500 -19.300900 -9.861600
N -5.679400 -17.308700 -8.287300
O -5.075400 -20.145300 -9.289800
