23
Fragment
H -12.395400 -16.683900 -15.593900
H -12.058400 -15.738200 -14.369100
H -11.954200 -15.184000 -15.848500
C -11.826500 -15.962000 -15.283800
H -10.634500 -18.361500 -14.808600
C -10.372600 -16.399800 -15.345800
H -10.366000 -17.417700 -13.565300
H -10.160300 -16.636500 -16.283500
C -10.112200 -17.612900 -14.481500
N -9.935000 -13.782200 -16.822700
H -9.915600 -12.310400 -18.057700
C -9.591900 -12.593000 -17.221400
N -9.501900 -15.271900 -14.944200
C -9.374300 -14.088900 -15.619500
H -9.169000 -17.837800 -14.514900
N -8.807200 -11.724400 -16.535700
C -8.726000 -15.144900 -13.823200
H -8.641500 -10.896400 -16.880700
H -8.623400 -15.828500 -13.185700
C -8.545900 -13.301400 -14.858400
C -8.221900 -11.982400 -15.300300
N -8.139800 -13.974600 -13.726000
O -7.535800 -11.138000 -14.728500
23
Fragment
H -14.855700 -14.599500 -21.032600
H -14.518800 -15.545100 -19.807800
H -14.414600 -16.099300 -21.287200
C -14.286800 -15.321300 -20.722500
H -13.094800 -12.921800 -20.247300
C -12.833000 -14.883500 -20.784500
H -12.826400 -13.865700 -19.004000
H -12.620700 -14.646900 -21.722300
C -12.572600 -13.670500 -19.920200
N -12.395400 -17.501200 -22.261500
H -12.376000 -18.972900 -23.496400
C -12.052300 -18.690400 -22.660100
N -11.962200 -16.011400 -20.382900
C -11.834700 -17.194500 -21.058200
H -11.629400 -13.445600 -19.953600
N -11.267500 -19.559000 -21.974400
C -11.186400 -16.138500 -19.261900
H -11.101900 -20.386900 -22.319400
H -11.083800 -15.454900 -18.624400
C -11.006300 -17.981900 -20.297100
C -10.682300 -19.300900 -20.739100
N -10.600200 -17.308700 -19.164800
O -9.996100 -20.145300 -20.167200
46
Fragment
H -12.395400 -16.683900 -15.593900
H -12.058400 -15.738200 -14.369100
H -11.954200 -15.184000 -15.848500
C -11.826500 -15.962000 -15.283800
H -10.634500 -18.361500 -14.808600
C -10.372600 -16.399800 -15.345800
H -10.366000 -17.417700 -13.565300
H -10.160300 -16.636500 -16.283500
C -10.112200 -17.612900 -14.481500
N -9.935000 -13.782200 -16.822700
H -9.915600 -12.310400 -18.057700
C -9.591900 -12.593000 -17.221400
N -9.501900 -15.271900 -14.944200
C -9.374300 -14.088900 -15.619500
H -9.169000 -17.837800 -14.514900
N -8.807200 -11.724400 -16.535700
C -8.726000 -15.144900 -13.823200
H -8.641500 -10.896400 -16.880700
H -8.623400 -15.828500 -13.185700
C -8.545900 -13.301400 -14.858400
C -8.221900 -11.982400 -15.300300
N -8.139800 -13.974600 -13.726000
O -7.535800 -11.138000 -14.728500
H -14.855700 -14.599500 -21.032600
H -14.518800 -15.545100 -19.807800
H -14.414600 -16.099300 -21.287200
C -14.286800 -15.321300 -20.722500
H -13.094800 -12.921800 -20.247300
C -12.833000 -14.883500 -20.784500
H -12.826400 -13.865700 -19.004000
H -12.620700 -14.646900 -21.722300
C -12.572600 -13.670500 -19.920200
N -12.395400 -17.501200 -22.261500
H -12.376000 -18.972900 -23.496400
C -12.052300 -18.690400 -22.660100
N -11.962200 -16.011400 -20.382900
C -11.834700 -17.194500 -21.058200
H -11.629400 -13.445600 -19.953600
N -11.267500 -19.559000 -21.974400
C -11.186400 -16.138500 -19.261900
H -11.101900 -20.386900 -22.319400
H -11.083800 -15.454900 -18.624400
C -11.006300 -17.981900 -20.297100
C -10.682300 -19.300900 -20.739100
N -10.600200 -17.308700 -19.164800
O -9.996100 -20.145300 -20.167200
