23
Fragment
H -12.395400 -16.683900 -15.593900
H -12.058400 -15.738200 -14.369100
H -11.954200 -15.184000 -15.848500
C -11.826500 -15.962000 -15.283800
H -10.634500 -18.361500 -14.808600
C -10.372600 -16.399800 -15.345800
H -10.366000 -17.417700 -13.565300
H -10.160300 -16.636500 -16.283500
C -10.112200 -17.612900 -14.481500
N -9.935000 -13.782200 -16.822700
H -9.915600 -12.310400 -18.057700
C -9.591900 -12.593000 -17.221400
N -9.501900 -15.271900 -14.944200
C -9.374300 -14.088900 -15.619500
H -9.169000 -17.837800 -14.514900
N -8.807200 -11.724400 -16.535700
C -8.726000 -15.144900 -13.823200
H -8.641500 -10.896400 -16.880700
H -8.623400 -15.828500 -13.185700
C -8.545900 -13.301400 -14.858400
C -8.221900 -11.982400 -15.300300
N -8.139800 -13.974600 -13.726000
O -7.535800 -11.138000 -14.728500
23
Fragment
O -16.834300 -24.614400 -17.903900
N -16.230300 -21.777800 -18.906300
C -16.148200 -23.770000 -17.332000
C -15.824200 -22.451000 -17.774000
H -15.746600 -19.923900 -19.446700
H -15.728600 -24.856000 -15.751600
C -15.644100 -20.607500 -18.809200
N -15.562900 -24.028000 -16.096700
H -15.201100 -17.914600 -18.117500
C -14.995700 -21.663500 -17.012900
N -14.868200 -20.480500 -17.688200
C -14.778200 -23.159400 -15.411000
H -14.454400 -23.442000 -14.574700
N -14.435100 -21.970200 -15.809600
C -14.257900 -18.139500 -18.150900
H -14.209700 -19.115900 -16.348800
H -14.004000 -18.334700 -19.067100
C -13.997400 -19.352600 -17.286600
H -13.735600 -17.390900 -17.823800
C -12.543600 -19.790400 -17.348600
H -12.415800 -20.568400 -16.783900
H -12.311600 -20.014200 -18.263200
H -11.974700 -19.068500 -17.038400
46
Fragment
H -12.395400 -16.683900 -15.593900
H -12.058400 -15.738200 -14.369100
H -11.954200 -15.184000 -15.848500
C -11.826500 -15.962000 -15.283800
H -10.634500 -18.361500 -14.808600
C -10.372600 -16.399800 -15.345800
H -10.366000 -17.417700 -13.565300
H -10.160300 -16.636500 -16.283500
C -10.112200 -17.612900 -14.481500
N -9.935000 -13.782200 -16.822700
H -9.915600 -12.310400 -18.057700
C -9.591900 -12.593000 -17.221400
N -9.501900 -15.271900 -14.944200
C -9.374300 -14.088900 -15.619500
H -9.169000 -17.837800 -14.514900
N -8.807200 -11.724400 -16.535700
C -8.726000 -15.144900 -13.823200
H -8.641500 -10.896400 -16.880700
H -8.623400 -15.828500 -13.185700
C -8.545900 -13.301400 -14.858400
C -8.221900 -11.982400 -15.300300
N -8.139800 -13.974600 -13.726000
O -7.535800 -11.138000 -14.728500
O -16.834300 -24.614400 -17.903900
N -16.230300 -21.777800 -18.906300
C -16.148200 -23.770000 -17.332000
C -15.824200 -22.451000 -17.774000
H -15.746600 -19.923900 -19.446700
H -15.728600 -24.856000 -15.751600
C -15.644100 -20.607500 -18.809200
N -15.562900 -24.028000 -16.096700
H -15.201100 -17.914600 -18.117500
C -14.995700 -21.663500 -17.012900
N -14.868200 -20.480500 -17.688200
C -14.778200 -23.159400 -15.411000
H -14.454400 -23.442000 -14.574700
N -14.435100 -21.970200 -15.809600
C -14.257900 -18.139500 -18.150900
H -14.209700 -19.115900 -16.348800
H -14.004000 -18.334700 -19.067100
C -13.997400 -19.352600 -17.286600
H -13.735600 -17.390900 -17.823800
C -12.543600 -19.790400 -17.348600
H -12.415800 -20.568400 -16.783900
H -12.311600 -20.014200 -18.263200
H -11.974700 -19.068500 -17.038400
