23
Fragment
H -12.395400 -16.683900 -15.593900
H -12.058400 -15.738200 -14.369100
H -11.954200 -15.184000 -15.848500
C -11.826500 -15.962000 -15.283800
H -10.634500 -18.361500 -14.808600
C -10.372600 -16.399800 -15.345800
H -10.366000 -17.417700 -13.565300
H -10.160300 -16.636500 -16.283500
C -10.112200 -17.612900 -14.481500
N -9.935000 -13.782200 -16.822700
H -9.915600 -12.310400 -18.057700
C -9.591900 -12.593000 -17.221400
N -9.501900 -15.271900 -14.944200
C -9.374300 -14.088900 -15.619500
H -9.169000 -17.837800 -14.514900
N -8.807200 -11.724400 -16.535700
C -8.726000 -15.144900 -13.823200
H -8.641500 -10.896400 -16.880700
H -8.623400 -15.828500 -13.185700
C -8.545900 -13.301400 -14.858400
C -8.221900 -11.982400 -15.300300
N -8.139800 -13.974600 -13.726000
O -7.535800 -11.138000 -14.728500
23
Fragment
O -14.373900 -6.669000 -12.465100
N -13.769900 -9.505600 -13.467600
C -13.687800 -7.513400 -11.893300
C -13.363800 -8.832400 -12.335300
H -13.286300 -11.359400 -14.008000
H -13.268200 -6.427400 -10.312900
C -13.183700 -10.675800 -13.370500
N -13.102500 -7.255300 -10.657900
H -12.740700 -13.368700 -12.678800
C -12.535400 -9.619800 -11.574200
N -12.407800 -10.802900 -12.249400
C -12.317800 -8.123900 -9.972200
H -11.994000 -7.841400 -9.136000
N -11.974700 -9.313100 -10.370900
C -11.797500 -13.143800 -12.712200
H -11.749400 -12.167400 -10.910100
H -11.543700 -12.948600 -13.628400
C -11.537100 -11.930800 -11.847800
H -11.275200 -13.892500 -12.385100
C -10.083200 -11.493000 -11.909800
H -9.955500 -10.715000 -11.345200
H -9.851300 -11.269200 -12.824500
H -9.514300 -12.214800 -11.599700
46
Fragment
H -12.395400 -16.683900 -15.593900
H -12.058400 -15.738200 -14.369100
H -11.954200 -15.184000 -15.848500
C -11.826500 -15.962000 -15.283800
H -10.634500 -18.361500 -14.808600
C -10.372600 -16.399800 -15.345800
H -10.366000 -17.417700 -13.565300
H -10.160300 -16.636500 -16.283500
C -10.112200 -17.612900 -14.481500
N -9.935000 -13.782200 -16.822700
H -9.915600 -12.310400 -18.057700
C -9.591900 -12.593000 -17.221400
N -9.501900 -15.271900 -14.944200
C -9.374300 -14.088900 -15.619500
H -9.169000 -17.837800 -14.514900
N -8.807200 -11.724400 -16.535700
C -8.726000 -15.144900 -13.823200
H -8.641500 -10.896400 -16.880700
H -8.623400 -15.828500 -13.185700
C -8.545900 -13.301400 -14.858400
C -8.221900 -11.982400 -15.300300
N -8.139800 -13.974600 -13.726000
O -7.535800 -11.138000 -14.728500
O -14.373900 -6.669000 -12.465100
N -13.769900 -9.505600 -13.467600
C -13.687800 -7.513400 -11.893300
C -13.363800 -8.832400 -12.335300
H -13.286300 -11.359400 -14.008000
H -13.268200 -6.427400 -10.312900
C -13.183700 -10.675800 -13.370500
N -13.102500 -7.255300 -10.657900
H -12.740700 -13.368700 -12.678800
C -12.535400 -9.619800 -11.574200
N -12.407800 -10.802900 -12.249400
C -12.317800 -8.123900 -9.972200
H -11.994000 -7.841400 -9.136000
N -11.974700 -9.313100 -10.370900
C -11.797500 -13.143800 -12.712200
H -11.749400 -12.167400 -10.910100
H -11.543700 -12.948600 -13.628400
C -11.537100 -11.930800 -11.847800
H -11.275200 -13.892500 -12.385100
C -10.083200 -11.493000 -11.909800
H -9.955500 -10.715000 -11.345200
H -9.851300 -11.269200 -12.824500
H -9.514300 -12.214800 -11.599700
