40
Fragment
H -9.936200 -39.645200 -30.186200
H -9.634300 -40.673700 -27.934100
N -9.352500 -37.246100 -30.902500
H -9.163400 -35.481800 -31.825700
C -8.970900 -39.600300 -30.346100
C -8.876700 -36.375600 -31.759900
H -8.716700 -40.394400 -30.859000
N -8.686000 -38.421800 -31.140200
C -8.683600 -40.778100 -28.149200
H -8.582200 -41.610800 -28.654600
H -8.429300 -38.789100 -28.549200
C -8.257800 -39.629800 -29.023500
H -8.257200 -41.634300 -26.337300
H -7.992900 -40.073300 -26.354800
C -7.906900 -40.895800 -26.860000
C -7.874700 -36.956600 -32.572300
C -7.783900 -38.262800 -32.128200
H -7.293000 -39.692200 -29.181900
C -7.054500 -36.539500 -33.654000
O -6.998700 -35.449200 -34.219100
H -6.971200 -41.057400 -27.060300
N -6.963300 -39.257300 -32.591700
N -6.224500 -37.578100 -34.099900
C -6.205300 -38.840500 -33.573900
H -5.672000 -37.507400 -34.831000
H -5.350600 -40.548400 -33.743800
N -5.321000 -39.743600 -34.130700
C -4.455900 -39.512400 -35.177500
O -4.385000 -38.413700 -35.724000
H -3.622500 -41.796100 -33.964800
C -3.596800 -40.640300 -35.624900
H -3.295100 -39.817500 -37.439600
C -3.252100 -41.715200 -34.824200
C -3.061800 -40.545500 -36.892500
C -2.361100 -42.672900 -35.288200
C -2.185900 -41.506400 -37.368800
H -2.116800 -43.396200 -34.740600
C -1.837300 -42.558900 -36.555300
H -1.834200 -41.441100 -38.238000
H -1.234100 -43.208300 -36.869700
40
Fragment
H -5.841600 -33.294400 -38.511700
H -5.796000 -34.476800 -36.530700
C -5.243900 -33.045900 -37.830300
C -5.215000 -33.748000 -36.653200
H -4.410400 -31.493300 -38.823000
C -4.395000 -31.971700 -38.015000
C -4.338300 -33.394100 -35.643900
H -4.321600 -33.884300 -34.841000
C -3.523800 -31.601900 -37.010800
C -3.483400 -32.314500 -35.818900
H -2.955300 -30.864200 -37.133300
C -2.524500 -31.831300 -34.785000
H -2.437800 -33.466700 -33.834200
N -2.278300 -32.671300 -33.726800
H -2.123400 -36.382400 -27.193400
O -1.998900 -30.726400 -34.872100
H -1.993600 -34.442900 -28.712400
C -1.435200 -32.434800 -32.657500
N -1.418000 -33.304000 -31.683600
H -1.350500 -37.327300 -28.202700
H -1.312000 -35.382600 -29.789500
C -1.234400 -36.692500 -27.464300
C -1.132000 -34.767100 -29.048800
H -1.110100 -38.188700 -26.046000
H -0.873000 -30.838100 -33.452600
N -0.678800 -31.295100 -32.700400
C -0.578800 -37.412600 -26.288300
C -0.543300 -32.947500 -30.701600
H -0.523200 -36.810500 -25.531300
C -0.430800 -35.510800 -27.954900
N -0.353900 -33.627200 -29.552500
H -0.264800 -34.899700 -27.206000
C 0.242600 -30.922400 -31.740000
H 0.313300 -37.698000 -26.540600
C 0.313500 -31.849300 -30.669500
H 0.436700 -35.826400 -28.285600
N 0.589700 -33.016900 -28.763100
O 0.875100 -29.872000 -31.896500
C 0.988300 -31.958400 -29.450000
H 1.644500 -31.354900 -29.154300
80
Fragment
H -9.936200 -39.645200 -30.186200
H -9.634300 -40.673700 -27.934100
N -9.352500 -37.246100 -30.902500
H -9.163400 -35.481800 -31.825700
C -8.970900 -39.600300 -30.346100
C -8.876700 -36.375600 -31.759900
H -8.716700 -40.394400 -30.859000
N -8.686000 -38.421800 -31.140200
C -8.683600 -40.778100 -28.149200
H -8.582200 -41.610800 -28.654600
H -8.429300 -38.789100 -28.549200
C -8.257800 -39.629800 -29.023500
H -8.257200 -41.634300 -26.337300
H -7.992900 -40.073300 -26.354800
C -7.906900 -40.895800 -26.860000
C -7.874700 -36.956600 -32.572300
C -7.783900 -38.262800 -32.128200
H -7.293000 -39.692200 -29.181900
C -7.054500 -36.539500 -33.654000
O -6.998700 -35.449200 -34.219100
H -6.971200 -41.057400 -27.060300
N -6.963300 -39.257300 -32.591700
N -6.224500 -37.578100 -34.099900
C -6.205300 -38.840500 -33.573900
H -5.672000 -37.507400 -34.831000
H -5.350600 -40.548400 -33.743800
N -5.321000 -39.743600 -34.130700
C -4.455900 -39.512400 -35.177500
O -4.385000 -38.413700 -35.724000
H -3.622500 -41.796100 -33.964800
C -3.596800 -40.640300 -35.624900
H -3.295100 -39.817500 -37.439600
C -3.252100 -41.715200 -34.824200
C -3.061800 -40.545500 -36.892500
C -2.361100 -42.672900 -35.288200
C -2.185900 -41.506400 -37.368800
H -2.116800 -43.396200 -34.740600
C -1.837300 -42.558900 -36.555300
H -1.834200 -41.441100 -38.238000
H -1.234100 -43.208300 -36.869700
H -5.841600 -33.294400 -38.511700
H -5.796000 -34.476800 -36.530700
C -5.243900 -33.045900 -37.830300
C -5.215000 -33.748000 -36.653200
H -4.410400 -31.493300 -38.823000
C -4.395000 -31.971700 -38.015000
C -4.338300 -33.394100 -35.643900
H -4.321600 -33.884300 -34.841000
C -3.523800 -31.601900 -37.010800
C -3.483400 -32.314500 -35.818900
H -2.955300 -30.864200 -37.133300
C -2.524500 -31.831300 -34.785000
H -2.437800 -33.466700 -33.834200
N -2.278300 -32.671300 -33.726800
H -2.123400 -36.382400 -27.193400
O -1.998900 -30.726400 -34.872100
H -1.993600 -34.442900 -28.712400
C -1.435200 -32.434800 -32.657500
N -1.418000 -33.304000 -31.683600
H -1.350500 -37.327300 -28.202700
H -1.312000 -35.382600 -29.789500
C -1.234400 -36.692500 -27.464300
C -1.132000 -34.767100 -29.048800
H -1.110100 -38.188700 -26.046000
H -0.873000 -30.838100 -33.452600
N -0.678800 -31.295100 -32.700400
C -0.578800 -37.412600 -26.288300
C -0.543300 -32.947500 -30.701600
H -0.523200 -36.810500 -25.531300
C -0.430800 -35.510800 -27.954900
N -0.353900 -33.627200 -29.552500
H -0.264800 -34.899700 -27.206000
C 0.242600 -30.922400 -31.740000
H 0.313300 -37.698000 -26.540600
C 0.313500 -31.849300 -30.669500
H 0.436700 -35.826400 -28.285600
N 0.589700 -33.016900 -28.763100
O 0.875100 -29.872000 -31.896500
C 0.988300 -31.958400 -29.450000
H 1.644500 -31.354900 -29.154300
