40
Fragment
H -9.936200 -39.645200 -30.186200
H -9.634300 -40.673700 -27.934100
N -9.352500 -37.246100 -30.902500
H -9.163400 -35.481800 -31.825700
C -8.970900 -39.600300 -30.346100
C -8.876700 -36.375600 -31.759900
H -8.716700 -40.394400 -30.859000
N -8.686000 -38.421800 -31.140200
C -8.683600 -40.778100 -28.149200
H -8.582200 -41.610800 -28.654600
H -8.429300 -38.789100 -28.549200
C -8.257800 -39.629800 -29.023500
H -8.257200 -41.634300 -26.337300
H -7.992900 -40.073300 -26.354800
C -7.906900 -40.895800 -26.860000
C -7.874700 -36.956600 -32.572300
C -7.783900 -38.262800 -32.128200
H -7.293000 -39.692200 -29.181900
C -7.054500 -36.539500 -33.654000
O -6.998700 -35.449200 -34.219100
H -6.971200 -41.057400 -27.060300
N -6.963300 -39.257300 -32.591700
N -6.224500 -37.578100 -34.099900
C -6.205300 -38.840500 -33.573900
H -5.672000 -37.507400 -34.831000
H -5.350600 -40.548400 -33.743800
N -5.321000 -39.743600 -34.130700
C -4.455900 -39.512400 -35.177500
O -4.385000 -38.413700 -35.724000
H -3.622500 -41.796100 -33.964800
C -3.596800 -40.640300 -35.624900
H -3.295100 -39.817500 -37.439600
C -3.252100 -41.715200 -34.824200
C -3.061800 -40.545500 -36.892500
C -2.361100 -42.672900 -35.288200
C -2.185900 -41.506400 -37.368800
H -2.116800 -43.396200 -34.740600
C -1.837300 -42.558900 -36.555300
H -1.834200 -41.441100 -38.238000
H -1.234100 -43.208300 -36.869700
40
Fragment
H -12.691300 -46.954100 -21.059800
C -12.035100 -46.350600 -20.764000
O -11.921800 -48.437000 -18.317600
N -11.636500 -45.292100 -21.450900
H -11.483500 -42.482600 -21.928500
C -11.360200 -46.459700 -19.544600
H -11.360000 -40.611000 -23.673400
C -11.289400 -47.386600 -18.474000
H -10.782000 -43.409300 -23.008100
N -10.692800 -44.681800 -20.661600
C -10.616000 -42.798200 -22.259100
H -10.523500 -41.498500 -24.682700
C -10.503400 -45.361500 -19.512400
C -10.468000 -40.896400 -23.925700
N -10.367900 -47.013900 -17.513700
H -10.173700 -47.470900 -16.761400
H -9.936700 -40.120300 -24.168000
C -9.914800 -43.541900 -21.165200
C -9.812300 -41.616500 -22.749700
H -9.734700 -42.926400 -20.424600
H -9.696200 -40.981700 -22.011300
N -9.628800 -45.005000 -18.530500
C -9.611600 -45.874200 -17.556600
H -9.053200 -43.866100 -21.501700
O -9.047800 -47.582600 -15.341900
H -8.923400 -41.926600 -23.020600
N -8.768400 -45.637700 -16.487300
H -8.609000 -44.842300 -16.379800
C -8.522200 -46.477700 -15.429000
H -8.091400 -47.444800 -13.080800
C -7.563400 -45.994500 -14.395100
C -7.523000 -46.707100 -13.203300
H -6.725200 -44.424700 -15.373000
C -6.708400 -44.914900 -14.570100
C -6.651800 -46.337300 -12.199000
H -6.636300 -46.815700 -11.391100
C -5.831800 -44.561000 -13.560800
C -5.802900 -45.263100 -12.383800
H -5.250800 -43.832200 -13.683300
H -5.205200 -45.014600 -11.702400
80
Fragment
H -9.936200 -39.645200 -30.186200
H -9.634300 -40.673700 -27.934100
N -9.352500 -37.246100 -30.902500
H -9.163400 -35.481800 -31.825700
C -8.970900 -39.600300 -30.346100
C -8.876700 -36.375600 -31.759900
H -8.716700 -40.394400 -30.859000
N -8.686000 -38.421800 -31.140200
C -8.683600 -40.778100 -28.149200
H -8.582200 -41.610800 -28.654600
H -8.429300 -38.789100 -28.549200
C -8.257800 -39.629800 -29.023500
H -8.257200 -41.634300 -26.337300
H -7.992900 -40.073300 -26.354800
C -7.906900 -40.895800 -26.860000
C -7.874700 -36.956600 -32.572300
C -7.783900 -38.262800 -32.128200
H -7.293000 -39.692200 -29.181900
C -7.054500 -36.539500 -33.654000
O -6.998700 -35.449200 -34.219100
H -6.971200 -41.057400 -27.060300
N -6.963300 -39.257300 -32.591700
N -6.224500 -37.578100 -34.099900
C -6.205300 -38.840500 -33.573900
H -5.672000 -37.507400 -34.831000
H -5.350600 -40.548400 -33.743800
N -5.321000 -39.743600 -34.130700
C -4.455900 -39.512400 -35.177500
O -4.385000 -38.413700 -35.724000
H -3.622500 -41.796100 -33.964800
C -3.596800 -40.640300 -35.624900
H -3.295100 -39.817500 -37.439600
C -3.252100 -41.715200 -34.824200
C -3.061800 -40.545500 -36.892500
C -2.361100 -42.672900 -35.288200
C -2.185900 -41.506400 -37.368800
H -2.116800 -43.396200 -34.740600
C -1.837300 -42.558900 -36.555300
H -1.834200 -41.441100 -38.238000
H -1.234100 -43.208300 -36.869700
H -12.691300 -46.954100 -21.059800
C -12.035100 -46.350600 -20.764000
O -11.921800 -48.437000 -18.317600
N -11.636500 -45.292100 -21.450900
H -11.483500 -42.482600 -21.928500
C -11.360200 -46.459700 -19.544600
H -11.360000 -40.611000 -23.673400
C -11.289400 -47.386600 -18.474000
H -10.782000 -43.409300 -23.008100
N -10.692800 -44.681800 -20.661600
C -10.616000 -42.798200 -22.259100
H -10.523500 -41.498500 -24.682700
C -10.503400 -45.361500 -19.512400
C -10.468000 -40.896400 -23.925700
N -10.367900 -47.013900 -17.513700
H -10.173700 -47.470900 -16.761400
H -9.936700 -40.120300 -24.168000
C -9.914800 -43.541900 -21.165200
C -9.812300 -41.616500 -22.749700
H -9.734700 -42.926400 -20.424600
H -9.696200 -40.981700 -22.011300
N -9.628800 -45.005000 -18.530500
C -9.611600 -45.874200 -17.556600
H -9.053200 -43.866100 -21.501700
O -9.047800 -47.582600 -15.341900
H -8.923400 -41.926600 -23.020600
N -8.768400 -45.637700 -16.487300
H -8.609000 -44.842300 -16.379800
C -8.522200 -46.477700 -15.429000
H -8.091400 -47.444800 -13.080800
C -7.563400 -45.994500 -14.395100
C -7.523000 -46.707100 -13.203300
H -6.725200 -44.424700 -15.373000
C -6.708400 -44.914900 -14.570100
C -6.651800 -46.337300 -12.199000
H -6.636300 -46.815700 -11.391100
C -5.831800 -44.561000 -13.560800
C -5.802900 -45.263100 -12.383800
H -5.250800 -43.832200 -13.683300
H -5.205200 -45.014600 -11.702400
