40
Fragment
H -9.936200 -39.645200 -30.186200
H -9.634300 -40.673700 -27.934100
N -9.352500 -37.246100 -30.902500
H -9.163400 -35.481800 -31.825700
C -8.970900 -39.600300 -30.346100
C -8.876700 -36.375600 -31.759900
H -8.716700 -40.394400 -30.859000
N -8.686000 -38.421800 -31.140200
C -8.683600 -40.778100 -28.149200
H -8.582200 -41.610800 -28.654600
H -8.429300 -38.789100 -28.549200
C -8.257800 -39.629800 -29.023500
H -8.257200 -41.634300 -26.337300
H -7.992900 -40.073300 -26.354800
C -7.906900 -40.895800 -26.860000
C -7.874700 -36.956600 -32.572300
C -7.783900 -38.262800 -32.128200
H -7.293000 -39.692200 -29.181900
C -7.054500 -36.539500 -33.654000
O -6.998700 -35.449200 -34.219100
H -6.971200 -41.057400 -27.060300
N -6.963300 -39.257300 -32.591700
N -6.224500 -37.578100 -34.099900
C -6.205300 -38.840500 -33.573900
H -5.672000 -37.507400 -34.831000
H -5.350600 -40.548400 -33.743800
N -5.321000 -39.743600 -34.130700
C -4.455900 -39.512400 -35.177500
O -4.385000 -38.413700 -35.724000
H -3.622500 -41.796100 -33.964800
C -3.596800 -40.640300 -35.624900
H -3.295100 -39.817500 -37.439600
C -3.252100 -41.715200 -34.824200
C -3.061800 -40.545500 -36.892500
C -2.361100 -42.672900 -35.288200
C -2.185900 -41.506400 -37.368800
H -2.116800 -43.396200 -34.740600
C -1.837300 -42.558900 -36.555300
H -1.834200 -41.441100 -38.238000
H -1.234100 -43.208300 -36.869700
40
Fragment
H -10.984000 -46.954100 -46.166800
C -10.327900 -46.350600 -45.871000
O -10.214600 -48.437000 -43.424600
N -9.929300 -45.292100 -46.558000
H -9.776300 -42.482600 -47.035500
C -9.653000 -46.459700 -44.651600
H -9.652800 -40.611000 -48.780400
C -9.582200 -47.386600 -43.581000
H -9.074800 -43.409300 -48.115100
N -8.985600 -44.681800 -45.768600
C -8.908800 -42.798200 -47.366200
H -8.816300 -41.498500 -49.789700
C -8.796200 -45.361500 -44.619400
C -8.760700 -40.896400 -49.032800
N -8.660700 -47.013900 -42.620700
H -8.466500 -47.470900 -41.868500
H -8.229500 -40.120300 -49.275000
C -8.207600 -43.541900 -46.272200
C -8.105100 -41.616500 -47.856700
H -8.027500 -42.926400 -45.531600
H -7.989000 -40.981700 -47.118400
N -7.921500 -45.005000 -43.637500
C -7.904400 -45.874200 -42.663600
H -7.345900 -43.866100 -46.608700
O -7.340600 -47.582600 -40.448900
H -7.216100 -41.926600 -48.127700
N -7.061200 -45.637700 -41.594300
H -6.901700 -44.842300 -41.486800
C -6.815000 -46.477700 -40.536000
H -6.384200 -47.444800 -38.187800
C -5.856200 -45.994500 -39.502100
C -5.815700 -46.707100 -38.310300
H -5.017900 -44.424700 -40.480100
C -5.001200 -44.914900 -39.677100
C -4.944500 -46.337300 -37.306000
H -4.929100 -46.815700 -36.498100
C -4.124500 -44.561000 -38.667800
C -4.095600 -45.263100 -37.490800
H -3.543500 -43.832200 -38.790400
H -3.498000 -45.014600 -36.809400
80
Fragment
H -9.936200 -39.645200 -30.186200
H -9.634300 -40.673700 -27.934100
N -9.352500 -37.246100 -30.902500
H -9.163400 -35.481800 -31.825700
C -8.970900 -39.600300 -30.346100
C -8.876700 -36.375600 -31.759900
H -8.716700 -40.394400 -30.859000
N -8.686000 -38.421800 -31.140200
C -8.683600 -40.778100 -28.149200
H -8.582200 -41.610800 -28.654600
H -8.429300 -38.789100 -28.549200
C -8.257800 -39.629800 -29.023500
H -8.257200 -41.634300 -26.337300
H -7.992900 -40.073300 -26.354800
C -7.906900 -40.895800 -26.860000
C -7.874700 -36.956600 -32.572300
C -7.783900 -38.262800 -32.128200
H -7.293000 -39.692200 -29.181900
C -7.054500 -36.539500 -33.654000
O -6.998700 -35.449200 -34.219100
H -6.971200 -41.057400 -27.060300
N -6.963300 -39.257300 -32.591700
N -6.224500 -37.578100 -34.099900
C -6.205300 -38.840500 -33.573900
H -5.672000 -37.507400 -34.831000
H -5.350600 -40.548400 -33.743800
N -5.321000 -39.743600 -34.130700
C -4.455900 -39.512400 -35.177500
O -4.385000 -38.413700 -35.724000
H -3.622500 -41.796100 -33.964800
C -3.596800 -40.640300 -35.624900
H -3.295100 -39.817500 -37.439600
C -3.252100 -41.715200 -34.824200
C -3.061800 -40.545500 -36.892500
C -2.361100 -42.672900 -35.288200
C -2.185900 -41.506400 -37.368800
H -2.116800 -43.396200 -34.740600
C -1.837300 -42.558900 -36.555300
H -1.834200 -41.441100 -38.238000
H -1.234100 -43.208300 -36.869700
H -10.984000 -46.954100 -46.166800
C -10.327900 -46.350600 -45.871000
O -10.214600 -48.437000 -43.424600
N -9.929300 -45.292100 -46.558000
H -9.776300 -42.482600 -47.035500
C -9.653000 -46.459700 -44.651600
H -9.652800 -40.611000 -48.780400
C -9.582200 -47.386600 -43.581000
H -9.074800 -43.409300 -48.115100
N -8.985600 -44.681800 -45.768600
C -8.908800 -42.798200 -47.366200
H -8.816300 -41.498500 -49.789700
C -8.796200 -45.361500 -44.619400
C -8.760700 -40.896400 -49.032800
N -8.660700 -47.013900 -42.620700
H -8.466500 -47.470900 -41.868500
H -8.229500 -40.120300 -49.275000
C -8.207600 -43.541900 -46.272200
C -8.105100 -41.616500 -47.856700
H -8.027500 -42.926400 -45.531600
H -7.989000 -40.981700 -47.118400
N -7.921500 -45.005000 -43.637500
C -7.904400 -45.874200 -42.663600
H -7.345900 -43.866100 -46.608700
O -7.340600 -47.582600 -40.448900
H -7.216100 -41.926600 -48.127700
N -7.061200 -45.637700 -41.594300
H -6.901700 -44.842300 -41.486800
C -6.815000 -46.477700 -40.536000
H -6.384200 -47.444800 -38.187800
C -5.856200 -45.994500 -39.502100
C -5.815700 -46.707100 -38.310300
H -5.017900 -44.424700 -40.480100
C -5.001200 -44.914900 -39.677100
C -4.944500 -46.337300 -37.306000
H -4.929100 -46.815700 -36.498100
C -4.124500 -44.561000 -38.667800
C -4.095600 -45.263100 -37.490800
H -3.543500 -43.832200 -38.790400
H -3.498000 -45.014600 -36.809400
