40
Fragment
H -9.936200 -39.645200 -30.186200
H -9.634300 -40.673700 -27.934100
N -9.352500 -37.246100 -30.902500
H -9.163400 -35.481800 -31.825700
C -8.970900 -39.600300 -30.346100
C -8.876700 -36.375600 -31.759900
H -8.716700 -40.394400 -30.859000
N -8.686000 -38.421800 -31.140200
C -8.683600 -40.778100 -28.149200
H -8.582200 -41.610800 -28.654600
H -8.429300 -38.789100 -28.549200
C -8.257800 -39.629800 -29.023500
H -8.257200 -41.634300 -26.337300
H -7.992900 -40.073300 -26.354800
C -7.906900 -40.895800 -26.860000
C -7.874700 -36.956600 -32.572300
C -7.783900 -38.262800 -32.128200
H -7.293000 -39.692200 -29.181900
C -7.054500 -36.539500 -33.654000
O -6.998700 -35.449200 -34.219100
H -6.971200 -41.057400 -27.060300
N -6.963300 -39.257300 -32.591700
N -6.224500 -37.578100 -34.099900
C -6.205300 -38.840500 -33.573900
H -5.672000 -37.507400 -34.831000
H -5.350600 -40.548400 -33.743800
N -5.321000 -39.743600 -34.130700
C -4.455900 -39.512400 -35.177500
O -4.385000 -38.413700 -35.724000
H -3.622500 -41.796100 -33.964800
C -3.596800 -40.640300 -35.624900
H -3.295100 -39.817500 -37.439600
C -3.252100 -41.715200 -34.824200
C -3.061800 -40.545500 -36.892500
C -2.361100 -42.672900 -35.288200
C -2.185900 -41.506400 -37.368800
H -2.116800 -43.396200 -34.740600
C -1.837300 -42.558900 -36.555300
H -1.834200 -41.441100 -38.238000
H -1.234100 -43.208300 -36.869700
40
Fragment
H -7.870900 -46.954100 -21.059800
C -7.214700 -46.350600 -20.764000
O -7.101400 -48.437000 -18.317600
N -6.816100 -45.292100 -21.450900
H -6.663100 -42.482600 -21.928500
C -6.539800 -46.459700 -19.544600
H -6.539600 -40.611000 -23.673400
C -6.469000 -47.386600 -18.474000
H -5.961600 -43.409300 -23.008100
N -5.872400 -44.681800 -20.661600
C -5.795600 -42.798200 -22.259100
H -5.703100 -41.498500 -24.682700
C -5.683000 -45.361500 -19.512400
C -5.647600 -40.896400 -23.925700
N -5.547500 -47.013900 -17.513700
H -5.353300 -47.470900 -16.761400
H -5.116300 -40.120300 -24.168000
C -5.094400 -43.541900 -21.165200
C -4.991900 -41.616500 -22.749700
H -4.914300 -42.926400 -20.424600
H -4.875800 -40.981700 -22.011300
N -4.808400 -45.005000 -18.530500
C -4.791200 -45.874200 -17.556600
H -4.232800 -43.866100 -21.501700
O -4.227400 -47.582600 -15.341900
H -4.103000 -41.926600 -23.020600
N -3.948000 -45.637700 -16.487300
H -3.788600 -44.842300 -16.379800
C -3.701800 -46.477700 -15.429000
H -3.271000 -47.444800 -13.080800
C -2.743000 -45.994500 -14.395100
C -2.702600 -46.707100 -13.203300
H -1.904800 -44.424700 -15.373000
C -1.888000 -44.914900 -14.570100
C -1.831400 -46.337300 -12.199000
H -1.815900 -46.815700 -11.391100
C -1.011400 -44.561000 -13.560800
C -0.982500 -45.263100 -12.383800
H -0.430400 -43.832200 -13.683300
H -0.384800 -45.014600 -11.702400
80
Fragment
H -9.936200 -39.645200 -30.186200
H -9.634300 -40.673700 -27.934100
N -9.352500 -37.246100 -30.902500
H -9.163400 -35.481800 -31.825700
C -8.970900 -39.600300 -30.346100
C -8.876700 -36.375600 -31.759900
H -8.716700 -40.394400 -30.859000
N -8.686000 -38.421800 -31.140200
C -8.683600 -40.778100 -28.149200
H -8.582200 -41.610800 -28.654600
H -8.429300 -38.789100 -28.549200
C -8.257800 -39.629800 -29.023500
H -8.257200 -41.634300 -26.337300
H -7.992900 -40.073300 -26.354800
C -7.906900 -40.895800 -26.860000
C -7.874700 -36.956600 -32.572300
C -7.783900 -38.262800 -32.128200
H -7.293000 -39.692200 -29.181900
C -7.054500 -36.539500 -33.654000
O -6.998700 -35.449200 -34.219100
H -6.971200 -41.057400 -27.060300
N -6.963300 -39.257300 -32.591700
N -6.224500 -37.578100 -34.099900
C -6.205300 -38.840500 -33.573900
H -5.672000 -37.507400 -34.831000
H -5.350600 -40.548400 -33.743800
N -5.321000 -39.743600 -34.130700
C -4.455900 -39.512400 -35.177500
O -4.385000 -38.413700 -35.724000
H -3.622500 -41.796100 -33.964800
C -3.596800 -40.640300 -35.624900
H -3.295100 -39.817500 -37.439600
C -3.252100 -41.715200 -34.824200
C -3.061800 -40.545500 -36.892500
C -2.361100 -42.672900 -35.288200
C -2.185900 -41.506400 -37.368800
H -2.116800 -43.396200 -34.740600
C -1.837300 -42.558900 -36.555300
H -1.834200 -41.441100 -38.238000
H -1.234100 -43.208300 -36.869700
H -7.870900 -46.954100 -21.059800
C -7.214700 -46.350600 -20.764000
O -7.101400 -48.437000 -18.317600
N -6.816100 -45.292100 -21.450900
H -6.663100 -42.482600 -21.928500
C -6.539800 -46.459700 -19.544600
H -6.539600 -40.611000 -23.673400
C -6.469000 -47.386600 -18.474000
H -5.961600 -43.409300 -23.008100
N -5.872400 -44.681800 -20.661600
C -5.795600 -42.798200 -22.259100
H -5.703100 -41.498500 -24.682700
C -5.683000 -45.361500 -19.512400
C -5.647600 -40.896400 -23.925700
N -5.547500 -47.013900 -17.513700
H -5.353300 -47.470900 -16.761400
H -5.116300 -40.120300 -24.168000
C -5.094400 -43.541900 -21.165200
C -4.991900 -41.616500 -22.749700
H -4.914300 -42.926400 -20.424600
H -4.875800 -40.981700 -22.011300
N -4.808400 -45.005000 -18.530500
C -4.791200 -45.874200 -17.556600
H -4.232800 -43.866100 -21.501700
O -4.227400 -47.582600 -15.341900
H -4.103000 -41.926600 -23.020600
N -3.948000 -45.637700 -16.487300
H -3.788600 -44.842300 -16.379800
C -3.701800 -46.477700 -15.429000
H -3.271000 -47.444800 -13.080800
C -2.743000 -45.994500 -14.395100
C -2.702600 -46.707100 -13.203300
H -1.904800 -44.424700 -15.373000
C -1.888000 -44.914900 -14.570100
C -1.831400 -46.337300 -12.199000
H -1.815900 -46.815700 -11.391100
C -1.011400 -44.561000 -13.560800
C -0.982500 -45.263100 -12.383800
H -0.430400 -43.832200 -13.683300
H -0.384800 -45.014600 -11.702400
