31
Fragment
H -32.034100 -6.130200 -20.251000
O -31.570100 -7.814400 -22.218600
N -31.388600 -6.722400 -20.167800
C -31.037900 -7.662100 -21.107800
N -30.605600 -6.106900 -17.963300
C -30.566900 -6.860800 -19.079100
N -30.014100 -8.401500 -20.578600
N -29.745200 -6.386900 -17.046500
H -29.721700 -7.479400 -12.883800
C -29.715700 -7.902000 -19.330100
H -29.614500 -9.080800 -20.969800
H -29.407400 -9.444200 -12.361000
N -28.871100 -7.415800 -17.238600
C -28.782200 -7.686200 -12.649400
C -28.769500 -8.285600 -18.347700
O -28.690300 -9.041500 -12.190000
H -28.602000 -5.537400 -14.244700
O -28.526500 -8.073000 -15.014800
H -28.503900 -7.071700 -11.924700
O -27.963800 -9.208800 -18.373100
C -27.902100 -7.471900 -13.857900
C -27.879700 -7.515200 -16.170000
C -27.724000 -6.014500 -14.283800
H -27.601200 -5.408600 -16.320300
C -27.268200 -6.159800 -15.750500
H -27.164900 -4.791200 -12.988100
H -27.145500 -8.128500 -16.461300
H -27.007200 -7.890000 -13.702000
O -26.772500 -5.338700 -13.490100
O -25.859900 -6.301400 -15.833200
H -25.510300 -5.549200 -15.967600
31
Fragment
H -32.034100 -0.787800 -20.251000
O -31.570100 -2.471900 -22.218600
N -31.388600 -1.380000 -20.167800
C -31.037900 -2.319700 -21.107800
N -30.605600 -0.764500 -17.963300
C -30.566900 -1.518300 -19.079100
N -30.014100 -3.059100 -20.578600
N -29.745200 -1.044400 -17.046500
H -29.721700 -2.137000 -12.883800
C -29.715700 -2.559600 -19.330100
H -29.614500 -3.738400 -20.969800
H -29.407400 -4.101800 -12.361000
N -28.871100 -2.073400 -17.238600
C -28.782200 -2.343700 -12.649400
C -28.769500 -2.943200 -18.347700
O -28.690300 -3.699100 -12.190000
H -28.602000 -0.195000 -14.244700
O -28.526500 -2.730500 -15.014800
H -28.503900 -1.729300 -11.924700
O -27.963800 -3.866300 -18.373100
C -27.902100 -2.129500 -13.857900
C -27.879700 -2.172800 -16.170000
C -27.724000 -0.672100 -14.283800
H -27.601200 -0.066100 -16.320300
C -27.268200 -0.817400 -15.750500
H -27.164900 0.551300 -12.988100
H -27.145500 -2.786000 -16.461300
H -27.007200 -2.547600 -13.702000
O -26.772500 0.003700 -13.490100
O -25.859900 -0.959000 -15.833200
H -25.510300 -0.206800 -15.967600
62
Fragment
H -32.034100 -6.130200 -20.251000
O -31.570100 -7.814400 -22.218600
N -31.388600 -6.722400 -20.167800
C -31.037900 -7.662100 -21.107800
N -30.605600 -6.106900 -17.963300
C -30.566900 -6.860800 -19.079100
N -30.014100 -8.401500 -20.578600
N -29.745200 -6.386900 -17.046500
H -29.721700 -7.479400 -12.883800
C -29.715700 -7.902000 -19.330100
H -29.614500 -9.080800 -20.969800
H -29.407400 -9.444200 -12.361000
N -28.871100 -7.415800 -17.238600
C -28.782200 -7.686200 -12.649400
C -28.769500 -8.285600 -18.347700
O -28.690300 -9.041500 -12.190000
H -28.602000 -5.537400 -14.244700
O -28.526500 -8.073000 -15.014800
H -28.503900 -7.071700 -11.924700
O -27.963800 -9.208800 -18.373100
C -27.902100 -7.471900 -13.857900
C -27.879700 -7.515200 -16.170000
C -27.724000 -6.014500 -14.283800
H -27.601200 -5.408600 -16.320300
C -27.268200 -6.159800 -15.750500
H -27.164900 -4.791200 -12.988100
H -27.145500 -8.128500 -16.461300
H -27.007200 -7.890000 -13.702000
O -26.772500 -5.338700 -13.490100
O -25.859900 -6.301400 -15.833200
H -25.510300 -5.549200 -15.967600
H -32.034100 -0.787800 -20.251000
O -31.570100 -2.471900 -22.218600
N -31.388600 -1.380000 -20.167800
C -31.037900 -2.319700 -21.107800
N -30.605600 -0.764500 -17.963300
C -30.566900 -1.518300 -19.079100
N -30.014100 -3.059100 -20.578600
N -29.745200 -1.044400 -17.046500
H -29.721700 -2.137000 -12.883800
C -29.715700 -2.559600 -19.330100
H -29.614500 -3.738400 -20.969800
H -29.407400 -4.101800 -12.361000
N -28.871100 -2.073400 -17.238600
C -28.782200 -2.343700 -12.649400
C -28.769500 -2.943200 -18.347700
O -28.690300 -3.699100 -12.190000
H -28.602000 -0.195000 -14.244700
O -28.526500 -2.730500 -15.014800
H -28.503900 -1.729300 -11.924700
O -27.963800 -3.866300 -18.373100
C -27.902100 -2.129500 -13.857900
C -27.879700 -2.172800 -16.170000
C -27.724000 -0.672100 -14.283800
H -27.601200 -0.066100 -16.320300
C -27.268200 -0.817400 -15.750500
H -27.164900 0.551300 -12.988100
H -27.145500 -2.786000 -16.461300
H -27.007200 -2.547600 -13.702000
O -26.772500 0.003700 -13.490100
O -25.859900 -0.959000 -15.833200
H -25.510300 -0.206800 -15.967600
