31
Fragment
H -32.034100 -6.130200 -20.251000
O -31.570100 -7.814400 -22.218600
N -31.388600 -6.722400 -20.167800
C -31.037900 -7.662100 -21.107800
N -30.605600 -6.106900 -17.963300
C -30.566900 -6.860800 -19.079100
N -30.014100 -8.401500 -20.578600
N -29.745200 -6.386900 -17.046500
H -29.721700 -7.479400 -12.883800
C -29.715700 -7.902000 -19.330100
H -29.614500 -9.080800 -20.969800
H -29.407400 -9.444200 -12.361000
N -28.871100 -7.415800 -17.238600
C -28.782200 -7.686200 -12.649400
C -28.769500 -8.285600 -18.347700
O -28.690300 -9.041500 -12.190000
H -28.602000 -5.537400 -14.244700
O -28.526500 -8.073000 -15.014800
H -28.503900 -7.071700 -11.924700
O -27.963800 -9.208800 -18.373100
C -27.902100 -7.471900 -13.857900
C -27.879700 -7.515200 -16.170000
C -27.724000 -6.014500 -14.283800
H -27.601200 -5.408600 -16.320300
C -27.268200 -6.159800 -15.750500
H -27.164900 -4.791200 -12.988100
H -27.145500 -8.128500 -16.461300
H -27.007200 -7.890000 -13.702000
O -26.772500 -5.338700 -13.490100
O -25.859900 -6.301400 -15.833200
H -25.510300 -5.549200 -15.967600
3
Fragment
H -24.763400 -5.443700 -13.475300
O -23.902400 -5.345600 -13.395700
H -23.736800 -5.541900 -12.564500
34
Fragment
H -32.034100 -6.130200 -20.251000
O -31.570100 -7.814400 -22.218600
N -31.388600 -6.722400 -20.167800
C -31.037900 -7.662100 -21.107800
N -30.605600 -6.106900 -17.963300
C -30.566900 -6.860800 -19.079100
N -30.014100 -8.401500 -20.578600
N -29.745200 -6.386900 -17.046500
H -29.721700 -7.479400 -12.883800
C -29.715700 -7.902000 -19.330100
H -29.614500 -9.080800 -20.969800
H -29.407400 -9.444200 -12.361000
N -28.871100 -7.415800 -17.238600
C -28.782200 -7.686200 -12.649400
C -28.769500 -8.285600 -18.347700
O -28.690300 -9.041500 -12.190000
H -28.602000 -5.537400 -14.244700
O -28.526500 -8.073000 -15.014800
H -28.503900 -7.071700 -11.924700
O -27.963800 -9.208800 -18.373100
C -27.902100 -7.471900 -13.857900
C -27.879700 -7.515200 -16.170000
C -27.724000 -6.014500 -14.283800
H -27.601200 -5.408600 -16.320300
C -27.268200 -6.159800 -15.750500
H -27.164900 -4.791200 -12.988100
H -27.145500 -8.128500 -16.461300
H -27.007200 -7.890000 -13.702000
O -26.772500 -5.338700 -13.490100
O -25.859900 -6.301400 -15.833200
H -25.510300 -5.549200 -15.967600
H -24.763400 -5.443700 -13.475300
O -23.902400 -5.345600 -13.395700
H -23.736800 -5.541900 -12.564500
