13
Fragment
N -6.472300 -11.397700 -18.858400
C -5.344500 -11.275500 -18.873800
N -4.073400 -9.721200 -20.663200
H -4.012500 -8.619500 -22.052100
O -3.931800 -12.586800 -17.173500
C -3.904200 -11.156500 -18.856200
O -3.372900 -8.928900 -21.584300
H -3.326600 -13.002600 -16.669500
C -3.265800 -10.293500 -19.843300
N -3.182300 -11.799200 -18.008800
N -1.913000 -10.127700 -19.778400
H -1.546400 -9.808400 -20.494800
H -1.485800 -10.752200 -19.417400
13
Fragment
H -9.362800 -11.542100 -13.597900
H -9.302300 -12.485900 -12.520500
N -8.935700 -12.166600 -13.237000
N -7.666400 -10.495100 -15.006600
C -7.582900 -12.000800 -13.172000
H -7.522000 -9.291700 -16.345900
O -7.475800 -13.365400 -11.431000
C -6.944400 -11.137800 -14.159200
O -6.916900 -9.707500 -15.841900
H -6.836200 -13.674800 -10.963300
N -6.775200 -12.573200 -12.352100
C -5.504200 -11.018900 -14.141600
N -4.376400 -10.896600 -14.157000
26
Fragment
N -6.472300 -11.397700 -18.858400
C -5.344500 -11.275500 -18.873800
N -4.073400 -9.721200 -20.663200
H -4.012500 -8.619500 -22.052100
O -3.931800 -12.586800 -17.173500
C -3.904200 -11.156500 -18.856200
O -3.372900 -8.928900 -21.584300
H -3.326600 -13.002600 -16.669500
C -3.265800 -10.293500 -19.843300
N -3.182300 -11.799200 -18.008800
N -1.913000 -10.127700 -19.778400
H -1.546400 -9.808400 -20.494800
H -1.485800 -10.752200 -19.417400
H -9.362800 -11.542100 -13.597900
H -9.302300 -12.485900 -12.520500
N -8.935700 -12.166600 -13.237000
N -7.666400 -10.495100 -15.006600
C -7.582900 -12.000800 -13.172000
H -7.522000 -9.291700 -16.345900
O -7.475800 -13.365400 -11.431000
C -6.944400 -11.137800 -14.159200
O -6.916900 -9.707500 -15.841900
H -6.836200 -13.674800 -10.963300
N -6.775200 -12.573200 -12.352100
C -5.504200 -11.018900 -14.141600
N -4.376400 -10.896600 -14.157000
