13
Fragment
N -6.472300 -11.397700 -18.858400
C -5.344500 -11.275500 -18.873800
N -4.073400 -9.721200 -20.663200
H -4.012500 -8.619500 -22.052100
O -3.931800 -12.586800 -17.173500
C -3.904200 -11.156500 -18.856200
O -3.372900 -8.928900 -21.584300
H -3.326600 -13.002600 -16.669500
C -3.265800 -10.293500 -19.843300
N -3.182300 -11.799200 -18.008800
N -1.913000 -10.127700 -19.778400
H -1.546400 -9.808400 -20.494800
H -1.485800 -10.752200 -19.417400
13
Fragment
N -0.960800 -6.590300 -19.864200
C 0.172300 -6.510600 -19.860900
N 1.462800 -4.883200 -21.546900
O 1.517100 -7.798200 -18.114400
H 1.554300 -3.703300 -22.834500
C 1.612500 -6.415900 -19.815800
H 2.097700 -8.108300 -17.479400
O 2.180900 -4.038700 -22.428400
C 2.275100 -5.532100 -20.784300
N 2.305500 -7.035900 -18.931000
N 3.605800 -5.444600 -20.763400
H 4.021500 -4.987900 -21.410500
H 4.030500 -5.996200 -20.216400
26
Fragment
N -6.472300 -11.397700 -18.858400
C -5.344500 -11.275500 -18.873800
N -4.073400 -9.721200 -20.663200
H -4.012500 -8.619500 -22.052100
O -3.931800 -12.586800 -17.173500
C -3.904200 -11.156500 -18.856200
O -3.372900 -8.928900 -21.584300
H -3.326600 -13.002600 -16.669500
C -3.265800 -10.293500 -19.843300
N -3.182300 -11.799200 -18.008800
N -1.913000 -10.127700 -19.778400
H -1.546400 -9.808400 -20.494800
H -1.485800 -10.752200 -19.417400
N -0.960800 -6.590300 -19.864200
C 0.172300 -6.510600 -19.860900
N 1.462800 -4.883200 -21.546900
O 1.517100 -7.798200 -18.114400
H 1.554300 -3.703300 -22.834500
C 1.612500 -6.415900 -19.815800
H 2.097700 -8.108300 -17.479400
O 2.180900 -4.038700 -22.428400
C 2.275100 -5.532100 -20.784300
N 2.305500 -7.035900 -18.931000
N 3.605800 -5.444600 -20.763400
H 4.021500 -4.987900 -21.410500
H 4.030500 -5.996200 -20.216400
