13
Fragment
N -6.472300 -11.397700 -18.858400
C -5.344500 -11.275500 -18.873800
N -4.073400 -9.721200 -20.663200
H -4.012500 -8.619500 -22.052100
O -3.931800 -12.586800 -17.173500
C -3.904200 -11.156500 -18.856200
O -3.372900 -8.928900 -21.584300
H -3.326600 -13.002600 -16.669500
C -3.265800 -10.293500 -19.843300
N -3.182300 -11.799200 -18.008800
N -1.913000 -10.127700 -19.778400
H -1.546400 -9.808400 -20.494800
H -1.485800 -10.752200 -19.417400
13
Fragment
H -8.019700 -10.736700 -24.603000
H -7.959100 -11.680400 -23.525600
N -7.592600 -11.361100 -24.242100
N -6.323200 -9.689700 -26.011700
C -6.239700 -11.195400 -24.177100
H -6.178900 -8.486200 -27.351000
O -6.132600 -12.560000 -22.436100
C -5.601300 -10.332400 -25.164300
O -5.573700 -8.902000 -26.847000
H -5.493000 -12.869300 -21.968400
N -5.432100 -11.767700 -23.357300
C -4.161000 -10.213400 -25.146700
N -3.033300 -10.091200 -25.162100
26
Fragment
N -6.472300 -11.397700 -18.858400
C -5.344500 -11.275500 -18.873800
N -4.073400 -9.721200 -20.663200
H -4.012500 -8.619500 -22.052100
O -3.931800 -12.586800 -17.173500
C -3.904200 -11.156500 -18.856200
O -3.372900 -8.928900 -21.584300
H -3.326600 -13.002600 -16.669500
C -3.265800 -10.293500 -19.843300
N -3.182300 -11.799200 -18.008800
N -1.913000 -10.127700 -19.778400
H -1.546400 -9.808400 -20.494800
H -1.485800 -10.752200 -19.417400
H -8.019700 -10.736700 -24.603000
H -7.959100 -11.680400 -23.525600
N -7.592600 -11.361100 -24.242100
N -6.323200 -9.689700 -26.011700
C -6.239700 -11.195400 -24.177100
H -6.178900 -8.486200 -27.351000
O -6.132600 -12.560000 -22.436100
C -5.601300 -10.332400 -25.164300
O -5.573700 -8.902000 -26.847000
H -5.493000 -12.869300 -21.968400
N -5.432100 -11.767700 -23.357300
C -4.161000 -10.213400 -25.146700
N -3.033300 -10.091200 -25.162100
