13
Fragment
N -6.472300 -11.397700 -18.858400
C -5.344500 -11.275500 -18.873800
N -4.073400 -9.721200 -20.663200
H -4.012500 -8.619500 -22.052100
O -3.931800 -12.586800 -17.173500
C -3.904200 -11.156500 -18.856200
O -3.372900 -8.928900 -21.584300
H -3.326600 -13.002600 -16.669500
C -3.265800 -10.293500 -19.843300
N -3.182300 -11.799200 -18.008800
N -1.913000 -10.127700 -19.778400
H -1.546400 -9.808400 -20.494800
H -1.485800 -10.752200 -19.417400
13
Fragment
N -13.142200 -14.827200 -19.864200
C -12.009000 -14.747500 -19.860900
N -10.718600 -13.120100 -21.546900
O -10.664300 -16.035100 -18.114400
H -10.627100 -11.940200 -22.834500
C -10.568900 -14.652800 -19.815800
H -10.083700 -16.345200 -17.479400
O -10.000500 -12.275500 -22.428400
C -9.906300 -13.769000 -20.784300
N -9.875800 -15.272700 -18.931000
N -8.575600 -13.681500 -20.763400
H -8.159800 -13.224800 -21.410500
H -8.150800 -14.233100 -20.216400
26
Fragment
N -6.472300 -11.397700 -18.858400
C -5.344500 -11.275500 -18.873800
N -4.073400 -9.721200 -20.663200
H -4.012500 -8.619500 -22.052100
O -3.931800 -12.586800 -17.173500
C -3.904200 -11.156500 -18.856200
O -3.372900 -8.928900 -21.584300
H -3.326600 -13.002600 -16.669500
C -3.265800 -10.293500 -19.843300
N -3.182300 -11.799200 -18.008800
N -1.913000 -10.127700 -19.778400
H -1.546400 -9.808400 -20.494800
H -1.485800 -10.752200 -19.417400
N -13.142200 -14.827200 -19.864200
C -12.009000 -14.747500 -19.860900
N -10.718600 -13.120100 -21.546900
O -10.664300 -16.035100 -18.114400
H -10.627100 -11.940200 -22.834500
C -10.568900 -14.652800 -19.815800
H -10.083700 -16.345200 -17.479400
O -10.000500 -12.275500 -22.428400
C -9.906300 -13.769000 -20.784300
N -9.875800 -15.272700 -18.931000
N -8.575600 -13.681500 -20.763400
H -8.159800 -13.224800 -21.410500
H -8.150800 -14.233100 -20.216400
