13
Fragment
N -6.472300 -11.397700 -18.858400
C -5.344500 -11.275500 -18.873800
N -4.073400 -9.721200 -20.663200
H -4.012500 -8.619500 -22.052100
O -3.931800 -12.586800 -17.173500
C -3.904200 -11.156500 -18.856200
O -3.372900 -8.928900 -21.584300
H -3.326600 -13.002600 -16.669500
C -3.265800 -10.293500 -19.843300
N -3.182300 -11.799200 -18.008800
N -1.913000 -10.127700 -19.778400
H -1.546400 -9.808400 -20.494800
H -1.485800 -10.752200 -19.417400
3
Fragment
H -4.177600 -9.062800 -15.624000
O -4.030700 -8.477100 -16.199500
H -3.239900 -8.538900 -16.435000
16
Fragment
N -6.472300 -11.397700 -18.858400
C -5.344500 -11.275500 -18.873800
N -4.073400 -9.721200 -20.663200
H -4.012500 -8.619500 -22.052100
O -3.931800 -12.586800 -17.173500
C -3.904200 -11.156500 -18.856200
O -3.372900 -8.928900 -21.584300
H -3.326600 -13.002600 -16.669500
C -3.265800 -10.293500 -19.843300
N -3.182300 -11.799200 -18.008800
N -1.913000 -10.127700 -19.778400
H -1.546400 -9.808400 -20.494800
H -1.485800 -10.752200 -19.417400
H -4.177600 -9.062800 -15.624000
O -4.030700 -8.477100 -16.199500
H -3.239900 -8.538900 -16.435000
