13
Fragment
N -6.472300 -11.397700 -18.858400
C -5.344500 -11.275500 -18.873800
N -4.073400 -9.721200 -20.663200
H -4.012500 -8.619500 -22.052100
O -3.931800 -12.586800 -17.173500
C -3.904200 -11.156500 -18.856200
O -3.372900 -8.928900 -21.584300
H -3.326600 -13.002600 -16.669500
C -3.265800 -10.293500 -19.843300
N -3.182300 -11.799200 -18.008800
N -1.913000 -10.127700 -19.778400
H -1.546400 -9.808400 -20.494800
H -1.485800 -10.752200 -19.417400
13
Fragment
N 0.749700 -11.397700 -18.858400
C 1.877500 -11.275500 -18.873800
N 3.148600 -9.721200 -20.663200
H 3.209500 -8.619500 -22.052100
O 3.290200 -12.586800 -17.173500
C 3.317800 -11.156500 -18.856200
O 3.849100 -8.928900 -21.584300
H 3.895400 -13.002600 -16.669500
C 3.956200 -10.293500 -19.843300
N 4.039700 -11.799200 -18.008800
N 5.309000 -10.127700 -19.778400
H 5.675600 -9.808400 -20.494800
H 5.736200 -10.752200 -19.417400
26
Fragment
N -6.472300 -11.397700 -18.858400
C -5.344500 -11.275500 -18.873800
N -4.073400 -9.721200 -20.663200
H -4.012500 -8.619500 -22.052100
O -3.931800 -12.586800 -17.173500
C -3.904200 -11.156500 -18.856200
O -3.372900 -8.928900 -21.584300
H -3.326600 -13.002600 -16.669500
C -3.265800 -10.293500 -19.843300
N -3.182300 -11.799200 -18.008800
N -1.913000 -10.127700 -19.778400
H -1.546400 -9.808400 -20.494800
H -1.485800 -10.752200 -19.417400
N 0.749700 -11.397700 -18.858400
C 1.877500 -11.275500 -18.873800
N 3.148600 -9.721200 -20.663200
H 3.209500 -8.619500 -22.052100
O 3.290200 -12.586800 -17.173500
C 3.317800 -11.156500 -18.856200
O 3.849100 -8.928900 -21.584300
H 3.895400 -13.002600 -16.669500
C 3.956200 -10.293500 -19.843300
N 4.039700 -11.799200 -18.008800
N 5.309000 -10.127700 -19.778400
H 5.675600 -9.808400 -20.494800
H 5.736200 -10.752200 -19.417400
