16
Fragment
O -9.826600 -25.204600 -20.222600
H -9.814500 -22.780300 -20.112700
H -9.542500 -20.682100 -19.250900
C -9.459900 -22.677500 -19.292900
C -9.283900 -21.439300 -18.757500
N -9.229400 -25.094800 -19.151800
C -9.059200 -23.794400 -18.581900
O -8.780900 -26.076300 -18.550700
H -8.753700 -19.360000 -17.484200
C -8.685500 -21.275500 -17.501300
N -8.484500 -20.051000 -16.989700
C -8.479100 -23.662900 -17.331200
C -8.304600 -22.428600 -16.795800
H -8.155000 -24.416800 -16.870100
H -8.115000 -20.005300 -16.277600
H -7.991000 -22.399700 -15.932900
16
Fragment
H -10.741500 -27.241300 -16.385400
H -10.617600 -29.635700 -16.040600
H -10.577600 -25.224200 -15.448100
C -10.428000 -27.212400 -15.522500
C -10.253400 -25.978100 -14.987100
N -10.248100 -29.590000 -15.328600
C -10.047000 -28.365500 -14.817000
H -9.978900 -30.281000 -14.834100
O -9.951700 -23.564700 -13.767600
C -9.673400 -25.846600 -13.736300
N -9.503100 -24.546200 -13.166500
C -9.448700 -28.201700 -13.560700
C -9.272600 -26.963500 -13.025300
H -9.190000 -28.958900 -13.067400
H -8.918100 -26.860700 -12.205500
O -8.906000 -24.436400 -12.095600
32
Fragment
O -9.826600 -25.204600 -20.222600
H -9.814500 -22.780300 -20.112700
H -9.542500 -20.682100 -19.250900
C -9.459900 -22.677500 -19.292900
C -9.283900 -21.439300 -18.757500
N -9.229400 -25.094800 -19.151800
C -9.059200 -23.794400 -18.581900
O -8.780900 -26.076300 -18.550700
H -8.753700 -19.360000 -17.484200
C -8.685500 -21.275500 -17.501300
N -8.484500 -20.051000 -16.989700
C -8.479100 -23.662900 -17.331200
C -8.304600 -22.428600 -16.795800
H -8.155000 -24.416800 -16.870100
H -8.115000 -20.005300 -16.277600
H -7.991000 -22.399700 -15.932900
H -10.741500 -27.241300 -16.385400
H -10.617600 -29.635700 -16.040600
H -10.577600 -25.224200 -15.448100
C -10.428000 -27.212400 -15.522500
C -10.253400 -25.978100 -14.987100
N -10.248100 -29.590000 -15.328600
C -10.047000 -28.365500 -14.817000
H -9.978900 -30.281000 -14.834100
O -9.951700 -23.564700 -13.767600
C -9.673400 -25.846600 -13.736300
N -9.503100 -24.546200 -13.166500
C -9.448700 -28.201700 -13.560700
C -9.272600 -26.963500 -13.025300
H -9.190000 -28.958900 -13.067400
H -8.918100 -26.860700 -12.205500
O -8.906000 -24.436400 -12.095600
