16
Fragment
O -9.826600 -25.204600 -20.222600
H -9.814500 -22.780300 -20.112700
H -9.542500 -20.682100 -19.250900
C -9.459900 -22.677500 -19.292900
C -9.283900 -21.439300 -18.757500
N -9.229400 -25.094800 -19.151800
C -9.059200 -23.794400 -18.581900
O -8.780900 -26.076300 -18.550700
H -8.753700 -19.360000 -17.484200
C -8.685500 -21.275500 -17.501300
N -8.484500 -20.051000 -16.989700
C -8.479100 -23.662900 -17.331200
C -8.304600 -22.428600 -16.795800
H -8.155000 -24.416800 -16.870100
H -8.115000 -20.005300 -16.277600
H -7.991000 -22.399700 -15.932900
19
Fragment
H -7.404200 -26.663800 -16.137600
O -7.037500 -29.110300 -16.310300
C -6.613600 -26.888500 -15.712100
C -6.596100 -28.341000 -15.493400
H -6.576200 -30.479600 -13.649100
O -6.485300 -24.807800 -14.616500
C -6.312100 -25.997700 -14.570200
H -6.071600 -25.399600 -11.914700
N -6.031500 -28.786200 -14.326000
H -5.987800 -26.680400 -16.363800
C -5.946200 -30.236500 -14.097200
H -5.883300 -30.711200 -14.887900
N -5.795200 -26.602900 -13.445500
C -5.590500 -27.961500 -13.317000
C -5.453600 -25.755400 -12.296000
H -5.167900 -30.446500 -13.627500
O -5.052700 -28.414000 -12.335600
H -4.973200 -24.903200 -12.754900
H -4.777100 -26.045000 -11.893100
35
Fragment
O -9.826600 -25.204600 -20.222600
H -9.814500 -22.780300 -20.112700
H -9.542500 -20.682100 -19.250900
C -9.459900 -22.677500 -19.292900
C -9.283900 -21.439300 -18.757500
N -9.229400 -25.094800 -19.151800
C -9.059200 -23.794400 -18.581900
O -8.780900 -26.076300 -18.550700
H -8.753700 -19.360000 -17.484200
C -8.685500 -21.275500 -17.501300
N -8.484500 -20.051000 -16.989700
C -8.479100 -23.662900 -17.331200
C -8.304600 -22.428600 -16.795800
H -8.155000 -24.416800 -16.870100
H -8.115000 -20.005300 -16.277600
H -7.991000 -22.399700 -15.932900
H -7.404200 -26.663800 -16.137600
O -7.037500 -29.110300 -16.310300
C -6.613600 -26.888500 -15.712100
C -6.596100 -28.341000 -15.493400
H -6.576200 -30.479600 -13.649100
O -6.485300 -24.807800 -14.616500
C -6.312100 -25.997700 -14.570200
H -6.071600 -25.399600 -11.914700
N -6.031500 -28.786200 -14.326000
H -5.987800 -26.680400 -16.363800
C -5.946200 -30.236500 -14.097200
H -5.883300 -30.711200 -14.887900
N -5.795200 -26.602900 -13.445500
C -5.590500 -27.961500 -13.317000
C -5.453600 -25.755400 -12.296000
H -5.167900 -30.446500 -13.627500
O -5.052700 -28.414000 -12.335600
H -4.973200 -24.903200 -12.754900
H -4.777100 -26.045000 -11.893100
