34
Fragment
H -5.916300 -12.263300 -15.199800
N -5.410400 -11.100200 -13.667100
C -5.331200 -11.620500 -14.869300
H -4.626100 -11.697200 -17.436100
C -4.381500 -10.262100 -13.660100
N -4.325200 -11.120000 -15.546000
H -4.171100 -9.740100 -12.919900
C -3.861800 -11.477500 -16.880300
N -3.683400 -10.222900 -14.768200
O -3.598300 -13.661000 -16.131400
H -3.412500 -10.715600 -17.278100
H -3.359700 -14.980500 -18.133200
H -3.212500 -14.344700 -16.083600
C -2.898700 -14.411800 -18.706200
C -2.896200 -12.677500 -16.846300
H -2.750200 -15.733000 -20.244400
C -2.582400 -13.128400 -18.276800
C -2.543000 -14.867800 -19.973700
C -1.922400 -12.323200 -19.192300
C -1.885400 -14.017800 -20.805500
H -1.841500 -12.059300 -15.169000
C -1.612300 -12.273500 -16.086900
F -1.585300 -11.062000 -18.837000
C -1.565500 -12.735700 -20.457400
F -1.520500 -14.447500 -22.040400
H -1.241200 -11.475300 -16.494200
H -1.126100 -12.167200 -21.048100
H -0.826300 -14.343600 -14.379800
N -0.605100 -13.322500 -16.092800
C -0.368400 -14.259300 -15.184800
N 0.244500 -13.480400 -17.146700
N 0.606300 -15.055500 -15.581000
C 0.936000 -14.531300 -16.785100
H 1.607800 -14.891800 -17.317800
34
Fragment
H -5.110800 -4.685300 -13.953000
C -4.439000 -5.045800 -14.485700
N -4.109300 -4.521600 -15.689800
N -3.747500 -6.096700 -14.124100
C -3.134600 -5.317800 -16.086000
N -2.897900 -6.254600 -15.178000
H -2.676700 -5.233500 -16.891000
H -2.376900 -7.409900 -10.222800
H -2.261800 -8.101800 -14.776600
F -1.982500 -5.129600 -9.230400
C -1.937500 -6.841400 -10.813500
F -1.917700 -8.515100 -12.433800
C -1.890700 -7.303600 -15.184000
H -1.661400 -7.517900 -16.101900
C -1.617500 -5.559300 -10.465300
C -1.580600 -7.253900 -12.078600
C -0.960000 -4.709300 -11.297100
C -0.920600 -6.448700 -12.994100
H -0.752800 -3.844100 -11.026400
C -0.606800 -6.899600 -14.424500
C -0.604300 -5.165300 -12.564600
H -0.290500 -5.232400 -15.187200
H -0.143300 -4.596600 -13.137600
H -0.090500 -8.861500 -13.992800
O 0.095300 -5.916100 -15.139500
N 0.180500 -9.354200 -16.502700
C 0.358800 -8.099600 -14.390500
H 0.668100 -9.837000 -18.351000
N 0.822200 -8.457100 -15.724900
C 0.878500 -9.315000 -17.610700
H 1.123100 -7.879900 -13.834700
C 1.828200 -7.956600 -16.401600
N 1.907400 -8.476900 -17.603700
H 2.413300 -7.313800 -16.071000
68
Fragment
H -5.916300 -12.263300 -15.199800
N -5.410400 -11.100200 -13.667100
C -5.331200 -11.620500 -14.869300
H -4.626100 -11.697200 -17.436100
C -4.381500 -10.262100 -13.660100
N -4.325200 -11.120000 -15.546000
H -4.171100 -9.740100 -12.919900
C -3.861800 -11.477500 -16.880300
N -3.683400 -10.222900 -14.768200
O -3.598300 -13.661000 -16.131400
H -3.412500 -10.715600 -17.278100
H -3.359700 -14.980500 -18.133200
H -3.212500 -14.344700 -16.083600
C -2.898700 -14.411800 -18.706200
C -2.896200 -12.677500 -16.846300
H -2.750200 -15.733000 -20.244400
C -2.582400 -13.128400 -18.276800
C -2.543000 -14.867800 -19.973700
C -1.922400 -12.323200 -19.192300
C -1.885400 -14.017800 -20.805500
H -1.841500 -12.059300 -15.169000
C -1.612300 -12.273500 -16.086900
F -1.585300 -11.062000 -18.837000
C -1.565500 -12.735700 -20.457400
F -1.520500 -14.447500 -22.040400
H -1.241200 -11.475300 -16.494200
H -1.126100 -12.167200 -21.048100
H -0.826300 -14.343600 -14.379800
N -0.605100 -13.322500 -16.092800
C -0.368400 -14.259300 -15.184800
N 0.244500 -13.480400 -17.146700
N 0.606300 -15.055500 -15.581000
C 0.936000 -14.531300 -16.785100
H 1.607800 -14.891800 -17.317800
H -5.110800 -4.685300 -13.953000
C -4.439000 -5.045800 -14.485700
N -4.109300 -4.521600 -15.689800
N -3.747500 -6.096700 -14.124100
C -3.134600 -5.317800 -16.086000
N -2.897900 -6.254600 -15.178000
H -2.676700 -5.233500 -16.891000
H -2.376900 -7.409900 -10.222800
H -2.261800 -8.101800 -14.776600
F -1.982500 -5.129600 -9.230400
C -1.937500 -6.841400 -10.813500
F -1.917700 -8.515100 -12.433800
C -1.890700 -7.303600 -15.184000
H -1.661400 -7.517900 -16.101900
C -1.617500 -5.559300 -10.465300
C -1.580600 -7.253900 -12.078600
C -0.960000 -4.709300 -11.297100
C -0.920600 -6.448700 -12.994100
H -0.752800 -3.844100 -11.026400
C -0.606800 -6.899600 -14.424500
C -0.604300 -5.165300 -12.564600
H -0.290500 -5.232400 -15.187200
H -0.143300 -4.596600 -13.137600
H -0.090500 -8.861500 -13.992800
O 0.095300 -5.916100 -15.139500
N 0.180500 -9.354200 -16.502700
C 0.358800 -8.099600 -14.390500
H 0.668100 -9.837000 -18.351000
N 0.822200 -8.457100 -15.724900
C 0.878500 -9.315000 -17.610700
H 1.123100 -7.879900 -13.834700
C 1.828200 -7.956600 -16.401600
N 1.907400 -8.476900 -17.603700
H 2.413300 -7.313800 -16.071000
