19
Fragment
H -16.182200 -20.841100 -11.105400
O -16.084500 -18.915700 -9.536000
H -15.651700 -21.926000 -10.134000
C -15.480200 -21.284000 -10.731300
H -15.277800 -21.555800 -11.608300
C -14.910500 -19.183300 -9.619400
N -14.480800 -20.310600 -10.269000
H -14.083600 -17.432100 -8.976600
C -13.865300 -18.347100 -8.975900
H -13.853800 -18.602400 -8.012100
C -13.158200 -20.588500 -10.549400
O -12.846100 -21.597200 -11.111600
C -12.473000 -18.516000 -9.474700
N -12.206700 -19.640500 -10.188400
O -11.599700 -17.719200 -9.235000
C -10.821400 -19.914700 -10.598300
H -10.683000 -19.749700 -11.546300
H -10.433200 -20.663100 -10.237300
H -10.374800 -19.173900 -10.285600
19
Fragment
H -18.712000 -27.112700 -10.382000
H -18.653600 -25.623400 -10.430200
H -18.403900 -26.536900 -9.121300
C -18.265500 -26.371900 -10.069200
O -17.487100 -28.567300 -11.432600
N -16.880100 -26.646000 -10.479100
C -16.613800 -27.770600 -11.192900
O -16.240700 -24.689300 -9.556000
C -15.928600 -25.698100 -10.118200
H -15.233100 -27.684100 -12.655400
C -15.221600 -27.939500 -11.691600
H -15.003200 -28.854400 -11.691000
N -14.606000 -25.976000 -10.398500
C -14.176300 -27.103200 -11.048200
H -13.809000 -24.730800 -9.059300
C -13.606600 -25.002500 -9.936300
H -13.435100 -24.360500 -10.533600
O -13.002300 -27.370900 -11.131600
H -12.904600 -25.445400 -9.562200
38
Fragment
H -16.182200 -20.841100 -11.105400
O -16.084500 -18.915700 -9.536000
H -15.651700 -21.926000 -10.134000
C -15.480200 -21.284000 -10.731300
H -15.277800 -21.555800 -11.608300
C -14.910500 -19.183300 -9.619400
N -14.480800 -20.310600 -10.269000
H -14.083600 -17.432100 -8.976600
C -13.865300 -18.347100 -8.975900
H -13.853800 -18.602400 -8.012100
C -13.158200 -20.588500 -10.549400
O -12.846100 -21.597200 -11.111600
C -12.473000 -18.516000 -9.474700
N -12.206700 -19.640500 -10.188400
O -11.599700 -17.719200 -9.235000
C -10.821400 -19.914700 -10.598300
H -10.683000 -19.749700 -11.546300
H -10.433200 -20.663100 -10.237300
H -10.374800 -19.173900 -10.285600
H -18.712000 -27.112700 -10.382000
H -18.653600 -25.623400 -10.430200
H -18.403900 -26.536900 -9.121300
C -18.265500 -26.371900 -10.069200
O -17.487100 -28.567300 -11.432600
N -16.880100 -26.646000 -10.479100
C -16.613800 -27.770600 -11.192900
O -16.240700 -24.689300 -9.556000
C -15.928600 -25.698100 -10.118200
H -15.233100 -27.684100 -12.655400
C -15.221600 -27.939500 -11.691600
H -15.003200 -28.854400 -11.691000
N -14.606000 -25.976000 -10.398500
C -14.176300 -27.103200 -11.048200
H -13.809000 -24.730800 -9.059300
C -13.606600 -25.002500 -9.936300
H -13.435100 -24.360500 -10.533600
O -13.002300 -27.370900 -11.131600
H -12.904600 -25.445400 -9.562200
