34
Fragment
H -5.916300 -12.263300 -15.199800
N -5.410400 -11.100200 -13.667100
C -5.331200 -11.620500 -14.869300
H -4.626100 -11.697200 -17.436100
C -4.381500 -10.262100 -13.660100
N -4.325200 -11.120000 -15.546000
H -4.171100 -9.740100 -12.919900
C -3.861800 -11.477500 -16.880300
N -3.683400 -10.222900 -14.768200
O -3.598300 -13.661000 -16.131400
H -3.412500 -10.715600 -17.278100
H -3.359700 -14.980500 -18.133200
H -3.212500 -14.344700 -16.083600
C -2.898700 -14.411800 -18.706200
C -2.896200 -12.677500 -16.846300
H -2.750200 -15.733000 -20.244400
C -2.582400 -13.128400 -18.276800
C -2.543000 -14.867800 -19.973700
C -1.922400 -12.323200 -19.192300
C -1.885400 -14.017800 -20.805500
H -1.841500 -12.059300 -15.169000
C -1.612300 -12.273500 -16.086900
F -1.585300 -11.062000 -18.837000
C -1.565500 -12.735700 -20.457400
F -1.520500 -14.447500 -22.040400
H -1.241200 -11.475300 -16.494200
H -1.126100 -12.167200 -21.048100
H -0.826300 -14.343600 -14.379800
N -0.605100 -13.322500 -16.092800
C -0.368400 -14.259300 -15.184800
N 0.244500 -13.480400 -17.146700
N 0.606300 -15.055500 -15.581000
C 0.936000 -14.531300 -16.785100
H 1.607800 -14.891800 -17.317800
34
Fragment
H -8.841700 -11.211000 -24.376700
C -8.170000 -11.571500 -24.909300
N -7.840300 -11.047300 -26.113400
N -7.478500 -12.622400 -24.547700
C -6.865500 -11.843500 -26.509600
N -6.628900 -12.780300 -25.601600
H -6.407700 -11.759200 -27.314700
H -6.107800 -13.935600 -20.646400
H -5.992700 -14.627500 -25.200200
F -5.713500 -11.655300 -19.654000
C -5.668500 -13.367100 -21.237100
F -5.648600 -15.040800 -22.857400
C -5.621700 -13.829300 -25.607600
H -5.392400 -14.043600 -26.525500
C -5.348500 -12.085000 -20.888900
C -5.311500 -13.779600 -22.502200
C -4.691000 -11.235000 -21.720700
C -4.651600 -12.974400 -23.417700
H -4.483800 -10.369800 -21.450000
C -4.337800 -13.425300 -24.848100
C -4.335300 -11.691000 -22.988200
H -4.021500 -11.758100 -25.610800
H -3.874200 -11.122300 -23.561200
H -3.821500 -15.387200 -24.416400
O -3.635700 -12.441800 -25.563100
N -3.550500 -15.879900 -26.926300
C -3.372200 -14.625300 -24.814100
H -3.062900 -16.362700 -28.774600
N -2.908700 -14.982800 -26.148500
C -2.852500 -15.840700 -28.034300
H -2.607800 -14.405600 -24.258400
C -1.902800 -14.482300 -26.825200
N -1.823600 -15.002600 -28.027300
H -1.317600 -13.839500 -26.494600
68
Fragment
H -5.916300 -12.263300 -15.199800
N -5.410400 -11.100200 -13.667100
C -5.331200 -11.620500 -14.869300
H -4.626100 -11.697200 -17.436100
C -4.381500 -10.262100 -13.660100
N -4.325200 -11.120000 -15.546000
H -4.171100 -9.740100 -12.919900
C -3.861800 -11.477500 -16.880300
N -3.683400 -10.222900 -14.768200
O -3.598300 -13.661000 -16.131400
H -3.412500 -10.715600 -17.278100
H -3.359700 -14.980500 -18.133200
H -3.212500 -14.344700 -16.083600
C -2.898700 -14.411800 -18.706200
C -2.896200 -12.677500 -16.846300
H -2.750200 -15.733000 -20.244400
C -2.582400 -13.128400 -18.276800
C -2.543000 -14.867800 -19.973700
C -1.922400 -12.323200 -19.192300
C -1.885400 -14.017800 -20.805500
H -1.841500 -12.059300 -15.169000
C -1.612300 -12.273500 -16.086900
F -1.585300 -11.062000 -18.837000
C -1.565500 -12.735700 -20.457400
F -1.520500 -14.447500 -22.040400
H -1.241200 -11.475300 -16.494200
H -1.126100 -12.167200 -21.048100
H -0.826300 -14.343600 -14.379800
N -0.605100 -13.322500 -16.092800
C -0.368400 -14.259300 -15.184800
N 0.244500 -13.480400 -17.146700
N 0.606300 -15.055500 -15.581000
C 0.936000 -14.531300 -16.785100
H 1.607800 -14.891800 -17.317800
H -8.841700 -11.211000 -24.376700
C -8.170000 -11.571500 -24.909300
N -7.840300 -11.047300 -26.113400
N -7.478500 -12.622400 -24.547700
C -6.865500 -11.843500 -26.509600
N -6.628900 -12.780300 -25.601600
H -6.407700 -11.759200 -27.314700
H -6.107800 -13.935600 -20.646400
H -5.992700 -14.627500 -25.200200
F -5.713500 -11.655300 -19.654000
C -5.668500 -13.367100 -21.237100
F -5.648600 -15.040800 -22.857400
C -5.621700 -13.829300 -25.607600
H -5.392400 -14.043600 -26.525500
C -5.348500 -12.085000 -20.888900
C -5.311500 -13.779600 -22.502200
C -4.691000 -11.235000 -21.720700
C -4.651600 -12.974400 -23.417700
H -4.483800 -10.369800 -21.450000
C -4.337800 -13.425300 -24.848100
C -4.335300 -11.691000 -22.988200
H -4.021500 -11.758100 -25.610800
H -3.874200 -11.122300 -23.561200
H -3.821500 -15.387200 -24.416400
O -3.635700 -12.441800 -25.563100
N -3.550500 -15.879900 -26.926300
C -3.372200 -14.625300 -24.814100
H -3.062900 -16.362700 -28.774600
N -2.908700 -14.982800 -26.148500
C -2.852500 -15.840700 -28.034300
H -2.607800 -14.405600 -24.258400
C -1.902800 -14.482300 -26.825200
N -1.823600 -15.002600 -28.027300
H -1.317600 -13.839500 -26.494600
