16
Fragment
O -9.826600 -25.204600 -20.222600
H -9.814500 -22.780300 -20.112700
H -9.542500 -20.682100 -19.250900
C -9.459900 -22.677500 -19.292900
C -9.283900 -21.439300 -18.757500
N -9.229400 -25.094800 -19.151800
C -9.059200 -23.794400 -18.581900
O -8.780900 -26.076300 -18.550700
H -8.753700 -19.360000 -17.484200
C -8.685500 -21.275500 -17.501300
N -8.484500 -20.051000 -16.989700
C -8.479100 -23.662900 -17.331200
C -8.304600 -22.428600 -16.795800
H -8.155000 -24.416800 -16.870100
H -8.115000 -20.005300 -16.277600
H -7.991000 -22.399700 -15.932900
16
Fragment
O -9.155700 -16.162900 -25.609000
H -9.143600 -18.587200 -25.499100
H -8.871600 -20.685400 -24.637300
C -8.789000 -18.690000 -24.679300
C -8.613000 -19.928200 -24.143900
N -8.558500 -16.272700 -24.538200
C -8.388300 -17.573100 -23.968300
O -8.110000 -15.291200 -23.937100
H -8.082700 -22.007500 -22.870600
C -8.014600 -20.092000 -22.887700
N -7.813600 -21.316500 -22.376100
C -7.808200 -17.704600 -22.717600
C -7.633700 -18.938900 -22.182200
H -7.484100 -16.950700 -22.256500
H -7.444100 -21.362200 -21.664000
H -7.320100 -18.967800 -21.319300
32
Fragment
O -9.826600 -25.204600 -20.222600
H -9.814500 -22.780300 -20.112700
H -9.542500 -20.682100 -19.250900
C -9.459900 -22.677500 -19.292900
C -9.283900 -21.439300 -18.757500
N -9.229400 -25.094800 -19.151800
C -9.059200 -23.794400 -18.581900
O -8.780900 -26.076300 -18.550700
H -8.753700 -19.360000 -17.484200
C -8.685500 -21.275500 -17.501300
N -8.484500 -20.051000 -16.989700
C -8.479100 -23.662900 -17.331200
C -8.304600 -22.428600 -16.795800
H -8.155000 -24.416800 -16.870100
H -8.115000 -20.005300 -16.277600
H -7.991000 -22.399700 -15.932900
O -9.155700 -16.162900 -25.609000
H -9.143600 -18.587200 -25.499100
H -8.871600 -20.685400 -24.637300
C -8.789000 -18.690000 -24.679300
C -8.613000 -19.928200 -24.143900
N -8.558500 -16.272700 -24.538200
C -8.388300 -17.573100 -23.968300
O -8.110000 -15.291200 -23.937100
H -8.082700 -22.007500 -22.870600
C -8.014600 -20.092000 -22.887700
N -7.813600 -21.316500 -22.376100
C -7.808200 -17.704600 -22.717600
C -7.633700 -18.938900 -22.182200
H -7.484100 -16.950700 -22.256500
H -7.444100 -21.362200 -21.664000
H -7.320100 -18.967800 -21.319300
