19
Fragment
H -16.182200 -20.841100 -11.105400
O -16.084500 -18.915700 -9.536000
H -15.651700 -21.926000 -10.134000
C -15.480200 -21.284000 -10.731300
H -15.277800 -21.555800 -11.608300
C -14.910500 -19.183300 -9.619400
N -14.480800 -20.310600 -10.269000
H -14.083600 -17.432100 -8.976600
C -13.865300 -18.347100 -8.975900
H -13.853800 -18.602400 -8.012100
C -13.158200 -20.588500 -10.549400
O -12.846100 -21.597200 -11.111600
C -12.473000 -18.516000 -9.474700
N -12.206700 -19.640500 -10.188400
O -11.599700 -17.719200 -9.235000
C -10.821400 -19.914700 -10.598300
H -10.683000 -19.749700 -11.546300
H -10.433200 -20.663100 -10.237300
H -10.374800 -19.173900 -10.285600
19
Fragment
H -24.363200 -20.841100 -11.105400
O -24.265500 -18.915700 -9.536000
H -23.832700 -21.926000 -10.134000
C -23.661200 -21.284000 -10.731300
H -23.458800 -21.555800 -11.608300
C -23.091500 -19.183300 -9.619400
N -22.661800 -20.310600 -10.269000
H -22.264600 -17.432100 -8.976600
C -22.046300 -18.347100 -8.975900
H -22.034800 -18.602400 -8.012100
C -21.339200 -20.588500 -10.549400
O -21.027100 -21.597200 -11.111600
C -20.654000 -18.516000 -9.474700
N -20.387700 -19.640500 -10.188400
O -19.780700 -17.719200 -9.235000
C -19.002400 -19.914700 -10.598300
H -18.864000 -19.749700 -11.546300
H -18.614200 -20.663100 -10.237300
H -18.555800 -19.173900 -10.285600
38
Fragment
H -16.182200 -20.841100 -11.105400
O -16.084500 -18.915700 -9.536000
H -15.651700 -21.926000 -10.134000
C -15.480200 -21.284000 -10.731300
H -15.277800 -21.555800 -11.608300
C -14.910500 -19.183300 -9.619400
N -14.480800 -20.310600 -10.269000
H -14.083600 -17.432100 -8.976600
C -13.865300 -18.347100 -8.975900
H -13.853800 -18.602400 -8.012100
C -13.158200 -20.588500 -10.549400
O -12.846100 -21.597200 -11.111600
C -12.473000 -18.516000 -9.474700
N -12.206700 -19.640500 -10.188400
O -11.599700 -17.719200 -9.235000
C -10.821400 -19.914700 -10.598300
H -10.683000 -19.749700 -11.546300
H -10.433200 -20.663100 -10.237300
H -10.374800 -19.173900 -10.285600
H -24.363200 -20.841100 -11.105400
O -24.265500 -18.915700 -9.536000
H -23.832700 -21.926000 -10.134000
C -23.661200 -21.284000 -10.731300
H -23.458800 -21.555800 -11.608300
C -23.091500 -19.183300 -9.619400
N -22.661800 -20.310600 -10.269000
H -22.264600 -17.432100 -8.976600
C -22.046300 -18.347100 -8.975900
H -22.034800 -18.602400 -8.012100
C -21.339200 -20.588500 -10.549400
O -21.027100 -21.597200 -11.111600
C -20.654000 -18.516000 -9.474700
N -20.387700 -19.640500 -10.188400
O -19.780700 -17.719200 -9.235000
C -19.002400 -19.914700 -10.598300
H -18.864000 -19.749700 -11.546300
H -18.614200 -20.663100 -10.237300
H -18.555800 -19.173900 -10.285600
