16
Fragment
O -9.826600 -25.204600 -20.222600
H -9.814500 -22.780300 -20.112700
H -9.542500 -20.682100 -19.250900
C -9.459900 -22.677500 -19.292900
C -9.283900 -21.439300 -18.757500
N -9.229400 -25.094800 -19.151800
C -9.059200 -23.794400 -18.581900
O -8.780900 -26.076300 -18.550700
H -8.753700 -19.360000 -17.484200
C -8.685500 -21.275500 -17.501300
N -8.484500 -20.051000 -16.989700
C -8.479100 -23.662900 -17.331200
C -8.304600 -22.428600 -16.795800
H -8.155000 -24.416800 -16.870100
H -8.115000 -20.005300 -16.277600
H -7.991000 -22.399700 -15.932900
19
Fragment
H -6.733300 -31.250700 -21.524000
O -6.366600 -28.804200 -21.696700
C -5.942700 -31.026000 -21.098400
C -5.925200 -29.573500 -20.879800
H -5.905300 -27.434900 -19.035500
O -5.814400 -33.106700 -20.002900
C -5.641200 -31.916800 -19.956500
H -5.400700 -32.514900 -17.301000
N -5.360500 -29.128300 -19.712400
H -5.316900 -31.234100 -21.750200
C -5.275300 -27.678000 -19.483600
H -5.212400 -27.203300 -20.274300
N -5.124300 -31.311600 -18.831900
C -4.919600 -29.953000 -18.703300
C -4.782700 -32.159100 -17.682400
H -4.497000 -27.468000 -19.013900
O -4.381800 -29.500500 -17.721900
H -4.302300 -33.011300 -18.141300
H -4.106200 -31.869500 -17.279500
35
Fragment
O -9.826600 -25.204600 -20.222600
H -9.814500 -22.780300 -20.112700
H -9.542500 -20.682100 -19.250900
C -9.459900 -22.677500 -19.292900
C -9.283900 -21.439300 -18.757500
N -9.229400 -25.094800 -19.151800
C -9.059200 -23.794400 -18.581900
O -8.780900 -26.076300 -18.550700
H -8.753700 -19.360000 -17.484200
C -8.685500 -21.275500 -17.501300
N -8.484500 -20.051000 -16.989700
C -8.479100 -23.662900 -17.331200
C -8.304600 -22.428600 -16.795800
H -8.155000 -24.416800 -16.870100
H -8.115000 -20.005300 -16.277600
H -7.991000 -22.399700 -15.932900
H -6.733300 -31.250700 -21.524000
O -6.366600 -28.804200 -21.696700
C -5.942700 -31.026000 -21.098400
C -5.925200 -29.573500 -20.879800
H -5.905300 -27.434900 -19.035500
O -5.814400 -33.106700 -20.002900
C -5.641200 -31.916800 -19.956500
H -5.400700 -32.514900 -17.301000
N -5.360500 -29.128300 -19.712400
H -5.316900 -31.234100 -21.750200
C -5.275300 -27.678000 -19.483600
H -5.212400 -27.203300 -20.274300
N -5.124300 -31.311600 -18.831900
C -4.919600 -29.953000 -18.703300
C -4.782700 -32.159100 -17.682400
H -4.497000 -27.468000 -19.013900
O -4.381800 -29.500500 -17.721900
H -4.302300 -33.011300 -18.141300
H -4.106200 -31.869500 -17.279500
