19
Fragment
H -16.182200 -20.841100 -11.105400
O -16.084500 -18.915700 -9.536000
H -15.651700 -21.926000 -10.134000
C -15.480200 -21.284000 -10.731300
H -15.277800 -21.555800 -11.608300
C -14.910500 -19.183300 -9.619400
N -14.480800 -20.310600 -10.269000
H -14.083600 -17.432100 -8.976600
C -13.865300 -18.347100 -8.975900
H -13.853800 -18.602400 -8.012100
C -13.158200 -20.588500 -10.549400
O -12.846100 -21.597200 -11.111600
C -12.473000 -18.516000 -9.474700
N -12.206700 -19.640500 -10.188400
O -11.599700 -17.719200 -9.235000
C -10.821400 -19.914700 -10.598300
H -10.683000 -19.749700 -11.546300
H -10.433200 -20.663100 -10.237300
H -10.374800 -19.173900 -10.285600
18
Fragment
H -9.319500 -21.371700 -14.798000
H -9.127100 -19.399100 -13.750800
C -8.454600 -21.088700 -14.612000
C -8.380200 -19.897800 -13.967800
H -8.370200 -17.482200 -11.759800
N -8.298200 -17.492400 -12.642400
H -8.290500 -16.726400 -12.924100
H -7.379000 -22.582400 -15.369800
C -7.315900 -21.787900 -14.961900
C -7.134400 -19.310500 -13.637200
N -7.090500 -18.129700 -12.991600
H -6.362300 -17.855600 -12.724300
C -6.097400 -21.274200 -14.665000
C -5.989400 -20.042800 -14.022900
H -5.313500 -21.738000 -14.908200
N -4.665000 -19.556100 -13.781100
O -4.513000 -18.499400 -13.154900
O -3.699000 -20.189500 -14.197900
37
Fragment
H -16.182200 -20.841100 -11.105400
O -16.084500 -18.915700 -9.536000
H -15.651700 -21.926000 -10.134000
C -15.480200 -21.284000 -10.731300
H -15.277800 -21.555800 -11.608300
C -14.910500 -19.183300 -9.619400
N -14.480800 -20.310600 -10.269000
H -14.083600 -17.432100 -8.976600
C -13.865300 -18.347100 -8.975900
H -13.853800 -18.602400 -8.012100
C -13.158200 -20.588500 -10.549400
O -12.846100 -21.597200 -11.111600
C -12.473000 -18.516000 -9.474700
N -12.206700 -19.640500 -10.188400
O -11.599700 -17.719200 -9.235000
C -10.821400 -19.914700 -10.598300
H -10.683000 -19.749700 -11.546300
H -10.433200 -20.663100 -10.237300
H -10.374800 -19.173900 -10.285600
H -9.319500 -21.371700 -14.798000
H -9.127100 -19.399100 -13.750800
C -8.454600 -21.088700 -14.612000
C -8.380200 -19.897800 -13.967800
H -8.370200 -17.482200 -11.759800
N -8.298200 -17.492400 -12.642400
H -8.290500 -16.726400 -12.924100
H -7.379000 -22.582400 -15.369800
C -7.315900 -21.787900 -14.961900
C -7.134400 -19.310500 -13.637200
N -7.090500 -18.129700 -12.991600
H -6.362300 -17.855600 -12.724300
C -6.097400 -21.274200 -14.665000
C -5.989400 -20.042800 -14.022900
H -5.313500 -21.738000 -14.908200
N -4.665000 -19.556100 -13.781100
O -4.513000 -18.499400 -13.154900
O -3.699000 -20.189500 -14.197900
