19
Fragment
H -16.182200 -20.841100 -11.105400
O -16.084500 -18.915700 -9.536000
H -15.651700 -21.926000 -10.134000
C -15.480200 -21.284000 -10.731300
H -15.277800 -21.555800 -11.608300
C -14.910500 -19.183300 -9.619400
N -14.480800 -20.310600 -10.269000
H -14.083600 -17.432100 -8.976600
C -13.865300 -18.347100 -8.975900
H -13.853800 -18.602400 -8.012100
C -13.158200 -20.588500 -10.549400
O -12.846100 -21.597200 -11.111600
C -12.473000 -18.516000 -9.474700
N -12.206700 -19.640500 -10.188400
O -11.599700 -17.719200 -9.235000
C -10.821400 -19.914700 -10.598300
H -10.683000 -19.749700 -11.546300
H -10.433200 -20.663100 -10.237300
H -10.374800 -19.173900 -10.285600
18
Fragment
O -21.974800 -25.059400 -13.358800
O -21.160800 -26.749500 -14.401900
N -21.008800 -25.692800 -13.775600
H -20.360300 -23.510900 -12.648600
C -19.684400 -25.206100 -13.533800
C -19.576400 -23.974700 -12.891700
H -19.311500 -27.393300 -14.832400
N -18.583300 -27.119200 -14.565100
C -18.539400 -25.938400 -13.919600
C -18.357900 -23.461000 -12.594800
H -18.294800 -22.666500 -12.187000
H -17.383200 -28.522500 -14.632600
N -17.375600 -27.756500 -14.914400
H -17.303600 -27.766700 -15.796900
C -17.293600 -25.351100 -13.588900
C -17.219200 -24.160200 -12.944800
H -16.546700 -25.849800 -13.805900
H -16.354300 -23.877200 -12.758800
37
Fragment
H -16.182200 -20.841100 -11.105400
O -16.084500 -18.915700 -9.536000
H -15.651700 -21.926000 -10.134000
C -15.480200 -21.284000 -10.731300
H -15.277800 -21.555800 -11.608300
C -14.910500 -19.183300 -9.619400
N -14.480800 -20.310600 -10.269000
H -14.083600 -17.432100 -8.976600
C -13.865300 -18.347100 -8.975900
H -13.853800 -18.602400 -8.012100
C -13.158200 -20.588500 -10.549400
O -12.846100 -21.597200 -11.111600
C -12.473000 -18.516000 -9.474700
N -12.206700 -19.640500 -10.188400
O -11.599700 -17.719200 -9.235000
C -10.821400 -19.914700 -10.598300
H -10.683000 -19.749700 -11.546300
H -10.433200 -20.663100 -10.237300
H -10.374800 -19.173900 -10.285600
O -21.974800 -25.059400 -13.358800
O -21.160800 -26.749500 -14.401900
N -21.008800 -25.692800 -13.775600
H -20.360300 -23.510900 -12.648600
C -19.684400 -25.206100 -13.533800
C -19.576400 -23.974700 -12.891700
H -19.311500 -27.393300 -14.832400
N -18.583300 -27.119200 -14.565100
C -18.539400 -25.938400 -13.919600
C -18.357900 -23.461000 -12.594800
H -18.294800 -22.666500 -12.187000
H -17.383200 -28.522500 -14.632600
N -17.375600 -27.756500 -14.914400
H -17.303600 -27.766700 -15.796900
C -17.293600 -25.351100 -13.588900
C -17.219200 -24.160200 -12.944800
H -16.546700 -25.849800 -13.805900
H -16.354300 -23.877200 -12.758800
