48
Fragment
H -19.261500 -14.180100 -28.069800
H -18.945400 -13.996300 -25.632100
C -18.381900 -13.967900 -28.169700
C -18.032500 -13.961200 -25.670100
H -17.816300 -13.770700 -30.151900
H -17.747800 -13.194100 -25.162000
H -17.630800 -14.740000 -25.280000
N -17.596900 -13.793200 -27.055200
C -17.580400 -13.729700 -29.236700
H -17.544200 -9.032800 -25.356800
H -16.980900 -8.163800 -27.735600
C -16.943500 -9.378800 -26.004500
C -16.669100 -8.911700 -27.243900
C -16.354000 -13.462400 -27.501300
N -16.311100 -13.404700 -28.821000
N -16.223200 -10.530300 -25.750700
N -15.753500 -9.783500 -27.788300
H -15.715000 -9.083000 -29.690800
C -15.516200 -10.737500 -26.845000
H -15.441800 -13.160700 -25.691000
H -15.353800 -10.461700 -29.621100
H -15.308800 -15.558900 -24.484700
C -15.197900 -9.685400 -29.131100
C -15.163400 -13.211800 -26.617500
C -14.514000 -11.856200 -26.998600
C -14.479500 -15.382600 -24.485000
H -14.368600 -9.509100 -29.131400
H -14.323600 -14.606300 -23.995000
H -14.235600 -11.907300 -27.925100
C -14.161200 -14.330500 -26.771100
H -13.962500 -15.985000 -23.925300
N -13.923900 -15.284500 -25.827800
N -13.454200 -14.537700 -27.865400
N -13.366400 -11.663300 -24.795100
C -13.323500 -11.605600 -26.114800
C -13.008300 -16.156300 -26.372100
C -12.733900 -15.689200 -27.611600
H -12.696600 -16.904200 -25.880500
H -12.133200 -16.035200 -28.259300
C -12.097000 -11.338300 -24.379400
N -12.080500 -11.274800 -26.560900
H -12.046600 -10.328000 -28.336100
H -11.929600 -11.873900 -28.454100
H -11.861100 -11.297300 -23.464200
C -11.644900 -11.106800 -27.946000
C -11.295500 -11.100100 -25.446400
H -10.732000 -11.071700 -27.984000
H -10.415900 -10.887900 -25.546300
48
Fragment
H -28.027500 -14.180100 -28.069800
H -27.711400 -13.996300 -25.632100
C -27.147900 -13.967900 -28.169700
C -26.798500 -13.961200 -25.670100
H -26.582300 -13.770700 -30.151900
H -26.513800 -13.194100 -25.162000
H -26.396800 -14.740000 -25.280000
N -26.362900 -13.793200 -27.055200
C -26.346400 -13.729700 -29.236700
H -26.310200 -9.032800 -25.356800
H -25.746900 -8.163800 -27.735600
C -25.709500 -9.378800 -26.004500
C -25.435100 -8.911700 -27.243900
C -25.120000 -13.462400 -27.501300
N -25.077100 -13.404700 -28.821000
N -24.989200 -10.530300 -25.750700
N -24.519500 -9.783500 -27.788300
H -24.481000 -9.083000 -29.690800
C -24.282200 -10.737500 -26.845000
H -24.207800 -13.160700 -25.691000
H -24.119800 -10.461700 -29.621100
H -24.074800 -15.558900 -24.484700
C -23.963900 -9.685400 -29.131100
C -23.929400 -13.211800 -26.617500
C -23.280000 -11.856200 -26.998600
C -23.245500 -15.382600 -24.485000
H -23.134600 -9.509100 -29.131400
H -23.089600 -14.606300 -23.995000
H -23.001600 -11.907300 -27.925100
C -22.927200 -14.330500 -26.771100
H -22.728500 -15.985000 -23.925300
N -22.689900 -15.284500 -25.827800
N -22.220200 -14.537700 -27.865400
N -22.132400 -11.663300 -24.795100
C -22.089500 -11.605600 -26.114800
C -21.774300 -16.156300 -26.372100
C -21.499900 -15.689200 -27.611600
H -21.462600 -16.904200 -25.880500
H -20.899200 -16.035200 -28.259300
C -20.863000 -11.338300 -24.379400
N -20.846500 -11.274800 -26.560900
H -20.812600 -10.328000 -28.336100
H -20.695600 -11.873900 -28.454100
H -20.627100 -11.297300 -23.464200
C -20.410900 -11.106800 -27.946000
C -20.061500 -11.100100 -25.446400
H -19.498000 -11.071700 -27.984000
H -19.181900 -10.887900 -25.546300
96
Fragment
H -19.261500 -14.180100 -28.069800
H -18.945400 -13.996300 -25.632100
C -18.381900 -13.967900 -28.169700
C -18.032500 -13.961200 -25.670100
H -17.816300 -13.770700 -30.151900
H -17.747800 -13.194100 -25.162000
H -17.630800 -14.740000 -25.280000
N -17.596900 -13.793200 -27.055200
C -17.580400 -13.729700 -29.236700
H -17.544200 -9.032800 -25.356800
H -16.980900 -8.163800 -27.735600
C -16.943500 -9.378800 -26.004500
C -16.669100 -8.911700 -27.243900
C -16.354000 -13.462400 -27.501300
N -16.311100 -13.404700 -28.821000
N -16.223200 -10.530300 -25.750700
N -15.753500 -9.783500 -27.788300
H -15.715000 -9.083000 -29.690800
C -15.516200 -10.737500 -26.845000
H -15.441800 -13.160700 -25.691000
H -15.353800 -10.461700 -29.621100
H -15.308800 -15.558900 -24.484700
C -15.197900 -9.685400 -29.131100
C -15.163400 -13.211800 -26.617500
C -14.514000 -11.856200 -26.998600
C -14.479500 -15.382600 -24.485000
H -14.368600 -9.509100 -29.131400
H -14.323600 -14.606300 -23.995000
H -14.235600 -11.907300 -27.925100
C -14.161200 -14.330500 -26.771100
H -13.962500 -15.985000 -23.925300
N -13.923900 -15.284500 -25.827800
N -13.454200 -14.537700 -27.865400
N -13.366400 -11.663300 -24.795100
C -13.323500 -11.605600 -26.114800
C -13.008300 -16.156300 -26.372100
C -12.733900 -15.689200 -27.611600
H -12.696600 -16.904200 -25.880500
H -12.133200 -16.035200 -28.259300
C -12.097000 -11.338300 -24.379400
N -12.080500 -11.274800 -26.560900
H -12.046600 -10.328000 -28.336100
H -11.929600 -11.873900 -28.454100
H -11.861100 -11.297300 -23.464200
C -11.644900 -11.106800 -27.946000
C -11.295500 -11.100100 -25.446400
H -10.732000 -11.071700 -27.984000
H -10.415900 -10.887900 -25.546300
H -28.027500 -14.180100 -28.069800
H -27.711400 -13.996300 -25.632100
C -27.147900 -13.967900 -28.169700
C -26.798500 -13.961200 -25.670100
H -26.582300 -13.770700 -30.151900
H -26.513800 -13.194100 -25.162000
H -26.396800 -14.740000 -25.280000
N -26.362900 -13.793200 -27.055200
C -26.346400 -13.729700 -29.236700
H -26.310200 -9.032800 -25.356800
H -25.746900 -8.163800 -27.735600
C -25.709500 -9.378800 -26.004500
C -25.435100 -8.911700 -27.243900
C -25.120000 -13.462400 -27.501300
N -25.077100 -13.404700 -28.821000
N -24.989200 -10.530300 -25.750700
N -24.519500 -9.783500 -27.788300
H -24.481000 -9.083000 -29.690800
C -24.282200 -10.737500 -26.845000
H -24.207800 -13.160700 -25.691000
H -24.119800 -10.461700 -29.621100
H -24.074800 -15.558900 -24.484700
C -23.963900 -9.685400 -29.131100
C -23.929400 -13.211800 -26.617500
C -23.280000 -11.856200 -26.998600
C -23.245500 -15.382600 -24.485000
H -23.134600 -9.509100 -29.131400
H -23.089600 -14.606300 -23.995000
H -23.001600 -11.907300 -27.925100
C -22.927200 -14.330500 -26.771100
H -22.728500 -15.985000 -23.925300
N -22.689900 -15.284500 -25.827800
N -22.220200 -14.537700 -27.865400
N -22.132400 -11.663300 -24.795100
C -22.089500 -11.605600 -26.114800
C -21.774300 -16.156300 -26.372100
C -21.499900 -15.689200 -27.611600
H -21.462600 -16.904200 -25.880500
H -20.899200 -16.035200 -28.259300
C -20.863000 -11.338300 -24.379400
N -20.846500 -11.274800 -26.560900
H -20.812600 -10.328000 -28.336100
H -20.695600 -11.873900 -28.454100
H -20.627100 -11.297300 -23.464200
C -20.410900 -11.106800 -27.946000
C -20.061500 -11.100100 -25.446400
H -19.498000 -11.071700 -27.984000
H -19.181900 -10.887900 -25.546300
