26
Fragment
H -10.462000 -5.750100 -21.045700
H -9.897500 -4.088400 -19.541700
C -9.786800 -5.895300 -20.423300
C -9.454700 -4.905700 -19.518400
H -9.329400 -7.758800 -21.020100
C -9.116300 -7.096800 -20.402000
C -8.463800 -5.127000 -18.574800
H -8.246500 -4.456900 -17.967900
C -8.124500 -7.321800 -19.464000
C -7.789500 -6.349900 -18.530000
H -7.675400 -8.136600 -19.458200
H -6.790600 -5.090000 -16.436600
C -6.748100 -6.664200 -17.535400
C -6.361400 -5.909800 -16.530100
H -6.318800 -7.484000 -17.628900
H -5.434100 -4.437400 -14.607300
C -5.319900 -6.224100 -15.535600
C -4.984900 -5.252200 -14.601500
H -4.862900 -8.117100 -16.097700
C -4.645700 -7.447000 -15.490800
C -3.993200 -5.477200 -13.663500
H -3.780000 -4.815200 -13.045400
C -3.654800 -7.668300 -14.547200
C -3.322700 -6.678700 -13.642200
H -3.211900 -8.485600 -14.523800
H -2.647500 -6.823900 -13.019900
20
Fragment
N -14.708600 -3.371100 -18.835200
C -14.056100 -4.306000 -18.836400
N -13.879600 -6.796200 -21.079100
C -13.608400 -6.274400 -20.097700
C -13.297300 -5.517500 -18.923400
F -12.541500 -3.873400 -16.764800
C -12.351300 -5.898500 -17.997700
F -11.968000 -8.009800 -19.026600
C -11.963000 -5.070500 -16.890700
C -11.644000 -7.151500 -18.060700
C -11.020400 -5.422500 -16.004800
C -10.701400 -7.503500 -17.174800
F -10.696500 -4.564200 -15.038900
C -10.313200 -6.675500 -16.067900
F -10.123000 -8.700600 -17.300700
C -9.367200 -7.056500 -15.142100
C -9.056000 -6.299600 -13.967900
N -8.784800 -5.777800 -12.986500
C -8.608400 -8.268000 -15.229200
N -7.955800 -9.202900 -15.230400
46
Fragment
H -10.462000 -5.750100 -21.045700
H -9.897500 -4.088400 -19.541700
C -9.786800 -5.895300 -20.423300
C -9.454700 -4.905700 -19.518400
H -9.329400 -7.758800 -21.020100
C -9.116300 -7.096800 -20.402000
C -8.463800 -5.127000 -18.574800
H -8.246500 -4.456900 -17.967900
C -8.124500 -7.321800 -19.464000
C -7.789500 -6.349900 -18.530000
H -7.675400 -8.136600 -19.458200
H -6.790600 -5.090000 -16.436600
C -6.748100 -6.664200 -17.535400
C -6.361400 -5.909800 -16.530100
H -6.318800 -7.484000 -17.628900
H -5.434100 -4.437400 -14.607300
C -5.319900 -6.224100 -15.535600
C -4.984900 -5.252200 -14.601500
H -4.862900 -8.117100 -16.097700
C -4.645700 -7.447000 -15.490800
C -3.993200 -5.477200 -13.663500
H -3.780000 -4.815200 -13.045400
C -3.654800 -7.668300 -14.547200
C -3.322700 -6.678700 -13.642200
H -3.211900 -8.485600 -14.523800
H -2.647500 -6.823900 -13.019900
N -14.708600 -3.371100 -18.835200
C -14.056100 -4.306000 -18.836400
N -13.879600 -6.796200 -21.079100
C -13.608400 -6.274400 -20.097700
C -13.297300 -5.517500 -18.923400
F -12.541500 -3.873400 -16.764800
C -12.351300 -5.898500 -17.997700
F -11.968000 -8.009800 -19.026600
C -11.963000 -5.070500 -16.890700
C -11.644000 -7.151500 -18.060700
C -11.020400 -5.422500 -16.004800
C -10.701400 -7.503500 -17.174800
F -10.696500 -4.564200 -15.038900
C -10.313200 -6.675500 -16.067900
F -10.123000 -8.700600 -17.300700
C -9.367200 -7.056500 -15.142100
C -9.056000 -6.299600 -13.967900
N -8.784800 -5.777800 -12.986500
C -8.608400 -8.268000 -15.229200
N -7.955800 -9.202900 -15.230400
