26
Fragment
H -10.462000 -5.750100 -21.045700
H -9.897500 -4.088400 -19.541700
C -9.786800 -5.895300 -20.423300
C -9.454700 -4.905700 -19.518400
H -9.329400 -7.758800 -21.020100
C -9.116300 -7.096800 -20.402000
C -8.463800 -5.127000 -18.574800
H -8.246500 -4.456900 -17.967900
C -8.124500 -7.321800 -19.464000
C -7.789500 -6.349900 -18.530000
H -7.675400 -8.136600 -19.458200
H -6.790600 -5.090000 -16.436600
C -6.748100 -6.664200 -17.535400
C -6.361400 -5.909800 -16.530100
H -6.318800 -7.484000 -17.628900
H -5.434100 -4.437400 -14.607300
C -5.319900 -6.224100 -15.535600
C -4.984900 -5.252200 -14.601500
H -4.862900 -8.117100 -16.097700
C -4.645700 -7.447000 -15.490800
C -3.993200 -5.477200 -13.663500
H -3.780000 -4.815200 -13.045400
C -3.654800 -7.668300 -14.547200
C -3.322700 -6.678700 -13.642200
H -3.211900 -8.485600 -14.523800
H -2.647500 -6.823900 -13.019900
26
Fragment
H -13.739300 -3.680400 -29.562100
H -13.174900 -5.342100 -28.058100
C -13.064100 -3.535200 -28.939700
C -12.732000 -4.524800 -28.034800
H -12.606800 -1.671700 -29.536500
C -12.393700 -2.333700 -28.918400
C -11.741100 -4.303500 -27.091100
H -11.523900 -4.973600 -26.484300
C -11.401900 -2.108700 -27.980400
C -11.066900 -3.080600 -27.046300
H -10.952800 -1.293900 -27.974600
H -10.068000 -4.340500 -24.953000
C -10.025400 -2.766300 -26.051800
C -9.638800 -3.520700 -25.046500
H -9.596200 -1.946500 -26.145300
H -8.711400 -4.993100 -23.123700
C -8.597300 -3.206400 -24.052000
C -8.262300 -4.178300 -23.117900
H -8.140300 -1.313400 -24.614100
C -7.923100 -1.983500 -24.007200
C -7.270500 -3.953300 -22.179900
H -7.057400 -4.615300 -21.561800
C -6.932200 -1.762200 -23.063600
C -6.600100 -2.751800 -22.158600
H -6.489300 -0.944900 -23.040200
H -5.924800 -2.606600 -21.536200
52
Fragment
H -10.462000 -5.750100 -21.045700
H -9.897500 -4.088400 -19.541700
C -9.786800 -5.895300 -20.423300
C -9.454700 -4.905700 -19.518400
H -9.329400 -7.758800 -21.020100
C -9.116300 -7.096800 -20.402000
C -8.463800 -5.127000 -18.574800
H -8.246500 -4.456900 -17.967900
C -8.124500 -7.321800 -19.464000
C -7.789500 -6.349900 -18.530000
H -7.675400 -8.136600 -19.458200
H -6.790600 -5.090000 -16.436600
C -6.748100 -6.664200 -17.535400
C -6.361400 -5.909800 -16.530100
H -6.318800 -7.484000 -17.628900
H -5.434100 -4.437400 -14.607300
C -5.319900 -6.224100 -15.535600
C -4.984900 -5.252200 -14.601500
H -4.862900 -8.117100 -16.097700
C -4.645700 -7.447000 -15.490800
C -3.993200 -5.477200 -13.663500
H -3.780000 -4.815200 -13.045400
C -3.654800 -7.668300 -14.547200
C -3.322700 -6.678700 -13.642200
H -3.211900 -8.485600 -14.523800
H -2.647500 -6.823900 -13.019900
H -13.739300 -3.680400 -29.562100
H -13.174900 -5.342100 -28.058100
C -13.064100 -3.535200 -28.939700
C -12.732000 -4.524800 -28.034800
H -12.606800 -1.671700 -29.536500
C -12.393700 -2.333700 -28.918400
C -11.741100 -4.303500 -27.091100
H -11.523900 -4.973600 -26.484300
C -11.401900 -2.108700 -27.980400
C -11.066900 -3.080600 -27.046300
H -10.952800 -1.293900 -27.974600
H -10.068000 -4.340500 -24.953000
C -10.025400 -2.766300 -26.051800
C -9.638800 -3.520700 -25.046500
H -9.596200 -1.946500 -26.145300
H -8.711400 -4.993100 -23.123700
C -8.597300 -3.206400 -24.052000
C -8.262300 -4.178300 -23.117900
H -8.140300 -1.313400 -24.614100
C -7.923100 -1.983500 -24.007200
C -7.270500 -3.953300 -22.179900
H -7.057400 -4.615300 -21.561800
C -6.932200 -1.762200 -23.063600
C -6.600100 -2.751800 -22.158600
H -6.489300 -0.944900 -23.040200
H -5.924800 -2.606600 -21.536200
