26
Fragment
H -10.462000 -5.750100 -21.045700
H -9.897500 -4.088400 -19.541700
C -9.786800 -5.895300 -20.423300
C -9.454700 -4.905700 -19.518400
H -9.329400 -7.758800 -21.020100
C -9.116300 -7.096800 -20.402000
C -8.463800 -5.127000 -18.574800
H -8.246500 -4.456900 -17.967900
C -8.124500 -7.321800 -19.464000
C -7.789500 -6.349900 -18.530000
H -7.675400 -8.136600 -19.458200
H -6.790600 -5.090000 -16.436600
C -6.748100 -6.664200 -17.535400
C -6.361400 -5.909800 -16.530100
H -6.318800 -7.484000 -17.628900
H -5.434100 -4.437400 -14.607300
C -5.319900 -6.224100 -15.535600
C -4.984900 -5.252200 -14.601500
H -4.862900 -8.117100 -16.097700
C -4.645700 -7.447000 -15.490800
C -3.993200 -5.477200 -13.663500
H -3.780000 -4.815200 -13.045400
C -3.654800 -7.668300 -14.547200
C -3.322700 -6.678700 -13.642200
H -3.211900 -8.485600 -14.523800
H -2.647500 -6.823900 -13.019900
20
Fragment
N -1.876200 -12.346400 -10.318800
C -1.223700 -11.411500 -10.320000
N -1.047300 -8.921300 -12.562700
C -0.776000 -9.443100 -11.581300
C -0.464900 -10.200000 -10.407000
F 0.290900 -11.844100 -8.248500
C 0.481100 -9.819000 -9.481300
F 0.864400 -7.707700 -10.510200
C 0.869300 -10.647000 -8.374300
C 1.188400 -8.566000 -9.544300
C 1.811900 -10.295000 -7.488500
C 2.130900 -8.214000 -8.658400
F 2.135900 -11.153300 -6.522500
C 2.519200 -9.042000 -7.551500
F 2.709400 -7.016900 -8.784300
C 3.465200 -8.661000 -6.625700
C 3.776300 -9.417900 -5.451500
N 4.047600 -9.939700 -4.470100
C 4.224000 -7.449500 -6.712800
N 4.876500 -6.514600 -6.714000
46
Fragment
H -10.462000 -5.750100 -21.045700
H -9.897500 -4.088400 -19.541700
C -9.786800 -5.895300 -20.423300
C -9.454700 -4.905700 -19.518400
H -9.329400 -7.758800 -21.020100
C -9.116300 -7.096800 -20.402000
C -8.463800 -5.127000 -18.574800
H -8.246500 -4.456900 -17.967900
C -8.124500 -7.321800 -19.464000
C -7.789500 -6.349900 -18.530000
H -7.675400 -8.136600 -19.458200
H -6.790600 -5.090000 -16.436600
C -6.748100 -6.664200 -17.535400
C -6.361400 -5.909800 -16.530100
H -6.318800 -7.484000 -17.628900
H -5.434100 -4.437400 -14.607300
C -5.319900 -6.224100 -15.535600
C -4.984900 -5.252200 -14.601500
H -4.862900 -8.117100 -16.097700
C -4.645700 -7.447000 -15.490800
C -3.993200 -5.477200 -13.663500
H -3.780000 -4.815200 -13.045400
C -3.654800 -7.668300 -14.547200
C -3.322700 -6.678700 -13.642200
H -3.211900 -8.485600 -14.523800
H -2.647500 -6.823900 -13.019900
N -1.876200 -12.346400 -10.318800
C -1.223700 -11.411500 -10.320000
N -1.047300 -8.921300 -12.562700
C -0.776000 -9.443100 -11.581300
C -0.464900 -10.200000 -10.407000
F 0.290900 -11.844100 -8.248500
C 0.481100 -9.819000 -9.481300
F 0.864400 -7.707700 -10.510200
C 0.869300 -10.647000 -8.374300
C 1.188400 -8.566000 -9.544300
C 1.811900 -10.295000 -7.488500
C 2.130900 -8.214000 -8.658400
F 2.135900 -11.153300 -6.522500
C 2.519200 -9.042000 -7.551500
F 2.709400 -7.016900 -8.784300
C 3.465200 -8.661000 -6.625700
C 3.776300 -9.417900 -5.451500
N 4.047600 -9.939700 -4.470100
C 4.224000 -7.449500 -6.712800
N 4.876500 -6.514600 -6.714000
