26
Fragment
H -10.462000 -5.750100 -21.045700
H -9.897500 -4.088400 -19.541700
C -9.786800 -5.895300 -20.423300
C -9.454700 -4.905700 -19.518400
H -9.329400 -7.758800 -21.020100
C -9.116300 -7.096800 -20.402000
C -8.463800 -5.127000 -18.574800
H -8.246500 -4.456900 -17.967900
C -8.124500 -7.321800 -19.464000
C -7.789500 -6.349900 -18.530000
H -7.675400 -8.136600 -19.458200
H -6.790600 -5.090000 -16.436600
C -6.748100 -6.664200 -17.535400
C -6.361400 -5.909800 -16.530100
H -6.318800 -7.484000 -17.628900
H -5.434100 -4.437400 -14.607300
C -5.319900 -6.224100 -15.535600
C -4.984900 -5.252200 -14.601500
H -4.862900 -8.117100 -16.097700
C -4.645700 -7.447000 -15.490800
C -3.993200 -5.477200 -13.663500
H -3.780000 -4.815200 -13.045400
C -3.654800 -7.668300 -14.547200
C -3.322700 -6.678700 -13.642200
H -3.211900 -8.485600 -14.523800
H -2.647500 -6.823900 -13.019900
26
Fragment
H -10.462000 0.536900 -21.045700
H -9.897500 2.198600 -19.541700
C -9.786800 0.391700 -20.423300
C -9.454700 1.381300 -19.518400
H -9.329400 -1.471800 -21.020100
C -9.116300 -0.809800 -20.402000
C -8.463800 1.160000 -18.574800
H -8.246500 1.830100 -17.967900
C -8.124500 -1.034800 -19.464000
C -7.789500 -0.062900 -18.530000
H -7.675400 -1.849600 -19.458200
H -6.790600 1.197000 -16.436600
C -6.748100 -0.377200 -17.535400
C -6.361400 0.377200 -16.530100
H -6.318800 -1.197000 -17.628900
H -5.434100 1.849600 -14.607300
C -5.319900 0.062900 -15.535600
C -4.984900 1.034800 -14.601500
H -4.862900 -1.830100 -16.097700
C -4.645700 -1.160000 -15.490800
C -3.993200 0.809800 -13.663500
H -3.780000 1.471800 -13.045400
C -3.654800 -1.381300 -14.547200
C -3.322700 -0.391700 -13.642200
H -3.211900 -2.198600 -14.523800
H -2.647500 -0.536900 -13.019900
52
Fragment
H -10.462000 -5.750100 -21.045700
H -9.897500 -4.088400 -19.541700
C -9.786800 -5.895300 -20.423300
C -9.454700 -4.905700 -19.518400
H -9.329400 -7.758800 -21.020100
C -9.116300 -7.096800 -20.402000
C -8.463800 -5.127000 -18.574800
H -8.246500 -4.456900 -17.967900
C -8.124500 -7.321800 -19.464000
C -7.789500 -6.349900 -18.530000
H -7.675400 -8.136600 -19.458200
H -6.790600 -5.090000 -16.436600
C -6.748100 -6.664200 -17.535400
C -6.361400 -5.909800 -16.530100
H -6.318800 -7.484000 -17.628900
H -5.434100 -4.437400 -14.607300
C -5.319900 -6.224100 -15.535600
C -4.984900 -5.252200 -14.601500
H -4.862900 -8.117100 -16.097700
C -4.645700 -7.447000 -15.490800
C -3.993200 -5.477200 -13.663500
H -3.780000 -4.815200 -13.045400
C -3.654800 -7.668300 -14.547200
C -3.322700 -6.678700 -13.642200
H -3.211900 -8.485600 -14.523800
H -2.647500 -6.823900 -13.019900
H -10.462000 0.536900 -21.045700
H -9.897500 2.198600 -19.541700
C -9.786800 0.391700 -20.423300
C -9.454700 1.381300 -19.518400
H -9.329400 -1.471800 -21.020100
C -9.116300 -0.809800 -20.402000
C -8.463800 1.160000 -18.574800
H -8.246500 1.830100 -17.967900
C -8.124500 -1.034800 -19.464000
C -7.789500 -0.062900 -18.530000
H -7.675400 -1.849600 -19.458200
H -6.790600 1.197000 -16.436600
C -6.748100 -0.377200 -17.535400
C -6.361400 0.377200 -16.530100
H -6.318800 -1.197000 -17.628900
H -5.434100 1.849600 -14.607300
C -5.319900 0.062900 -15.535600
C -4.984900 1.034800 -14.601500
H -4.862900 -1.830100 -16.097700
C -4.645700 -1.160000 -15.490800
C -3.993200 0.809800 -13.663500
H -3.780000 1.471800 -13.045400
C -3.654800 -1.381300 -14.547200
C -3.322700 -0.391700 -13.642200
H -3.211900 -2.198600 -14.523800
H -2.647500 -0.536900 -13.019900
