19
Fragment
H -15.738300 -46.176300 -15.728400
H -15.025400 -47.312800 -14.856000
C -14.936900 -46.404400 -15.213000
H -14.833200 -45.771000 -14.472400
H -14.628000 -43.980600 -15.662500
H -14.364800 -48.674200 -16.038100
N -13.774700 -43.920900 -15.933100
C -13.724200 -46.332300 -16.110100
H -13.570400 -43.112800 -16.391500
N -13.539000 -48.760400 -16.241300
H -13.224900 -49.461300 -16.745000
C -13.214000 -45.071300 -16.466200
C -13.097900 -47.480600 -16.606900
C -12.099100 -44.971200 -17.303900
C -11.968600 -47.373700 -17.422100
H -11.763900 -44.118100 -17.552400
H -11.530800 -48.155500 -17.737400
C -11.489900 -46.118700 -17.766700
H -10.729500 -46.048000 -18.331700
21
Fragment
O -20.351500 -39.277200 -11.921300
O -20.044400 -37.315600 -12.756700
N -19.708200 -38.473200 -12.578400
H -19.097600 -40.907900 -13.060800
C -18.488000 -38.968800 -13.256200
C -18.426500 -40.339400 -13.419400
O -18.157700 -42.998100 -13.845800
H -18.025500 -36.116900 -14.029700
H -17.821400 -36.466000 -12.481300
C -17.506500 -38.071000 -13.711800
C -17.472800 -36.607300 -13.386100
C -17.356200 -40.853100 -14.121100
N -17.273900 -42.301500 -14.322500
H -16.549100 -36.282900 -13.434800
C -16.482900 -38.690800 -14.442600
C -16.370200 -40.052800 -14.655000
O -16.322200 -42.727700 -14.955000
O -15.785600 -36.882300 -15.699000
H -15.644900 -40.419800 -15.146900
N -15.434700 -37.871800 -15.068900
O -14.275200 -38.239400 -14.962500
40
Fragment
H -15.738300 -46.176300 -15.728400
H -15.025400 -47.312800 -14.856000
C -14.936900 -46.404400 -15.213000
H -14.833200 -45.771000 -14.472400
H -14.628000 -43.980600 -15.662500
H -14.364800 -48.674200 -16.038100
N -13.774700 -43.920900 -15.933100
C -13.724200 -46.332300 -16.110100
H -13.570400 -43.112800 -16.391500
N -13.539000 -48.760400 -16.241300
H -13.224900 -49.461300 -16.745000
C -13.214000 -45.071300 -16.466200
C -13.097900 -47.480600 -16.606900
C -12.099100 -44.971200 -17.303900
C -11.968600 -47.373700 -17.422100
H -11.763900 -44.118100 -17.552400
H -11.530800 -48.155500 -17.737400
C -11.489900 -46.118700 -17.766700
H -10.729500 -46.048000 -18.331700
O -20.351500 -39.277200 -11.921300
O -20.044400 -37.315600 -12.756700
N -19.708200 -38.473200 -12.578400
H -19.097600 -40.907900 -13.060800
C -18.488000 -38.968800 -13.256200
C -18.426500 -40.339400 -13.419400
O -18.157700 -42.998100 -13.845800
H -18.025500 -36.116900 -14.029700
H -17.821400 -36.466000 -12.481300
C -17.506500 -38.071000 -13.711800
C -17.472800 -36.607300 -13.386100
C -17.356200 -40.853100 -14.121100
N -17.273900 -42.301500 -14.322500
H -16.549100 -36.282900 -13.434800
C -16.482900 -38.690800 -14.442600
C -16.370200 -40.052800 -14.655000
O -16.322200 -42.727700 -14.955000
O -15.785600 -36.882300 -15.699000
H -15.644900 -40.419800 -15.146900
N -15.434700 -37.871800 -15.068900
O -14.275200 -38.239400 -14.962500
