19
Fragment
H -15.738300 -46.176300 -15.728400
H -15.025400 -47.312800 -14.856000
C -14.936900 -46.404400 -15.213000
H -14.833200 -45.771000 -14.472400
H -14.628000 -43.980600 -15.662500
H -14.364800 -48.674200 -16.038100
N -13.774700 -43.920900 -15.933100
C -13.724200 -46.332300 -16.110100
H -13.570400 -43.112800 -16.391500
N -13.539000 -48.760400 -16.241300
H -13.224900 -49.461300 -16.745000
C -13.214000 -45.071300 -16.466200
C -13.097900 -47.480600 -16.606900
C -12.099100 -44.971200 -17.303900
C -11.968600 -47.373700 -17.422100
H -11.763900 -44.118100 -17.552400
H -11.530800 -48.155500 -17.737400
C -11.489900 -46.118700 -17.766700
H -10.729500 -46.048000 -18.331700
21
Fragment
O -19.343700 -52.654500 -12.651300
N -18.184200 -52.286900 -12.544800
H -17.974000 -54.834900 -12.466800
O -17.833300 -51.297500 -11.914800
O -17.296700 -57.142800 -12.658800
C -17.248700 -54.467900 -12.958800
C -17.136000 -53.106000 -13.171200
H -17.069800 -50.698100 -14.179000
N -16.345000 -56.716700 -13.291300
C -16.262700 -55.268300 -13.492600
C -16.146100 -51.022400 -14.227700
C -16.112400 -52.486100 -13.902000
H -15.797500 -50.881200 -15.132500
H -15.593500 -50.532000 -13.584100
O -15.461200 -57.413200 -13.768000
C -15.192400 -54.754500 -14.194400
C -15.130900 -53.383900 -14.357600
H -14.521300 -55.323000 -14.553000
N -13.910800 -52.888300 -15.035400
O -13.574500 -51.730800 -14.857100
O -13.267400 -53.692400 -15.692500
40
Fragment
H -15.738300 -46.176300 -15.728400
H -15.025400 -47.312800 -14.856000
C -14.936900 -46.404400 -15.213000
H -14.833200 -45.771000 -14.472400
H -14.628000 -43.980600 -15.662500
H -14.364800 -48.674200 -16.038100
N -13.774700 -43.920900 -15.933100
C -13.724200 -46.332300 -16.110100
H -13.570400 -43.112800 -16.391500
N -13.539000 -48.760400 -16.241300
H -13.224900 -49.461300 -16.745000
C -13.214000 -45.071300 -16.466200
C -13.097900 -47.480600 -16.606900
C -12.099100 -44.971200 -17.303900
C -11.968600 -47.373700 -17.422100
H -11.763900 -44.118100 -17.552400
H -11.530800 -48.155500 -17.737400
C -11.489900 -46.118700 -17.766700
H -10.729500 -46.048000 -18.331700
O -19.343700 -52.654500 -12.651300
N -18.184200 -52.286900 -12.544800
H -17.974000 -54.834900 -12.466800
O -17.833300 -51.297500 -11.914800
O -17.296700 -57.142800 -12.658800
C -17.248700 -54.467900 -12.958800
C -17.136000 -53.106000 -13.171200
H -17.069800 -50.698100 -14.179000
N -16.345000 -56.716700 -13.291300
C -16.262700 -55.268300 -13.492600
C -16.146100 -51.022400 -14.227700
C -16.112400 -52.486100 -13.902000
H -15.797500 -50.881200 -15.132500
H -15.593500 -50.532000 -13.584100
O -15.461200 -57.413200 -13.768000
C -15.192400 -54.754500 -14.194400
C -15.130900 -53.383900 -14.357600
H -14.521300 -55.323000 -14.553000
N -13.910800 -52.888300 -15.035400
O -13.574500 -51.730800 -14.857100
O -13.267400 -53.692400 -15.692500
