19
Fragment
H -15.738300 -46.176300 -15.728400
H -15.025400 -47.312800 -14.856000
C -14.936900 -46.404400 -15.213000
H -14.833200 -45.771000 -14.472400
H -14.628000 -43.980600 -15.662500
H -14.364800 -48.674200 -16.038100
N -13.774700 -43.920900 -15.933100
C -13.724200 -46.332300 -16.110100
H -13.570400 -43.112800 -16.391500
N -13.539000 -48.760400 -16.241300
H -13.224900 -49.461300 -16.745000
C -13.214000 -45.071300 -16.466200
C -13.097900 -47.480600 -16.606900
C -12.099100 -44.971200 -17.303900
C -11.968600 -47.373700 -17.422100
H -11.763900 -44.118100 -17.552400
H -11.530800 -48.155500 -17.737400
C -11.489900 -46.118700 -17.766700
H -10.729500 -46.048000 -18.331700
21
Fragment
O -18.424300 -48.251500 -18.174100
N -17.264800 -48.619100 -18.067600
H -17.054600 -46.071100 -17.989600
O -16.914000 -49.608600 -17.437500
O -16.377400 -43.763200 -18.181600
C -16.329400 -46.438100 -18.481600
C -16.216600 -47.800100 -18.694000
H -16.150400 -50.208000 -19.701800
N -15.425600 -44.189400 -18.814000
C -15.343400 -45.637800 -19.015400
C -15.226800 -49.883600 -19.750500
C -15.193100 -48.419900 -19.424700
H -14.878200 -50.024900 -20.655200
H -14.674100 -50.374000 -19.106900
O -14.541800 -43.492800 -19.290800
C -14.273100 -46.151500 -19.717100
C -14.211500 -47.522100 -19.880400
H -13.602000 -45.583000 -20.075800
N -12.991400 -48.017700 -20.558100
O -12.655200 -49.175300 -20.379800
O -12.348100 -47.213700 -21.215200
40
Fragment
H -15.738300 -46.176300 -15.728400
H -15.025400 -47.312800 -14.856000
C -14.936900 -46.404400 -15.213000
H -14.833200 -45.771000 -14.472400
H -14.628000 -43.980600 -15.662500
H -14.364800 -48.674200 -16.038100
N -13.774700 -43.920900 -15.933100
C -13.724200 -46.332300 -16.110100
H -13.570400 -43.112800 -16.391500
N -13.539000 -48.760400 -16.241300
H -13.224900 -49.461300 -16.745000
C -13.214000 -45.071300 -16.466200
C -13.097900 -47.480600 -16.606900
C -12.099100 -44.971200 -17.303900
C -11.968600 -47.373700 -17.422100
H -11.763900 -44.118100 -17.552400
H -11.530800 -48.155500 -17.737400
C -11.489900 -46.118700 -17.766700
H -10.729500 -46.048000 -18.331700
O -18.424300 -48.251500 -18.174100
N -17.264800 -48.619100 -18.067600
H -17.054600 -46.071100 -17.989600
O -16.914000 -49.608600 -17.437500
O -16.377400 -43.763200 -18.181600
C -16.329400 -46.438100 -18.481600
C -16.216600 -47.800100 -18.694000
H -16.150400 -50.208000 -19.701800
N -15.425600 -44.189400 -18.814000
C -15.343400 -45.637800 -19.015400
C -15.226800 -49.883600 -19.750500
C -15.193100 -48.419900 -19.424700
H -14.878200 -50.024900 -20.655200
H -14.674100 -50.374000 -19.106900
O -14.541800 -43.492800 -19.290800
C -14.273100 -46.151500 -19.717100
C -14.211500 -47.522100 -19.880400
H -13.602000 -45.583000 -20.075800
N -12.991400 -48.017700 -20.558100
O -12.655200 -49.175300 -20.379800
O -12.348100 -47.213700 -21.215200
