19
Fragment
H -15.738300 -46.176300 -15.728400
H -15.025400 -47.312800 -14.856000
C -14.936900 -46.404400 -15.213000
H -14.833200 -45.771000 -14.472400
H -14.628000 -43.980600 -15.662500
H -14.364800 -48.674200 -16.038100
N -13.774700 -43.920900 -15.933100
C -13.724200 -46.332300 -16.110100
H -13.570400 -43.112800 -16.391500
N -13.539000 -48.760400 -16.241300
H -13.224900 -49.461300 -16.745000
C -13.214000 -45.071300 -16.466200
C -13.097900 -47.480600 -16.606900
C -12.099100 -44.971200 -17.303900
C -11.968600 -47.373700 -17.422100
H -11.763900 -44.118100 -17.552400
H -11.530800 -48.155500 -17.737400
C -11.489900 -46.118700 -17.766700
H -10.729500 -46.048000 -18.331700
19
Fragment
H -9.798200 -45.664000 -21.401800
H -9.345000 -46.742900 -20.309900
H -9.231900 -48.446400 -21.218400
C -9.059100 -45.964700 -20.832900
H -8.799500 -45.240800 -20.225200
N -8.346200 -48.722300 -21.442600
H -8.229400 -49.493000 -21.903200
H -8.132100 -43.813400 -21.627100
C -7.885100 -46.342400 -21.693200
C -7.584100 -47.683000 -21.992100
N -7.295700 -44.004300 -21.910500
C -7.058300 -45.343100 -22.229200
H -6.941800 -43.432800 -22.521800
C -6.472400 -48.001000 -22.770300
H -6.268000 -48.910300 -22.954800
C -5.945500 -45.677600 -23.014000
C -5.665300 -46.994800 -23.274000
H -5.387900 -44.993700 -23.364900
H -4.910100 -47.219100 -23.805500
38
Fragment
H -15.738300 -46.176300 -15.728400
H -15.025400 -47.312800 -14.856000
C -14.936900 -46.404400 -15.213000
H -14.833200 -45.771000 -14.472400
H -14.628000 -43.980600 -15.662500
H -14.364800 -48.674200 -16.038100
N -13.774700 -43.920900 -15.933100
C -13.724200 -46.332300 -16.110100
H -13.570400 -43.112800 -16.391500
N -13.539000 -48.760400 -16.241300
H -13.224900 -49.461300 -16.745000
C -13.214000 -45.071300 -16.466200
C -13.097900 -47.480600 -16.606900
C -12.099100 -44.971200 -17.303900
C -11.968600 -47.373700 -17.422100
H -11.763900 -44.118100 -17.552400
H -11.530800 -48.155500 -17.737400
C -11.489900 -46.118700 -17.766700
H -10.729500 -46.048000 -18.331700
H -9.798200 -45.664000 -21.401800
H -9.345000 -46.742900 -20.309900
H -9.231900 -48.446400 -21.218400
C -9.059100 -45.964700 -20.832900
H -8.799500 -45.240800 -20.225200
N -8.346200 -48.722300 -21.442600
H -8.229400 -49.493000 -21.903200
H -8.132100 -43.813400 -21.627100
C -7.885100 -46.342400 -21.693200
C -7.584100 -47.683000 -21.992100
N -7.295700 -44.004300 -21.910500
C -7.058300 -45.343100 -22.229200
H -6.941800 -43.432800 -22.521800
C -6.472400 -48.001000 -22.770300
H -6.268000 -48.910300 -22.954800
C -5.945500 -45.677600 -23.014000
C -5.665300 -46.994800 -23.274000
H -5.387900 -44.993700 -23.364900
H -4.910100 -47.219100 -23.805500
