40
Fragment
H -19.450000 -15.442100 -20.077200
O -18.922800 -16.073000 -20.519400
O -17.811200 -14.483800 -18.541500
H -17.708100 -14.763700 -21.336000
C -17.679800 -15.440400 -20.810300
H -17.400500 -13.856300 -17.898100
H -17.186900 -17.010900 -21.886000
C -16.956700 -15.039300 -19.531700
H -16.909700 -16.798900 -18.374100
C -16.718800 -16.462200 -21.352900
C -16.354700 -16.371500 -19.080800
H -16.297500 -14.517800 -19.654100
O -16.198600 -17.189000 -20.214700
H -15.896600 -15.976300 -21.854300
H -15.398600 -17.036300 -16.639300
N -15.069500 -16.179800 -18.394000
C -14.798000 -16.524100 -17.098800
C -13.948000 -15.512500 -18.845300
N -13.721300 -15.062200 -20.086300
N -13.622100 -16.132400 -16.677900
C -13.059700 -15.481900 -17.759900
C -12.479000 -14.611000 -20.214700
H -12.192000 -14.280300 -21.103300
O -11.998700 -14.120000 -15.356500
C -11.793800 -14.938400 -18.036800
N -11.521400 -14.534700 -19.276200
C -10.920100 -14.497400 -15.786700
N -10.754500 -14.860400 -17.111700
H -10.369000 -13.254200 -13.529400
H -9.995500 -14.619500 -17.538500
C -9.720500 -13.875000 -13.722900
C -9.703700 -14.571200 -14.928800
H -8.736600 -13.373000 -11.985000
H -8.667000 -15.840600 -16.110400
C -8.625800 -13.958100 -12.856600
C -8.593800 -15.360700 -15.259900
C -7.537700 -14.760300 -13.185600
C -7.525100 -15.448000 -14.376700
H -6.778400 -14.873900 -12.545600
H -6.637100 -16.052600 -14.576600
40
Fragment
H -22.883800 -20.292600 -17.157600
H -22.742500 -19.113900 -19.188600
C -21.995800 -19.688000 -17.357600
C -21.983200 -19.000300 -18.548700
C -20.927100 -19.600700 -16.474300
C -20.895100 -18.198100 -18.877600
H -20.853900 -20.080600 -15.623800
H -20.784300 -17.613000 -19.749300
C -19.817200 -18.811200 -16.805400
C -19.800400 -18.115000 -18.011300
H -19.525400 -18.859500 -14.195800
H -19.151900 -17.494200 -18.204900
N -18.766400 -19.100400 -14.622500
C -18.600800 -18.737400 -15.947500
N -17.999500 -18.774700 -12.458000
C -17.727100 -19.178400 -13.697500
O -17.522200 -18.360000 -16.377700
H -17.328900 -18.520300 -10.631000
C -17.041900 -18.851000 -11.519500
C -16.461200 -19.721900 -13.974400
N -15.898800 -20.372400 -15.056300
N -15.799600 -19.302200 -11.647900
C -15.572900 -19.752500 -12.889000
C -14.722900 -20.764100 -14.635400
N -14.451400 -20.419800 -13.340200
H -14.122300 -21.276300 -15.094900
H -13.624300 -20.216300 -9.879900
O -13.322300 -21.429000 -11.519500
H -13.223400 -18.757800 -12.080200
C -13.166200 -20.611500 -12.653400
C -12.802100 -20.702200 -10.381300
H -12.611200 -21.038900 -13.360100
C -12.564200 -19.279300 -12.202600
H -12.334000 -21.250900 -9.848200
H -12.120400 -18.096300 -13.836100
C -11.841100 -19.680400 -10.924000
H -11.812800 -19.003700 -10.398300
O -11.709700 -18.723800 -13.192800
O -10.598100 -20.313000 -11.214900
H -10.070900 -19.682100 -11.657000
80
Fragment
H -19.450000 -15.442100 -20.077200
O -18.922800 -16.073000 -20.519400
O -17.811200 -14.483800 -18.541500
H -17.708100 -14.763700 -21.336000
C -17.679800 -15.440400 -20.810300
H -17.400500 -13.856300 -17.898100
H -17.186900 -17.010900 -21.886000
C -16.956700 -15.039300 -19.531700
H -16.909700 -16.798900 -18.374100
C -16.718800 -16.462200 -21.352900
C -16.354700 -16.371500 -19.080800
H -16.297500 -14.517800 -19.654100
O -16.198600 -17.189000 -20.214700
H -15.896600 -15.976300 -21.854300
H -15.398600 -17.036300 -16.639300
N -15.069500 -16.179800 -18.394000
C -14.798000 -16.524100 -17.098800
C -13.948000 -15.512500 -18.845300
N -13.721300 -15.062200 -20.086300
N -13.622100 -16.132400 -16.677900
C -13.059700 -15.481900 -17.759900
C -12.479000 -14.611000 -20.214700
H -12.192000 -14.280300 -21.103300
O -11.998700 -14.120000 -15.356500
C -11.793800 -14.938400 -18.036800
N -11.521400 -14.534700 -19.276200
C -10.920100 -14.497400 -15.786700
N -10.754500 -14.860400 -17.111700
H -10.369000 -13.254200 -13.529400
H -9.995500 -14.619500 -17.538500
C -9.720500 -13.875000 -13.722900
C -9.703700 -14.571200 -14.928800
H -8.736600 -13.373000 -11.985000
H -8.667000 -15.840600 -16.110400
C -8.625800 -13.958100 -12.856600
C -8.593800 -15.360700 -15.259900
C -7.537700 -14.760300 -13.185600
C -7.525100 -15.448000 -14.376700
H -6.778400 -14.873900 -12.545600
H -6.637100 -16.052600 -14.576600
H -22.883800 -20.292600 -17.157600
H -22.742500 -19.113900 -19.188600
C -21.995800 -19.688000 -17.357600
C -21.983200 -19.000300 -18.548700
C -20.927100 -19.600700 -16.474300
C -20.895100 -18.198100 -18.877600
H -20.853900 -20.080600 -15.623800
H -20.784300 -17.613000 -19.749300
C -19.817200 -18.811200 -16.805400
C -19.800400 -18.115000 -18.011300
H -19.525400 -18.859500 -14.195800
H -19.151900 -17.494200 -18.204900
N -18.766400 -19.100400 -14.622500
C -18.600800 -18.737400 -15.947500
N -17.999500 -18.774700 -12.458000
C -17.727100 -19.178400 -13.697500
O -17.522200 -18.360000 -16.377700
H -17.328900 -18.520300 -10.631000
C -17.041900 -18.851000 -11.519500
C -16.461200 -19.721900 -13.974400
N -15.898800 -20.372400 -15.056300
N -15.799600 -19.302200 -11.647900
C -15.572900 -19.752500 -12.889000
C -14.722900 -20.764100 -14.635400
N -14.451400 -20.419800 -13.340200
H -14.122300 -21.276300 -15.094900
H -13.624300 -20.216300 -9.879900
O -13.322300 -21.429000 -11.519500
H -13.223400 -18.757800 -12.080200
C -13.166200 -20.611500 -12.653400
C -12.802100 -20.702200 -10.381300
H -12.611200 -21.038900 -13.360100
C -12.564200 -19.279300 -12.202600
H -12.334000 -21.250900 -9.848200
H -12.120400 -18.096300 -13.836100
C -11.841100 -19.680400 -10.924000
H -11.812800 -19.003700 -10.398300
O -11.709700 -18.723800 -13.192800
O -10.598100 -20.313000 -11.214900
H -10.070900 -19.682100 -11.657000
