40
Fragment
H -19.450000 -15.442100 -20.077200
O -18.922800 -16.073000 -20.519400
O -17.811200 -14.483800 -18.541500
H -17.708100 -14.763700 -21.336000
C -17.679800 -15.440400 -20.810300
H -17.400500 -13.856300 -17.898100
H -17.186900 -17.010900 -21.886000
C -16.956700 -15.039300 -19.531700
H -16.909700 -16.798900 -18.374100
C -16.718800 -16.462200 -21.352900
C -16.354700 -16.371500 -19.080800
H -16.297500 -14.517800 -19.654100
O -16.198600 -17.189000 -20.214700
H -15.896600 -15.976300 -21.854300
H -15.398600 -17.036300 -16.639300
N -15.069500 -16.179800 -18.394000
C -14.798000 -16.524100 -17.098800
C -13.948000 -15.512500 -18.845300
N -13.721300 -15.062200 -20.086300
N -13.622100 -16.132400 -16.677900
C -13.059700 -15.481900 -17.759900
C -12.479000 -14.611000 -20.214700
H -12.192000 -14.280300 -21.103300
O -11.998700 -14.120000 -15.356500
C -11.793800 -14.938400 -18.036800
N -11.521400 -14.534700 -19.276200
C -10.920100 -14.497400 -15.786700
N -10.754500 -14.860400 -17.111700
H -10.369000 -13.254200 -13.529400
H -9.995500 -14.619500 -17.538500
C -9.720500 -13.875000 -13.722900
C -9.703700 -14.571200 -14.928800
H -8.736600 -13.373000 -11.985000
H -8.667000 -15.840600 -16.110400
C -8.625800 -13.958100 -12.856600
C -8.593800 -15.360700 -15.259900
C -7.537700 -14.760300 -13.185600
C -7.525100 -15.448000 -14.376700
H -6.778400 -14.873900 -12.545600
H -6.637100 -16.052600 -14.576600
40
Fragment
H -13.259800 -11.812600 -17.157600
H -13.118500 -10.633900 -19.188600
C -12.371800 -11.208000 -17.357600
C -12.359200 -10.520300 -18.548700
C -11.303100 -11.120700 -16.474300
C -11.271100 -9.718100 -18.877600
H -11.229900 -11.600600 -15.623800
H -11.160300 -9.133000 -19.749300
C -10.193200 -10.331200 -16.805400
C -10.176400 -9.635000 -18.011300
H -9.901400 -10.379500 -14.195800
H -9.527900 -9.014200 -18.204900
N -9.142400 -10.620400 -14.622500
C -8.976800 -10.257400 -15.947500
N -8.375500 -10.294700 -12.458000
C -8.103100 -10.698400 -13.697500
O -7.898200 -9.880000 -16.377700
H -7.704900 -10.040300 -10.631000
C -7.417900 -10.371000 -11.519500
C -6.837200 -11.241900 -13.974400
N -6.274800 -11.892400 -15.056300
N -6.175600 -10.822200 -11.647900
C -5.948900 -11.272500 -12.889000
C -5.098900 -12.284100 -14.635400
N -4.827400 -11.939800 -13.340200
H -4.498300 -12.796300 -15.094900
H -4.000300 -11.736300 -9.879900
O -3.698300 -12.949000 -11.519500
H -3.599400 -10.277800 -12.080200
C -3.542200 -12.131500 -12.653400
C -3.178100 -12.222200 -10.381300
H -2.987200 -12.558900 -13.360100
C -2.940200 -10.799300 -12.202600
H -2.710000 -12.770900 -9.848200
H -2.496400 -9.616300 -13.836100
C -2.217100 -11.200400 -10.924000
H -2.188800 -10.523700 -10.398300
O -2.085700 -10.243800 -13.192800
O -0.974100 -11.833000 -11.214900
H -0.446900 -11.202100 -11.657000
80
Fragment
H -19.450000 -15.442100 -20.077200
O -18.922800 -16.073000 -20.519400
O -17.811200 -14.483800 -18.541500
H -17.708100 -14.763700 -21.336000
C -17.679800 -15.440400 -20.810300
H -17.400500 -13.856300 -17.898100
H -17.186900 -17.010900 -21.886000
C -16.956700 -15.039300 -19.531700
H -16.909700 -16.798900 -18.374100
C -16.718800 -16.462200 -21.352900
C -16.354700 -16.371500 -19.080800
H -16.297500 -14.517800 -19.654100
O -16.198600 -17.189000 -20.214700
H -15.896600 -15.976300 -21.854300
H -15.398600 -17.036300 -16.639300
N -15.069500 -16.179800 -18.394000
C -14.798000 -16.524100 -17.098800
C -13.948000 -15.512500 -18.845300
N -13.721300 -15.062200 -20.086300
N -13.622100 -16.132400 -16.677900
C -13.059700 -15.481900 -17.759900
C -12.479000 -14.611000 -20.214700
H -12.192000 -14.280300 -21.103300
O -11.998700 -14.120000 -15.356500
C -11.793800 -14.938400 -18.036800
N -11.521400 -14.534700 -19.276200
C -10.920100 -14.497400 -15.786700
N -10.754500 -14.860400 -17.111700
H -10.369000 -13.254200 -13.529400
H -9.995500 -14.619500 -17.538500
C -9.720500 -13.875000 -13.722900
C -9.703700 -14.571200 -14.928800
H -8.736600 -13.373000 -11.985000
H -8.667000 -15.840600 -16.110400
C -8.625800 -13.958100 -12.856600
C -8.593800 -15.360700 -15.259900
C -7.537700 -14.760300 -13.185600
C -7.525100 -15.448000 -14.376700
H -6.778400 -14.873900 -12.545600
H -6.637100 -16.052600 -14.576600
H -13.259800 -11.812600 -17.157600
H -13.118500 -10.633900 -19.188600
C -12.371800 -11.208000 -17.357600
C -12.359200 -10.520300 -18.548700
C -11.303100 -11.120700 -16.474300
C -11.271100 -9.718100 -18.877600
H -11.229900 -11.600600 -15.623800
H -11.160300 -9.133000 -19.749300
C -10.193200 -10.331200 -16.805400
C -10.176400 -9.635000 -18.011300
H -9.901400 -10.379500 -14.195800
H -9.527900 -9.014200 -18.204900
N -9.142400 -10.620400 -14.622500
C -8.976800 -10.257400 -15.947500
N -8.375500 -10.294700 -12.458000
C -8.103100 -10.698400 -13.697500
O -7.898200 -9.880000 -16.377700
H -7.704900 -10.040300 -10.631000
C -7.417900 -10.371000 -11.519500
C -6.837200 -11.241900 -13.974400
N -6.274800 -11.892400 -15.056300
N -6.175600 -10.822200 -11.647900
C -5.948900 -11.272500 -12.889000
C -5.098900 -12.284100 -14.635400
N -4.827400 -11.939800 -13.340200
H -4.498300 -12.796300 -15.094900
H -4.000300 -11.736300 -9.879900
O -3.698300 -12.949000 -11.519500
H -3.599400 -10.277800 -12.080200
C -3.542200 -12.131500 -12.653400
C -3.178100 -12.222200 -10.381300
H -2.987200 -12.558900 -13.360100
C -2.940200 -10.799300 -12.202600
H -2.710000 -12.770900 -9.848200
H -2.496400 -9.616300 -13.836100
C -2.217100 -11.200400 -10.924000
H -2.188800 -10.523700 -10.398300
O -2.085700 -10.243800 -13.192800
O -0.974100 -11.833000 -11.214900
H -0.446900 -11.202100 -11.657000
