20
Fragment
H -2.667700 -8.953800 -11.017600
H -2.601500 -8.506600 -13.255100
C -2.352800 -8.111500 -11.324000
C -2.320300 -7.833000 -12.646800
N -1.912500 -7.381400 -9.081600
C -1.908200 -7.121800 -10.390000
H -1.907400 -6.505600 -14.025300
N -1.904500 -6.636100 -13.155000
C -1.485500 -5.644800 -12.324600
C -1.468800 -5.877500 -10.929200
C -1.451100 -6.379000 -8.276100
H -1.434100 -6.551400 -7.342300
H -1.095800 -4.176700 -13.720600
C -1.081000 -4.388000 -12.794300
C -1.010600 -5.154000 -8.686100
C -1.008600 -4.851000 -10.067800
H -0.709400 -4.513400 -8.052200
C -0.658600 -3.469600 -11.853400
N -0.589100 -3.644300 -10.522300
H -0.388700 -2.620100 -12.183200
20
Fragment
H -2.232400 -1.312800 -10.505700
N -2.032000 -0.288700 -12.166500
C -1.962600 -0.463400 -10.835500
H -1.911700 0.580400 -14.636700
C -1.612600 0.918000 -12.621100
C -1.610600 1.221000 -14.002800
C -1.540200 0.455000 -9.894600
H -1.525300 0.243800 -8.968200
H -1.187100 2.618400 -15.346600
C -1.170100 2.446000 -14.412700
C -1.152300 1.944600 -11.759600
C -1.135700 1.711800 -10.364300
N -0.716700 2.703100 -9.533900
H -0.713700 2.572600 -8.663600
C -0.712900 3.188800 -12.298900
N -0.708600 3.448400 -13.607300
C -0.300900 3.900000 -10.042100
C -0.268400 4.178500 -11.364900
H -0.019600 4.573600 -9.433800
H 0.046500 5.020900 -11.671200
40
Fragment
H -2.667700 -8.953800 -11.017600
H -2.601500 -8.506600 -13.255100
C -2.352800 -8.111500 -11.324000
C -2.320300 -7.833000 -12.646800
N -1.912500 -7.381400 -9.081600
C -1.908200 -7.121800 -10.390000
H -1.907400 -6.505600 -14.025300
N -1.904500 -6.636100 -13.155000
C -1.485500 -5.644800 -12.324600
C -1.468800 -5.877500 -10.929200
C -1.451100 -6.379000 -8.276100
H -1.434100 -6.551400 -7.342300
H -1.095800 -4.176700 -13.720600
C -1.081000 -4.388000 -12.794300
C -1.010600 -5.154000 -8.686100
C -1.008600 -4.851000 -10.067800
H -0.709400 -4.513400 -8.052200
C -0.658600 -3.469600 -11.853400
N -0.589100 -3.644300 -10.522300
H -0.388700 -2.620100 -12.183200
H -2.232400 -1.312800 -10.505700
N -2.032000 -0.288700 -12.166500
C -1.962600 -0.463400 -10.835500
H -1.911700 0.580400 -14.636700
C -1.612600 0.918000 -12.621100
C -1.610600 1.221000 -14.002800
C -1.540200 0.455000 -9.894600
H -1.525300 0.243800 -8.968200
H -1.187100 2.618400 -15.346600
C -1.170100 2.446000 -14.412700
C -1.152300 1.944600 -11.759600
C -1.135700 1.711800 -10.364300
N -0.716700 2.703100 -9.533900
H -0.713700 2.572600 -8.663600
C -0.712900 3.188800 -12.298900
N -0.708600 3.448400 -13.607300
C -0.300900 3.900000 -10.042100
C -0.268400 4.178500 -11.364900
H -0.019600 4.573600 -9.433800
H 0.046500 5.020900 -11.671200
