20
Fragment
H -2.667700 -8.953800 -11.017600
H -2.601500 -8.506600 -13.255100
C -2.352800 -8.111500 -11.324000
C -2.320300 -7.833000 -12.646800
N -1.912500 -7.381400 -9.081600
C -1.908200 -7.121800 -10.390000
H -1.907400 -6.505600 -14.025300
N -1.904500 -6.636100 -13.155000
C -1.485500 -5.644800 -12.324600
C -1.468800 -5.877500 -10.929200
C -1.451100 -6.379000 -8.276100
H -1.434100 -6.551400 -7.342300
H -1.095800 -4.176700 -13.720600
C -1.081000 -4.388000 -12.794300
C -1.010600 -5.154000 -8.686100
C -1.008600 -4.851000 -10.067800
H -0.709400 -4.513400 -8.052200
C -0.658600 -3.469600 -11.853400
N -0.589100 -3.644300 -10.522300
H -0.388700 -2.620100 -12.183200
20
Fragment
H -0.960100 -5.119800 -18.580600
H -0.894000 -4.672600 -20.818000
C -0.645200 -4.277500 -18.887000
C -0.612700 -3.999000 -20.209700
N -0.204900 -3.547400 -16.644600
C -0.200700 -3.287700 -17.953000
H -0.199800 -2.671500 -21.588200
N -0.196900 -2.802100 -20.718000
C 0.222100 -1.810800 -19.887600
C 0.238800 -2.043500 -18.492200
C 0.256500 -2.545000 -15.839100
H 0.273500 -2.717400 -14.905200
H 0.611700 -0.342700 -21.283600
C 0.626600 -0.553900 -20.357200
C 0.697000 -1.320000 -16.249000
C 0.699000 -1.017000 -17.630800
H 0.998100 -0.679400 -15.615200
C 1.049000 0.364400 -19.416400
N 1.118400 0.189700 -18.085300
H 1.318900 1.213900 -19.746100
40
Fragment
H -2.667700 -8.953800 -11.017600
H -2.601500 -8.506600 -13.255100
C -2.352800 -8.111500 -11.324000
C -2.320300 -7.833000 -12.646800
N -1.912500 -7.381400 -9.081600
C -1.908200 -7.121800 -10.390000
H -1.907400 -6.505600 -14.025300
N -1.904500 -6.636100 -13.155000
C -1.485500 -5.644800 -12.324600
C -1.468800 -5.877500 -10.929200
C -1.451100 -6.379000 -8.276100
H -1.434100 -6.551400 -7.342300
H -1.095800 -4.176700 -13.720600
C -1.081000 -4.388000 -12.794300
C -1.010600 -5.154000 -8.686100
C -1.008600 -4.851000 -10.067800
H -0.709400 -4.513400 -8.052200
C -0.658600 -3.469600 -11.853400
N -0.589100 -3.644300 -10.522300
H -0.388700 -2.620100 -12.183200
H -0.960100 -5.119800 -18.580600
H -0.894000 -4.672600 -20.818000
C -0.645200 -4.277500 -18.887000
C -0.612700 -3.999000 -20.209700
N -0.204900 -3.547400 -16.644600
C -0.200700 -3.287700 -17.953000
H -0.199800 -2.671500 -21.588200
N -0.196900 -2.802100 -20.718000
C 0.222100 -1.810800 -19.887600
C 0.238800 -2.043500 -18.492200
C 0.256500 -2.545000 -15.839100
H 0.273500 -2.717400 -14.905200
H 0.611700 -0.342700 -21.283600
C 0.626600 -0.553900 -20.357200
C 0.697000 -1.320000 -16.249000
C 0.699000 -1.017000 -17.630800
H 0.998100 -0.679400 -15.615200
C 1.049000 0.364400 -19.416400
N 1.118400 0.189700 -18.085300
H 1.318900 1.213900 -19.746100
