20
Fragment
H -2.667700 -8.953800 -11.017600
H -2.601500 -8.506600 -13.255100
C -2.352800 -8.111500 -11.324000
C -2.320300 -7.833000 -12.646800
N -1.912500 -7.381400 -9.081600
C -1.908200 -7.121800 -10.390000
H -1.907400 -6.505600 -14.025300
N -1.904500 -6.636100 -13.155000
C -1.485500 -5.644800 -12.324600
C -1.468800 -5.877500 -10.929200
C -1.451100 -6.379000 -8.276100
H -1.434100 -6.551400 -7.342300
H -1.095800 -4.176700 -13.720600
C -1.081000 -4.388000 -12.794300
C -1.010600 -5.154000 -8.686100
C -1.008600 -4.851000 -10.067800
H -0.709400 -4.513400 -8.052200
C -0.658600 -3.469600 -11.853400
N -0.589100 -3.644300 -10.522300
H -0.388700 -2.620100 -12.183200
20
Fragment
H -0.722900 -12.864400 -2.942700
N -0.522500 -11.840200 -4.603600
C -0.453000 -12.014900 -3.272500
H -0.402200 -10.971100 -7.073700
C -0.103100 -10.633500 -5.058100
C -0.101100 -10.330500 -6.439900
C -0.030600 -11.096500 -2.331700
H -0.015800 -11.307800 -1.405300
H 0.322500 -8.933100 -7.783600
C 0.339500 -9.105500 -6.849800
C 0.357200 -9.607000 -4.196700
C 0.373800 -9.839700 -2.801300
N 0.792800 -8.848400 -1.970900
H 0.795800 -8.979000 -1.100600
C 0.796600 -8.362800 -4.735900
N 0.800900 -8.103100 -6.044300
C 1.208600 -7.651500 -2.479100
C 1.241100 -7.373000 -3.801900
H 1.489900 -6.977900 -1.870800
H 1.556000 -6.530700 -4.108300
40
Fragment
H -2.667700 -8.953800 -11.017600
H -2.601500 -8.506600 -13.255100
C -2.352800 -8.111500 -11.324000
C -2.320300 -7.833000 -12.646800
N -1.912500 -7.381400 -9.081600
C -1.908200 -7.121800 -10.390000
H -1.907400 -6.505600 -14.025300
N -1.904500 -6.636100 -13.155000
C -1.485500 -5.644800 -12.324600
C -1.468800 -5.877500 -10.929200
C -1.451100 -6.379000 -8.276100
H -1.434100 -6.551400 -7.342300
H -1.095800 -4.176700 -13.720600
C -1.081000 -4.388000 -12.794300
C -1.010600 -5.154000 -8.686100
C -1.008600 -4.851000 -10.067800
H -0.709400 -4.513400 -8.052200
C -0.658600 -3.469600 -11.853400
N -0.589100 -3.644300 -10.522300
H -0.388700 -2.620100 -12.183200
H -0.722900 -12.864400 -2.942700
N -0.522500 -11.840200 -4.603600
C -0.453000 -12.014900 -3.272500
H -0.402200 -10.971100 -7.073700
C -0.103100 -10.633500 -5.058100
C -0.101100 -10.330500 -6.439900
C -0.030600 -11.096500 -2.331700
H -0.015800 -11.307800 -1.405300
H 0.322500 -8.933100 -7.783600
C 0.339500 -9.105500 -6.849800
C 0.357200 -9.607000 -4.196700
C 0.373800 -9.839700 -2.801300
N 0.792800 -8.848400 -1.970900
H 0.795800 -8.979000 -1.100600
C 0.796600 -8.362800 -4.735900
N 0.800900 -8.103100 -6.044300
C 1.208600 -7.651500 -2.479100
C 1.241100 -7.373000 -3.801900
H 1.489900 -6.977900 -1.870800
H 1.556000 -6.530700 -4.108300
