18
Fragment
O -32.426400 -4.195600 -25.504500
O -32.314400 -5.403700 -27.326200
N -31.870000 -4.993800 -26.246200
C -30.563900 -5.475800 -25.896700
N -30.094400 -5.347800 -24.653700
H -29.784100 -6.346800 -27.640800
C -29.657700 -6.134600 -26.723700
H -29.434000 -6.931500 -22.419200
N -28.898400 -5.925200 -24.770700
N -28.589300 -6.717800 -22.548900
N -28.566100 -6.417900 -25.983700
C -28.086900 -6.167700 -23.644800
N -27.580700 -6.893400 -21.661700
C -26.730600 -6.020500 -23.428100
N -26.431100 -6.484200 -22.201000
O -26.093000 -4.891100 -25.313100
N -25.731700 -5.383800 -24.247300
O -24.586000 -5.341500 -23.801400
9
Fragment
H -27.050400 -4.378600 -27.563300
N -26.749900 -3.801400 -29.552800
C -26.448500 -4.059000 -28.226100
C -25.644800 -3.370900 -30.137900
H -25.568800 -3.118000 -31.049900
C -25.136600 -3.772000 -28.048900
N -24.663300 -3.348800 -29.257100
H -24.643400 -3.852300 -27.241200
H -23.836100 -3.096900 -29.421400
27
Fragment
O -32.426400 -4.195600 -25.504500
O -32.314400 -5.403700 -27.326200
N -31.870000 -4.993800 -26.246200
C -30.563900 -5.475800 -25.896700
N -30.094400 -5.347800 -24.653700
H -29.784100 -6.346800 -27.640800
C -29.657700 -6.134600 -26.723700
H -29.434000 -6.931500 -22.419200
N -28.898400 -5.925200 -24.770700
N -28.589300 -6.717800 -22.548900
N -28.566100 -6.417900 -25.983700
C -28.086900 -6.167700 -23.644800
N -27.580700 -6.893400 -21.661700
C -26.730600 -6.020500 -23.428100
N -26.431100 -6.484200 -22.201000
O -26.093000 -4.891100 -25.313100
N -25.731700 -5.383800 -24.247300
O -24.586000 -5.341500 -23.801400
H -27.050400 -4.378600 -27.563300
N -26.749900 -3.801400 -29.552800
C -26.448500 -4.059000 -28.226100
C -25.644800 -3.370900 -30.137900
H -25.568800 -3.118000 -31.049900
C -25.136600 -3.772000 -28.048900
N -24.663300 -3.348800 -29.257100
H -24.643400 -3.852300 -27.241200
H -23.836100 -3.096900 -29.421400
