18
Fragment
O -32.426400 -4.195600 -25.504500
O -32.314400 -5.403700 -27.326200
N -31.870000 -4.993800 -26.246200
C -30.563900 -5.475800 -25.896700
N -30.094400 -5.347800 -24.653700
H -29.784100 -6.346800 -27.640800
C -29.657700 -6.134600 -26.723700
H -29.434000 -6.931500 -22.419200
N -28.898400 -5.925200 -24.770700
N -28.589300 -6.717800 -22.548900
N -28.566100 -6.417900 -25.983700
C -28.086900 -6.167700 -23.644800
N -27.580700 -6.893400 -21.661700
C -26.730600 -6.020500 -23.428100
N -26.431100 -6.484200 -22.201000
O -26.093000 -4.891100 -25.313100
N -25.731700 -5.383800 -24.247300
O -24.586000 -5.341500 -23.801400
18
Fragment
O -42.086900 -6.844400 -25.504500
O -41.974900 -5.636300 -27.326200
N -41.530500 -6.046200 -26.246200
C -40.224400 -5.564200 -25.896700
N -39.754900 -5.692200 -24.653700
H -39.444600 -4.693200 -27.640800
C -39.318200 -4.905400 -26.723700
H -39.094500 -4.108500 -22.419200
N -38.558900 -5.114800 -24.770700
N -38.249800 -4.322200 -22.548900
N -38.226600 -4.622100 -25.983700
C -37.747400 -4.872300 -23.644800
N -37.241200 -4.146600 -21.661700
C -36.391100 -5.019500 -23.428100
N -36.091600 -4.555800 -22.201000
O -35.753500 -6.148900 -25.313100
N -35.392200 -5.656200 -24.247300
O -34.246500 -5.698500 -23.801400
36
Fragment
O -32.426400 -4.195600 -25.504500
O -32.314400 -5.403700 -27.326200
N -31.870000 -4.993800 -26.246200
C -30.563900 -5.475800 -25.896700
N -30.094400 -5.347800 -24.653700
H -29.784100 -6.346800 -27.640800
C -29.657700 -6.134600 -26.723700
H -29.434000 -6.931500 -22.419200
N -28.898400 -5.925200 -24.770700
N -28.589300 -6.717800 -22.548900
N -28.566100 -6.417900 -25.983700
C -28.086900 -6.167700 -23.644800
N -27.580700 -6.893400 -21.661700
C -26.730600 -6.020500 -23.428100
N -26.431100 -6.484200 -22.201000
O -26.093000 -4.891100 -25.313100
N -25.731700 -5.383800 -24.247300
O -24.586000 -5.341500 -23.801400
O -42.086900 -6.844400 -25.504500
O -41.974900 -5.636300 -27.326200
N -41.530500 -6.046200 -26.246200
C -40.224400 -5.564200 -25.896700
N -39.754900 -5.692200 -24.653700
H -39.444600 -4.693200 -27.640800
C -39.318200 -4.905400 -26.723700
H -39.094500 -4.108500 -22.419200
N -38.558900 -5.114800 -24.770700
N -38.249800 -4.322200 -22.548900
N -38.226600 -4.622100 -25.983700
C -37.747400 -4.872300 -23.644800
N -37.241200 -4.146600 -21.661700
C -36.391100 -5.019500 -23.428100
N -36.091600 -4.555800 -22.201000
O -35.753500 -6.148900 -25.313100
N -35.392200 -5.656200 -24.247300
O -34.246500 -5.698500 -23.801400
