10
Fragment
H -11.920800 -9.608900 -17.259100
C -11.027100 -9.412400 -17.003900
H -10.710700 -8.092900 -18.504300
N -10.509400 -10.021600 -15.937900
C -10.300900 -8.501000 -17.750400
C -9.251100 -9.698600 -15.632800
N -9.042500 -8.178000 -17.445300
H -8.841200 -10.106700 -14.878900
C -8.524800 -8.787200 -16.379400
H -7.631100 -8.590700 -16.124100
10
Fragment
H -11.920800 -5.059000 -17.259100
C -11.027100 -4.862500 -17.003900
H -10.710700 -3.543000 -18.504300
N -10.509400 -5.471700 -15.937900
C -10.300900 -3.951100 -17.750400
C -9.251100 -5.148700 -15.632800
N -9.042500 -3.628100 -17.445300
H -8.841200 -5.556800 -14.878900
C -8.524800 -4.237300 -16.379400
H -7.631100 -4.040800 -16.124100
20
Fragment
H -11.920800 -9.608900 -17.259100
C -11.027100 -9.412400 -17.003900
H -10.710700 -8.092900 -18.504300
N -10.509400 -10.021600 -15.937900
C -10.300900 -8.501000 -17.750400
C -9.251100 -9.698600 -15.632800
N -9.042500 -8.178000 -17.445300
H -8.841200 -10.106700 -14.878900
C -8.524800 -8.787200 -16.379400
H -7.631100 -8.590700 -16.124100
H -11.920800 -5.059000 -17.259100
C -11.027100 -4.862500 -17.003900
H -10.710700 -3.543000 -18.504300
N -10.509400 -5.471700 -15.937900
C -10.300900 -3.951100 -17.750400
C -9.251100 -5.148700 -15.632800
N -9.042500 -3.628100 -17.445300
H -8.841200 -5.556800 -14.878900
C -8.524800 -4.237300 -16.379400
H -7.631100 -4.040800 -16.124100
