10
Fragment
H -11.920800 -9.608900 -17.259100
C -11.027100 -9.412400 -17.003900
H -10.710700 -8.092900 -18.504300
N -10.509400 -10.021600 -15.937900
C -10.300900 -8.501000 -17.750400
C -9.251100 -9.698600 -15.632800
N -9.042500 -8.178000 -17.445300
H -8.841200 -10.106700 -14.878900
C -8.524800 -8.787200 -16.379400
H -7.631100 -8.590700 -16.124100
8
Fragment
H -14.723000 -11.315600 -18.381900
N -14.096300 -10.831000 -18.796200
H -14.073400 -9.946100 -18.839300
O -13.168400 -12.782000 -19.473500
C -13.168400 -11.535800 -19.473500
H -12.263400 -9.946100 -20.107800
N -12.240500 -10.831000 -20.150900
H -11.613700 -11.315600 -20.565200
18
Fragment
H -11.920800 -9.608900 -17.259100
C -11.027100 -9.412400 -17.003900
H -10.710700 -8.092900 -18.504300
N -10.509400 -10.021600 -15.937900
C -10.300900 -8.501000 -17.750400
C -9.251100 -9.698600 -15.632800
N -9.042500 -8.178000 -17.445300
H -8.841200 -10.106700 -14.878900
C -8.524800 -8.787200 -16.379400
H -7.631100 -8.590700 -16.124100
H -14.723000 -11.315600 -18.381900
N -14.096300 -10.831000 -18.796200
H -14.073400 -9.946100 -18.839300
O -13.168400 -12.782000 -19.473500
C -13.168400 -11.535800 -19.473500
H -12.263400 -9.946100 -20.107800
N -12.240500 -10.831000 -20.150900
H -11.613700 -11.315600 -20.565200
