18
Fragment
H -10.164900 -15.708800 -26.591500
O -10.006600 -14.041100 -25.041300
O -9.520900 -15.927600 -26.133900
C -9.377400 -15.077100 -25.147900
H -9.128500 -14.414600 -22.628100
C -8.451600 -15.012400 -22.847700
C -8.357700 -15.506300 -24.138500
H -7.612200 -15.072800 -21.023200
C -7.541800 -15.406700 -21.888100
C -7.345900 -16.390300 -24.449300
H -7.275400 -16.724200 -25.314100
C -6.530000 -16.290700 -22.198800
C -6.436000 -16.784600 -23.489600
H -5.759100 -17.382400 -23.709300
C -5.510300 -16.719900 -21.189400
O -5.366800 -15.869400 -20.203400
O -4.881100 -17.755900 -21.296000
H -4.722700 -16.088200 -19.745900
18
Fragment
H -4.886900 -15.708800 -26.591500
O -4.728600 -14.041100 -25.041300
O -4.242900 -15.927600 -26.133900
C -4.099400 -15.077100 -25.147900
H -3.850500 -14.414600 -22.628100
C -3.173600 -15.012400 -22.847700
C -3.079700 -15.506300 -24.138500
H -2.334200 -15.072800 -21.023200
C -2.263800 -15.406700 -21.888100
C -2.067900 -16.390300 -24.449300
H -1.997400 -16.724200 -25.314100
C -1.252000 -16.290700 -22.198800
C -1.158000 -16.784600 -23.489600
H -0.481100 -17.382400 -23.709300
C -0.232300 -16.719900 -21.189400
O -0.088800 -15.869400 -20.203400
O 0.396900 -17.755900 -21.296000
H 0.555300 -16.088200 -19.745900
36
Fragment
H -10.164900 -15.708800 -26.591500
O -10.006600 -14.041100 -25.041300
O -9.520900 -15.927600 -26.133900
C -9.377400 -15.077100 -25.147900
H -9.128500 -14.414600 -22.628100
C -8.451600 -15.012400 -22.847700
C -8.357700 -15.506300 -24.138500
H -7.612200 -15.072800 -21.023200
C -7.541800 -15.406700 -21.888100
C -7.345900 -16.390300 -24.449300
H -7.275400 -16.724200 -25.314100
C -6.530000 -16.290700 -22.198800
C -6.436000 -16.784600 -23.489600
H -5.759100 -17.382400 -23.709300
C -5.510300 -16.719900 -21.189400
O -5.366800 -15.869400 -20.203400
O -4.881100 -17.755900 -21.296000
H -4.722700 -16.088200 -19.745900
H -4.886900 -15.708800 -26.591500
O -4.728600 -14.041100 -25.041300
O -4.242900 -15.927600 -26.133900
C -4.099400 -15.077100 -25.147900
H -3.850500 -14.414600 -22.628100
C -3.173600 -15.012400 -22.847700
C -3.079700 -15.506300 -24.138500
H -2.334200 -15.072800 -21.023200
C -2.263800 -15.406700 -21.888100
C -2.067900 -16.390300 -24.449300
H -1.997400 -16.724200 -25.314100
C -1.252000 -16.290700 -22.198800
C -1.158000 -16.784600 -23.489600
H -0.481100 -17.382400 -23.709300
C -0.232300 -16.719900 -21.189400
O -0.088800 -15.869400 -20.203400
O 0.396900 -17.755900 -21.296000
H 0.555300 -16.088200 -19.745900
