18
Fragment
H -10.164900 -15.708800 -26.591500
O -10.006600 -14.041100 -25.041300
O -9.520900 -15.927600 -26.133900
C -9.377400 -15.077100 -25.147900
H -9.128500 -14.414600 -22.628100
C -8.451600 -15.012400 -22.847700
C -8.357700 -15.506300 -24.138500
H -7.612200 -15.072800 -21.023200
C -7.541800 -15.406700 -21.888100
C -7.345900 -16.390300 -24.449300
H -7.275400 -16.724200 -25.314100
C -6.530000 -16.290700 -22.198800
C -6.436000 -16.784600 -23.489600
H -5.759100 -17.382400 -23.709300
C -5.510300 -16.719900 -21.189400
O -5.366800 -15.869400 -20.203400
O -4.881100 -17.755900 -21.296000
H -4.722700 -16.088200 -19.745900
26
Fragment
N -16.366100 -9.975800 -26.433900
H -16.201600 -8.008600 -26.968300
C -15.867500 -8.706000 -26.451500
H -15.731300 -11.540200 -25.392900
C -15.619000 -10.639300 -25.594700
C -14.821600 -8.610900 -25.612200
N -14.662500 -9.854300 -25.055800
H -14.308900 -7.853900 -25.442300
C -13.676100 -10.239700 -24.098000
H -13.613700 -12.183600 -24.594300
H -13.448900 -8.416700 -23.281400
C -13.253800 -11.543400 -24.024200
C -13.152700 -9.297400 -23.238300
C -12.291000 -11.900600 -23.099000
C -12.189900 -9.654600 -22.313100
H -11.994700 -12.781300 -23.055900
H -11.829900 -9.014400 -21.743000
C -11.767500 -10.958300 -22.239300
H -11.134700 -13.344100 -20.895000
N -10.781100 -11.343700 -21.281500
C -10.622000 -12.587100 -20.725100
C -9.824700 -10.558700 -20.742600
H -9.712300 -9.657800 -20.944500
C -9.576100 -12.492000 -19.885800
H -9.242100 -13.189400 -19.369000
N -9.077500 -11.222200 -19.903400
44
Fragment
H -10.164900 -15.708800 -26.591500
O -10.006600 -14.041100 -25.041300
O -9.520900 -15.927600 -26.133900
C -9.377400 -15.077100 -25.147900
H -9.128500 -14.414600 -22.628100
C -8.451600 -15.012400 -22.847700
C -8.357700 -15.506300 -24.138500
H -7.612200 -15.072800 -21.023200
C -7.541800 -15.406700 -21.888100
C -7.345900 -16.390300 -24.449300
H -7.275400 -16.724200 -25.314100
C -6.530000 -16.290700 -22.198800
C -6.436000 -16.784600 -23.489600
H -5.759100 -17.382400 -23.709300
C -5.510300 -16.719900 -21.189400
O -5.366800 -15.869400 -20.203400
O -4.881100 -17.755900 -21.296000
H -4.722700 -16.088200 -19.745900
N -16.366100 -9.975800 -26.433900
H -16.201600 -8.008600 -26.968300
C -15.867500 -8.706000 -26.451500
H -15.731300 -11.540200 -25.392900
C -15.619000 -10.639300 -25.594700
C -14.821600 -8.610900 -25.612200
N -14.662500 -9.854300 -25.055800
H -14.308900 -7.853900 -25.442300
C -13.676100 -10.239700 -24.098000
H -13.613700 -12.183600 -24.594300
H -13.448900 -8.416700 -23.281400
C -13.253800 -11.543400 -24.024200
C -13.152700 -9.297400 -23.238300
C -12.291000 -11.900600 -23.099000
C -12.189900 -9.654600 -22.313100
H -11.994700 -12.781300 -23.055900
H -11.829900 -9.014400 -21.743000
C -11.767500 -10.958300 -22.239300
H -11.134700 -13.344100 -20.895000
N -10.781100 -11.343700 -21.281500
C -10.622000 -12.587100 -20.725100
C -9.824700 -10.558700 -20.742600
H -9.712300 -9.657800 -20.944500
C -9.576100 -12.492000 -19.885800
H -9.242100 -13.189400 -19.369000
N -9.077500 -11.222200 -19.903400
