18
Fragment
H -10.164900 -15.708800 -26.591500
O -10.006600 -14.041100 -25.041300
O -9.520900 -15.927600 -26.133900
C -9.377400 -15.077100 -25.147900
H -9.128500 -14.414600 -22.628100
C -8.451600 -15.012400 -22.847700
C -8.357700 -15.506300 -24.138500
H -7.612200 -15.072800 -21.023200
C -7.541800 -15.406700 -21.888100
C -7.345900 -16.390300 -24.449300
H -7.275400 -16.724200 -25.314100
C -6.530000 -16.290700 -22.198800
C -6.436000 -16.784600 -23.489600
H -5.759100 -17.382400 -23.709300
C -5.510300 -16.719900 -21.189400
O -5.366800 -15.869400 -20.203400
O -4.881100 -17.755900 -21.296000
H -4.722700 -16.088200 -19.745900
26
Fragment
N -5.810100 -20.574800 -26.433900
H -5.645600 -18.607600 -26.968300
C -5.311500 -19.305000 -26.451500
H -5.175300 -22.139200 -25.392900
C -5.063000 -21.238300 -25.594700
C -4.265600 -19.209900 -25.612200
N -4.106500 -20.453300 -25.055800
H -3.752900 -18.452900 -25.442300
C -3.120100 -20.838700 -24.098000
H -3.057700 -22.782600 -24.594300
H -2.892900 -19.015700 -23.281400
C -2.697800 -22.142400 -24.024200
C -2.596700 -19.896400 -23.238300
C -1.735000 -22.499600 -23.099000
C -1.633900 -20.253600 -22.313100
H -1.438700 -23.380300 -23.055900
H -1.273900 -19.613400 -21.743000
C -1.211500 -21.557300 -22.239300
H -0.578700 -23.943100 -20.895000
N -0.225100 -21.942700 -21.281500
C -0.066000 -23.186100 -20.725100
C 0.731300 -21.157700 -20.742600
H 0.843700 -20.256800 -20.944500
C 0.979900 -23.091000 -19.885800
H 1.313900 -23.788400 -19.369000
N 1.478500 -21.821200 -19.903400
44
Fragment
H -10.164900 -15.708800 -26.591500
O -10.006600 -14.041100 -25.041300
O -9.520900 -15.927600 -26.133900
C -9.377400 -15.077100 -25.147900
H -9.128500 -14.414600 -22.628100
C -8.451600 -15.012400 -22.847700
C -8.357700 -15.506300 -24.138500
H -7.612200 -15.072800 -21.023200
C -7.541800 -15.406700 -21.888100
C -7.345900 -16.390300 -24.449300
H -7.275400 -16.724200 -25.314100
C -6.530000 -16.290700 -22.198800
C -6.436000 -16.784600 -23.489600
H -5.759100 -17.382400 -23.709300
C -5.510300 -16.719900 -21.189400
O -5.366800 -15.869400 -20.203400
O -4.881100 -17.755900 -21.296000
H -4.722700 -16.088200 -19.745900
N -5.810100 -20.574800 -26.433900
H -5.645600 -18.607600 -26.968300
C -5.311500 -19.305000 -26.451500
H -5.175300 -22.139200 -25.392900
C -5.063000 -21.238300 -25.594700
C -4.265600 -19.209900 -25.612200
N -4.106500 -20.453300 -25.055800
H -3.752900 -18.452900 -25.442300
C -3.120100 -20.838700 -24.098000
H -3.057700 -22.782600 -24.594300
H -2.892900 -19.015700 -23.281400
C -2.697800 -22.142400 -24.024200
C -2.596700 -19.896400 -23.238300
C -1.735000 -22.499600 -23.099000
C -1.633900 -20.253600 -22.313100
H -1.438700 -23.380300 -23.055900
H -1.273900 -19.613400 -21.743000
C -1.211500 -21.557300 -22.239300
H -0.578700 -23.943100 -20.895000
N -0.225100 -21.942700 -21.281500
C -0.066000 -23.186100 -20.725100
C 0.731300 -21.157700 -20.742600
H 0.843700 -20.256800 -20.944500
C 0.979900 -23.091000 -19.885800
H 1.313900 -23.788400 -19.369000
N 1.478500 -21.821200 -19.903400
