18
Fragment
H -10.164900 -15.708800 -26.591500
O -10.006600 -14.041100 -25.041300
O -9.520900 -15.927600 -26.133900
C -9.377400 -15.077100 -25.147900
H -9.128500 -14.414600 -22.628100
C -8.451600 -15.012400 -22.847700
C -8.357700 -15.506300 -24.138500
H -7.612200 -15.072800 -21.023200
C -7.541800 -15.406700 -21.888100
C -7.345900 -16.390300 -24.449300
H -7.275400 -16.724200 -25.314100
C -6.530000 -16.290700 -22.198800
C -6.436000 -16.784600 -23.489600
H -5.759100 -17.382400 -23.709300
C -5.510300 -16.719900 -21.189400
O -5.366800 -15.869400 -20.203400
O -4.881100 -17.755900 -21.296000
H -4.722700 -16.088200 -19.745900
26
Fragment
N -8.606800 -16.521700 -18.711000
H -8.442300 -18.488900 -19.245400
C -8.108200 -17.791500 -18.728600
H -7.972000 -14.957300 -17.670000
C -7.859700 -15.858200 -17.871800
C -7.062400 -17.886600 -17.889300
N -6.903300 -16.643200 -17.332900
H -6.549700 -18.643600 -17.719400
C -5.916800 -16.257800 -16.375200
H -5.854400 -14.313900 -16.871400
H -5.689700 -18.080800 -15.558500
C -5.494500 -14.954100 -16.301300
C -5.393400 -17.200100 -15.515400
C -4.531700 -14.596900 -15.376100
C -4.430600 -16.842900 -14.590200
H -4.235400 -13.716200 -15.333000
H -4.070700 -17.483100 -14.020100
C -4.008300 -15.539200 -14.516400
H -3.375400 -13.153400 -13.172200
N -3.021800 -15.153800 -13.558600
C -2.862700 -13.910400 -13.002300
C -2.065400 -15.938800 -13.019700
H -1.953100 -16.839700 -13.221600
C -1.816900 -14.005500 -12.162900
H -1.482800 -13.308100 -11.646100
N -1.318300 -15.275300 -12.180500
44
Fragment
H -10.164900 -15.708800 -26.591500
O -10.006600 -14.041100 -25.041300
O -9.520900 -15.927600 -26.133900
C -9.377400 -15.077100 -25.147900
H -9.128500 -14.414600 -22.628100
C -8.451600 -15.012400 -22.847700
C -8.357700 -15.506300 -24.138500
H -7.612200 -15.072800 -21.023200
C -7.541800 -15.406700 -21.888100
C -7.345900 -16.390300 -24.449300
H -7.275400 -16.724200 -25.314100
C -6.530000 -16.290700 -22.198800
C -6.436000 -16.784600 -23.489600
H -5.759100 -17.382400 -23.709300
C -5.510300 -16.719900 -21.189400
O -5.366800 -15.869400 -20.203400
O -4.881100 -17.755900 -21.296000
H -4.722700 -16.088200 -19.745900
N -8.606800 -16.521700 -18.711000
H -8.442300 -18.488900 -19.245400
C -8.108200 -17.791500 -18.728600
H -7.972000 -14.957300 -17.670000
C -7.859700 -15.858200 -17.871800
C -7.062400 -17.886600 -17.889300
N -6.903300 -16.643200 -17.332900
H -6.549700 -18.643600 -17.719400
C -5.916800 -16.257800 -16.375200
H -5.854400 -14.313900 -16.871400
H -5.689700 -18.080800 -15.558500
C -5.494500 -14.954100 -16.301300
C -5.393400 -17.200100 -15.515400
C -4.531700 -14.596900 -15.376100
C -4.430600 -16.842900 -14.590200
H -4.235400 -13.716200 -15.333000
H -4.070700 -17.483100 -14.020100
C -4.008300 -15.539200 -14.516400
H -3.375400 -13.153400 -13.172200
N -3.021800 -15.153800 -13.558600
C -2.862700 -13.910400 -13.002300
C -2.065400 -15.938800 -13.019700
H -1.953100 -16.839700 -13.221600
C -1.816900 -14.005500 -12.162900
H -1.482800 -13.308100 -11.646100
N -1.318300 -15.275300 -12.180500
