22
Fragment
H -11.163000 -11.873800 -29.698100
H -11.032600 -10.804000 -27.533100
H -10.322700 -13.167400 -29.983300
C -10.321300 -12.319300 -29.512400
N -10.214400 -12.568000 -28.065000
C -10.194300 -11.263900 -27.371900
H -10.114900 -11.412000 -26.417000
H -10.042800 -9.740100 -29.462500
N -9.216500 -11.491600 -30.012400
C -9.216100 -10.213200 -29.279400
N -9.081400 -10.414100 -27.823900
C -8.973200 -13.256800 -27.792300
H -8.970100 -14.114800 -28.245300
H -8.891900 -13.417400 -26.838600
H -8.482500 -9.663800 -29.595300
C -7.965800 -12.172500 -29.758300
H -7.951800 -13.018000 -30.234900
C -7.834400 -11.083700 -27.552800
N -7.803200 -12.422600 -28.271200
H -7.738400 -11.222500 -26.597700
H -7.228700 -11.631700 -30.080800
H -7.094800 -10.533000 -27.853800
19
Fragment
O -19.008900 -14.843100 -29.046600
H -18.353200 -13.267400 -28.103600
N -17.952000 -15.306300 -29.477300
O -17.938000 -16.316300 -30.173900
O -17.679200 -12.831800 -27.934100
C -16.698900 -14.655600 -29.164600
C -16.685500 -13.397600 -28.427100
O -16.053800 -10.833000 -27.433600
H -15.638300 -16.111000 -30.056000
C -15.570600 -15.303000 -29.600500
C -15.334100 -12.864000 -28.297200
N -15.116300 -11.562000 -27.650600
C -14.335400 -14.742500 -29.356300
C -14.209500 -13.507500 -28.729200
O -13.966800 -11.250100 -27.371700
H -13.371100 -13.125200 -28.605000
O -13.249400 -16.509000 -30.356800
N -13.143700 -15.465500 -29.720900
O -12.054500 -15.011300 -29.352600
41
Fragment
H -11.163000 -11.873800 -29.698100
H -11.032600 -10.804000 -27.533100
H -10.322700 -13.167400 -29.983300
C -10.321300 -12.319300 -29.512400
N -10.214400 -12.568000 -28.065000
C -10.194300 -11.263900 -27.371900
H -10.114900 -11.412000 -26.417000
H -10.042800 -9.740100 -29.462500
N -9.216500 -11.491600 -30.012400
C -9.216100 -10.213200 -29.279400
N -9.081400 -10.414100 -27.823900
C -8.973200 -13.256800 -27.792300
H -8.970100 -14.114800 -28.245300
H -8.891900 -13.417400 -26.838600
H -8.482500 -9.663800 -29.595300
C -7.965800 -12.172500 -29.758300
H -7.951800 -13.018000 -30.234900
C -7.834400 -11.083700 -27.552800
N -7.803200 -12.422600 -28.271200
H -7.738400 -11.222500 -26.597700
H -7.228700 -11.631700 -30.080800
H -7.094800 -10.533000 -27.853800
O -19.008900 -14.843100 -29.046600
H -18.353200 -13.267400 -28.103600
N -17.952000 -15.306300 -29.477300
O -17.938000 -16.316300 -30.173900
O -17.679200 -12.831800 -27.934100
C -16.698900 -14.655600 -29.164600
C -16.685500 -13.397600 -28.427100
O -16.053800 -10.833000 -27.433600
H -15.638300 -16.111000 -30.056000
C -15.570600 -15.303000 -29.600500
C -15.334100 -12.864000 -28.297200
N -15.116300 -11.562000 -27.650600
C -14.335400 -14.742500 -29.356300
C -14.209500 -13.507500 -28.729200
O -13.966800 -11.250100 -27.371700
H -13.371100 -13.125200 -28.605000
O -13.249400 -16.509000 -30.356800
N -13.143700 -15.465500 -29.720900
O -12.054500 -15.011300 -29.352600
