22
Fragment
H -11.163000 -11.873800 -29.698100
H -11.032600 -10.804000 -27.533100
H -10.322700 -13.167400 -29.983300
C -10.321300 -12.319300 -29.512400
N -10.214400 -12.568000 -28.065000
C -10.194300 -11.263900 -27.371900
H -10.114900 -11.412000 -26.417000
H -10.042800 -9.740100 -29.462500
N -9.216500 -11.491600 -30.012400
C -9.216100 -10.213200 -29.279400
N -9.081400 -10.414100 -27.823900
C -8.973200 -13.256800 -27.792300
H -8.970100 -14.114800 -28.245300
H -8.891900 -13.417400 -26.838600
H -8.482500 -9.663800 -29.595300
C -7.965800 -12.172500 -29.758300
H -7.951800 -13.018000 -30.234900
C -7.834400 -11.083700 -27.552800
N -7.803200 -12.422600 -28.271200
H -7.738400 -11.222500 -26.597700
H -7.228700 -11.631700 -30.080800
H -7.094800 -10.533000 -27.853800
19
Fragment
O -9.110100 -11.306300 -23.796700
N -8.020900 -10.852100 -23.428400
O -7.915100 -9.808600 -22.792600
H -7.793500 -13.192400 -24.544400
O -7.197800 -15.067500 -25.777600
C -6.955000 -12.810100 -24.420200
C -6.829200 -11.575100 -23.793000
N -6.048300 -14.755600 -25.498800
C -5.830500 -13.453600 -24.852100
C -5.593900 -11.014600 -23.548900
H -5.526300 -10.206600 -23.093400
O -5.110800 -15.484600 -25.715800
C -4.479100 -12.920000 -24.722200
C -4.465700 -11.662000 -23.984700
O -3.485300 -13.485800 -25.215300
O -3.226600 -10.001300 -22.975400
N -3.212500 -11.011300 -23.672000
H -2.811400 -13.050200 -25.045700
O -2.155600 -11.474500 -24.102700
41
Fragment
H -11.163000 -11.873800 -29.698100
H -11.032600 -10.804000 -27.533100
H -10.322700 -13.167400 -29.983300
C -10.321300 -12.319300 -29.512400
N -10.214400 -12.568000 -28.065000
C -10.194300 -11.263900 -27.371900
H -10.114900 -11.412000 -26.417000
H -10.042800 -9.740100 -29.462500
N -9.216500 -11.491600 -30.012400
C -9.216100 -10.213200 -29.279400
N -9.081400 -10.414100 -27.823900
C -8.973200 -13.256800 -27.792300
H -8.970100 -14.114800 -28.245300
H -8.891900 -13.417400 -26.838600
H -8.482500 -9.663800 -29.595300
C -7.965800 -12.172500 -29.758300
H -7.951800 -13.018000 -30.234900
C -7.834400 -11.083700 -27.552800
N -7.803200 -12.422600 -28.271200
H -7.738400 -11.222500 -26.597700
H -7.228700 -11.631700 -30.080800
H -7.094800 -10.533000 -27.853800
O -9.110100 -11.306300 -23.796700
N -8.020900 -10.852100 -23.428400
O -7.915100 -9.808600 -22.792600
H -7.793500 -13.192400 -24.544400
O -7.197800 -15.067500 -25.777600
C -6.955000 -12.810100 -24.420200
C -6.829200 -11.575100 -23.793000
N -6.048300 -14.755600 -25.498800
C -5.830500 -13.453600 -24.852100
C -5.593900 -11.014600 -23.548900
H -5.526300 -10.206600 -23.093400
O -5.110800 -15.484600 -25.715800
C -4.479100 -12.920000 -24.722200
C -4.465700 -11.662000 -23.984700
O -3.485300 -13.485800 -25.215300
O -3.226600 -10.001300 -22.975400
N -3.212500 -11.011300 -23.672000
H -2.811400 -13.050200 -25.045700
O -2.155600 -11.474500 -24.102700
