22
Fragment
H -11.163000 -11.873800 -29.698100
H -11.032600 -10.804000 -27.533100
H -10.322700 -13.167400 -29.983300
C -10.321300 -12.319300 -29.512400
N -10.214400 -12.568000 -28.065000
C -10.194300 -11.263900 -27.371900
H -10.114900 -11.412000 -26.417000
H -10.042800 -9.740100 -29.462500
N -9.216500 -11.491600 -30.012400
C -9.216100 -10.213200 -29.279400
N -9.081400 -10.414100 -27.823900
C -8.973200 -13.256800 -27.792300
H -8.970100 -14.114800 -28.245300
H -8.891900 -13.417400 -26.838600
H -8.482500 -9.663800 -29.595300
C -7.965800 -12.172500 -29.758300
H -7.951800 -13.018000 -30.234900
C -7.834400 -11.083700 -27.552800
N -7.803200 -12.422600 -28.271200
H -7.738400 -11.222500 -26.597700
H -7.228700 -11.631700 -30.080800
H -7.094800 -10.533000 -27.853800
19
Fragment
O -6.394400 -11.721600 -32.655000
N -5.305200 -12.175800 -32.286600
O -5.199500 -13.219300 -31.650800
H -5.077800 -9.835500 -33.402600
O -4.482100 -7.960400 -34.635800
C -4.239400 -10.217800 -33.278400
C -4.113500 -11.452800 -32.651200
N -3.332600 -8.272300 -34.357000
C -3.114800 -9.574300 -33.710300
C -2.878300 -12.013300 -32.407100
H -2.810600 -12.821300 -31.951600
O -2.395100 -7.543300 -34.574000
C -1.763400 -10.107900 -33.580500
C -1.750000 -11.365900 -32.842900
O -0.769700 -9.542100 -34.073500
O -0.510900 -13.026600 -31.833600
N -0.496900 -12.016600 -32.530200
H -0.095700 -9.977700 -33.904000
O 0.560000 -11.553400 -32.960900
41
Fragment
H -11.163000 -11.873800 -29.698100
H -11.032600 -10.804000 -27.533100
H -10.322700 -13.167400 -29.983300
C -10.321300 -12.319300 -29.512400
N -10.214400 -12.568000 -28.065000
C -10.194300 -11.263900 -27.371900
H -10.114900 -11.412000 -26.417000
H -10.042800 -9.740100 -29.462500
N -9.216500 -11.491600 -30.012400
C -9.216100 -10.213200 -29.279400
N -9.081400 -10.414100 -27.823900
C -8.973200 -13.256800 -27.792300
H -8.970100 -14.114800 -28.245300
H -8.891900 -13.417400 -26.838600
H -8.482500 -9.663800 -29.595300
C -7.965800 -12.172500 -29.758300
H -7.951800 -13.018000 -30.234900
C -7.834400 -11.083700 -27.552800
N -7.803200 -12.422600 -28.271200
H -7.738400 -11.222500 -26.597700
H -7.228700 -11.631700 -30.080800
H -7.094800 -10.533000 -27.853800
O -6.394400 -11.721600 -32.655000
N -5.305200 -12.175800 -32.286600
O -5.199500 -13.219300 -31.650800
H -5.077800 -9.835500 -33.402600
O -4.482100 -7.960400 -34.635800
C -4.239400 -10.217800 -33.278400
C -4.113500 -11.452800 -32.651200
N -3.332600 -8.272300 -34.357000
C -3.114800 -9.574300 -33.710300
C -2.878300 -12.013300 -32.407100
H -2.810600 -12.821300 -31.951600
O -2.395100 -7.543300 -34.574000
C -1.763400 -10.107900 -33.580500
C -1.750000 -11.365900 -32.842900
O -0.769700 -9.542100 -34.073500
O -0.510900 -13.026600 -31.833600
N -0.496900 -12.016600 -32.530200
H -0.095700 -9.977700 -33.904000
O 0.560000 -11.553400 -32.960900
