22
Fragment
H -11.163000 -11.873800 -29.698100
H -11.032600 -10.804000 -27.533100
H -10.322700 -13.167400 -29.983300
C -10.321300 -12.319300 -29.512400
N -10.214400 -12.568000 -28.065000
C -10.194300 -11.263900 -27.371900
H -10.114900 -11.412000 -26.417000
H -10.042800 -9.740100 -29.462500
N -9.216500 -11.491600 -30.012400
C -9.216100 -10.213200 -29.279400
N -9.081400 -10.414100 -27.823900
C -8.973200 -13.256800 -27.792300
H -8.970100 -14.114800 -28.245300
H -8.891900 -13.417400 -26.838600
H -8.482500 -9.663800 -29.595300
C -7.965800 -12.172500 -29.758300
H -7.951800 -13.018000 -30.234900
C -7.834400 -11.083700 -27.552800
N -7.803200 -12.422600 -28.271200
H -7.738400 -11.222500 -26.597700
H -7.228700 -11.631700 -30.080800
H -7.094800 -10.533000 -27.853800
22
Fragment
H -14.069800 -15.784600 -25.295500
H -13.935900 -14.685900 -23.068600
H -13.426200 -15.095100 -26.551600
N -13.361400 -13.895000 -24.878100
C -13.330200 -15.233900 -25.596500
H -13.212700 -13.299600 -22.914500
C -13.198700 -14.145100 -23.391000
H -12.682000 -16.653800 -23.554000
H -12.272700 -12.900200 -26.310700
H -12.194500 -12.202800 -24.904000
C -12.191300 -13.060800 -25.357000
N -12.083100 -15.903500 -25.325500
C -11.948500 -16.104400 -23.869900
N -11.948100 -14.826000 -23.137000
H -11.121700 -16.577500 -23.686900
H -11.049600 -14.905600 -26.732300
C -10.970300 -15.053700 -25.777400
N -10.950100 -13.749600 -25.084400
C -10.843200 -13.998300 -23.636900
H -10.841900 -13.150200 -23.166000
H -10.131900 -15.513600 -25.616200
H -10.001500 -14.443800 -23.451300
44
Fragment
H -11.163000 -11.873800 -29.698100
H -11.032600 -10.804000 -27.533100
H -10.322700 -13.167400 -29.983300
C -10.321300 -12.319300 -29.512400
N -10.214400 -12.568000 -28.065000
C -10.194300 -11.263900 -27.371900
H -10.114900 -11.412000 -26.417000
H -10.042800 -9.740100 -29.462500
N -9.216500 -11.491600 -30.012400
C -9.216100 -10.213200 -29.279400
N -9.081400 -10.414100 -27.823900
C -8.973200 -13.256800 -27.792300
H -8.970100 -14.114800 -28.245300
H -8.891900 -13.417400 -26.838600
H -8.482500 -9.663800 -29.595300
C -7.965800 -12.172500 -29.758300
H -7.951800 -13.018000 -30.234900
C -7.834400 -11.083700 -27.552800
N -7.803200 -12.422600 -28.271200
H -7.738400 -11.222500 -26.597700
H -7.228700 -11.631700 -30.080800
H -7.094800 -10.533000 -27.853800
H -14.069800 -15.784600 -25.295500
H -13.935900 -14.685900 -23.068600
H -13.426200 -15.095100 -26.551600
N -13.361400 -13.895000 -24.878100
C -13.330200 -15.233900 -25.596500
H -13.212700 -13.299600 -22.914500
C -13.198700 -14.145100 -23.391000
H -12.682000 -16.653800 -23.554000
H -12.272700 -12.900200 -26.310700
H -12.194500 -12.202800 -24.904000
C -12.191300 -13.060800 -25.357000
N -12.083100 -15.903500 -25.325500
C -11.948500 -16.104400 -23.869900
N -11.948100 -14.826000 -23.137000
H -11.121700 -16.577500 -23.686900
H -11.049600 -14.905600 -26.732300
C -10.970300 -15.053700 -25.777400
N -10.950100 -13.749600 -25.084400
C -10.843200 -13.998300 -23.636900
H -10.841900 -13.150200 -23.166000
H -10.131900 -15.513600 -25.616200
H -10.001500 -14.443800 -23.451300
