22
Fragment
H -11.163000 -11.873800 -29.698100
H -11.032600 -10.804000 -27.533100
H -10.322700 -13.167400 -29.983300
C -10.321300 -12.319300 -29.512400
N -10.214400 -12.568000 -28.065000
C -10.194300 -11.263900 -27.371900
H -10.114900 -11.412000 -26.417000
H -10.042800 -9.740100 -29.462500
N -9.216500 -11.491600 -30.012400
C -9.216100 -10.213200 -29.279400
N -9.081400 -10.414100 -27.823900
C -8.973200 -13.256800 -27.792300
H -8.970100 -14.114800 -28.245300
H -8.891900 -13.417400 -26.838600
H -8.482500 -9.663800 -29.595300
C -7.965800 -12.172500 -29.758300
H -7.951800 -13.018000 -30.234900
C -7.834400 -11.083700 -27.552800
N -7.803200 -12.422600 -28.271200
H -7.738400 -11.222500 -26.597700
H -7.228700 -11.631700 -30.080800
H -7.094800 -10.533000 -27.853800
22
Fragment
H -11.163000 -18.453200 -29.698100
H -11.032600 -17.383400 -27.533100
H -10.322700 -19.746800 -29.983300
C -10.321300 -18.898700 -29.512400
N -10.214400 -19.147400 -28.065000
C -10.194300 -17.843300 -27.371900
H -10.114900 -17.991400 -26.417000
H -10.042800 -16.319500 -29.462500
N -9.216500 -18.071000 -30.012400
C -9.216100 -16.792600 -29.279400
N -9.081400 -16.993500 -27.823900
C -8.973200 -19.836200 -27.792300
H -8.970100 -20.694200 -28.245300
H -8.891900 -19.996800 -26.838600
H -8.482500 -16.243200 -29.595300
C -7.965800 -18.751900 -29.758300
H -7.951800 -19.597400 -30.234900
C -7.834400 -17.663100 -27.552800
N -7.803200 -19.002000 -28.271200
H -7.738400 -17.801900 -26.597700
H -7.228700 -18.211100 -30.080800
H -7.094800 -17.112400 -27.853800
44
Fragment
H -11.163000 -11.873800 -29.698100
H -11.032600 -10.804000 -27.533100
H -10.322700 -13.167400 -29.983300
C -10.321300 -12.319300 -29.512400
N -10.214400 -12.568000 -28.065000
C -10.194300 -11.263900 -27.371900
H -10.114900 -11.412000 -26.417000
H -10.042800 -9.740100 -29.462500
N -9.216500 -11.491600 -30.012400
C -9.216100 -10.213200 -29.279400
N -9.081400 -10.414100 -27.823900
C -8.973200 -13.256800 -27.792300
H -8.970100 -14.114800 -28.245300
H -8.891900 -13.417400 -26.838600
H -8.482500 -9.663800 -29.595300
C -7.965800 -12.172500 -29.758300
H -7.951800 -13.018000 -30.234900
C -7.834400 -11.083700 -27.552800
N -7.803200 -12.422600 -28.271200
H -7.738400 -11.222500 -26.597700
H -7.228700 -11.631700 -30.080800
H -7.094800 -10.533000 -27.853800
H -11.163000 -18.453200 -29.698100
H -11.032600 -17.383400 -27.533100
H -10.322700 -19.746800 -29.983300
C -10.321300 -18.898700 -29.512400
N -10.214400 -19.147400 -28.065000
C -10.194300 -17.843300 -27.371900
H -10.114900 -17.991400 -26.417000
H -10.042800 -16.319500 -29.462500
N -9.216500 -18.071000 -30.012400
C -9.216100 -16.792600 -29.279400
N -9.081400 -16.993500 -27.823900
C -8.973200 -19.836200 -27.792300
H -8.970100 -20.694200 -28.245300
H -8.891900 -19.996800 -26.838600
H -8.482500 -16.243200 -29.595300
C -7.965800 -18.751900 -29.758300
H -7.951800 -19.597400 -30.234900
C -7.834400 -17.663100 -27.552800
N -7.803200 -19.002000 -28.271200
H -7.738400 -17.801900 -26.597700
H -7.228700 -18.211100 -30.080800
H -7.094800 -17.112400 -27.853800
