28
Fragment
O -17.846100 -8.040800 -22.569800
N -17.469900 -9.068400 -23.381000
N -16.872400 -7.755900 -21.619700
C -16.281800 -9.414300 -22.974700
C -15.919700 -8.592300 -21.863500
N -15.652200 -10.505200 -23.590500
N -14.841800 -8.602200 -19.937200
N -14.706600 -13.055200 -23.767100
N -14.677600 -8.558700 -21.179300
N -14.603200 -10.812700 -22.980700
C -14.013200 -11.988600 -23.509300
O -13.770700 -14.013700 -24.118300
N -13.669800 -8.331300 -17.965900
C -13.614500 -8.512100 -19.254200
C -12.630800 -12.270100 -23.699200
N -12.501800 -13.515500 -24.076200
O -12.369100 -8.254000 -17.555100
C -12.247300 -8.539700 -19.659100
N -11.753500 -10.275000 -23.452400
N -11.741500 -8.828400 -20.951100
N -11.486100 -8.388500 -18.618600
N -11.466900 -11.481700 -23.616900
N -10.731100 -8.135300 -21.215900
C -10.599700 -9.445200 -23.456300
C -10.214000 -8.483800 -22.477300
N -9.809700 -9.359700 -24.482400
N -9.169000 -7.838100 -22.901800
O -8.906100 -8.352500 -24.142500
28
Fragment
O -14.314700 -17.949900 -26.637900
N -14.051800 -18.464300 -27.878600
N -13.411100 -16.942700 -26.298000
C -13.006800 -17.818600 -28.303100
C -12.621100 -16.857200 -27.324100
N -12.489700 -18.167100 -29.564500
N -11.753900 -14.820700 -27.163400
N -11.734700 -17.913900 -32.161800
N -11.479300 -17.474000 -29.829200
N -11.467300 -16.027400 -27.328000
C -10.973500 -17.762700 -31.121300
O -10.851700 -18.048400 -33.225300
N -10.719000 -12.786900 -26.704200
C -10.590000 -14.032300 -27.081200
C -9.606300 -17.790300 -31.526200
N -9.551000 -17.971100 -32.814500
O -9.450100 -12.288700 -26.662100
C -9.207600 -14.313800 -27.271100
N -8.617700 -15.489700 -27.799700
N -8.543200 -17.743700 -29.601100
N -8.514200 -13.247200 -27.013300
N -8.379000 -17.700200 -30.843200
N -7.568600 -15.797200 -27.189800
C -7.301100 -17.710100 -28.916900
C -6.939000 -16.888100 -27.805600
N -6.348400 -18.546500 -29.160600
N -5.750900 -17.234000 -27.399400
O -5.374700 -18.261600 -28.210500
56
Fragment
O -17.846100 -8.040800 -22.569800
N -17.469900 -9.068400 -23.381000
N -16.872400 -7.755900 -21.619700
C -16.281800 -9.414300 -22.974700
C -15.919700 -8.592300 -21.863500
N -15.652200 -10.505200 -23.590500
N -14.841800 -8.602200 -19.937200
N -14.706600 -13.055200 -23.767100
N -14.677600 -8.558700 -21.179300
N -14.603200 -10.812700 -22.980700
C -14.013200 -11.988600 -23.509300
O -13.770700 -14.013700 -24.118300
N -13.669800 -8.331300 -17.965900
C -13.614500 -8.512100 -19.254200
C -12.630800 -12.270100 -23.699200
N -12.501800 -13.515500 -24.076200
O -12.369100 -8.254000 -17.555100
C -12.247300 -8.539700 -19.659100
N -11.753500 -10.275000 -23.452400
N -11.741500 -8.828400 -20.951100
N -11.486100 -8.388500 -18.618600
N -11.466900 -11.481700 -23.616900
N -10.731100 -8.135300 -21.215900
C -10.599700 -9.445200 -23.456300
C -10.214000 -8.483800 -22.477300
N -9.809700 -9.359700 -24.482400
N -9.169000 -7.838100 -22.901800
O -8.906100 -8.352500 -24.142500
O -14.314700 -17.949900 -26.637900
N -14.051800 -18.464300 -27.878600
N -13.411100 -16.942700 -26.298000
C -13.006800 -17.818600 -28.303100
C -12.621100 -16.857200 -27.324100
N -12.489700 -18.167100 -29.564500
N -11.753900 -14.820700 -27.163400
N -11.734700 -17.913900 -32.161800
N -11.479300 -17.474000 -29.829200
N -11.467300 -16.027400 -27.328000
C -10.973500 -17.762700 -31.121300
O -10.851700 -18.048400 -33.225300
N -10.719000 -12.786900 -26.704200
C -10.590000 -14.032300 -27.081200
C -9.606300 -17.790300 -31.526200
N -9.551000 -17.971100 -32.814500
O -9.450100 -12.288700 -26.662100
C -9.207600 -14.313800 -27.271100
N -8.617700 -15.489700 -27.799700
N -8.543200 -17.743700 -29.601100
N -8.514200 -13.247200 -27.013300
N -8.379000 -17.700200 -30.843200
N -7.568600 -15.797200 -27.189800
C -7.301100 -17.710100 -28.916900
C -6.939000 -16.888100 -27.805600
N -6.348400 -18.546500 -29.160600
N -5.750900 -17.234000 -27.399400
O -5.374700 -18.261600 -28.210500
