28
Fragment
O -17.846100 -8.040800 -22.569800
N -17.469900 -9.068400 -23.381000
N -16.872400 -7.755900 -21.619700
C -16.281800 -9.414300 -22.974700
C -15.919700 -8.592300 -21.863500
N -15.652200 -10.505200 -23.590500
N -14.841800 -8.602200 -19.937200
N -14.706600 -13.055200 -23.767100
N -14.677600 -8.558700 -21.179300
N -14.603200 -10.812700 -22.980700
C -14.013200 -11.988600 -23.509300
O -13.770700 -14.013700 -24.118300
N -13.669800 -8.331300 -17.965900
C -13.614500 -8.512100 -19.254200
C -12.630800 -12.270100 -23.699200
N -12.501800 -13.515500 -24.076200
O -12.369100 -8.254000 -17.555100
C -12.247300 -8.539700 -19.659100
N -11.753500 -10.275000 -23.452400
N -11.741500 -8.828400 -20.951100
N -11.486100 -8.388500 -18.618600
N -11.466900 -11.481700 -23.616900
N -10.731100 -8.135300 -21.215900
C -10.599700 -9.445200 -23.456300
C -10.214000 -8.483800 -22.477300
N -9.809700 -9.359700 -24.482400
N -9.169000 -7.838100 -22.901800
O -8.906100 -8.352500 -24.142500
28
Fragment
O -25.558100 -5.064700 -18.174500
N -25.295300 -4.550300 -19.415200
N -24.654600 -6.071900 -17.834600
C -24.250300 -5.196000 -19.839700
C -23.864500 -6.157400 -18.860700
N -23.733200 -4.847500 -21.101100
N -22.997300 -8.193900 -18.700000
N -22.978100 -5.100700 -23.698400
N -22.722800 -5.540600 -21.365800
N -22.710700 -6.987200 -18.864600
C -22.217000 -5.251900 -22.657900
O -22.095200 -4.966200 -24.761900
N -21.962400 -10.227700 -18.240800
C -21.833400 -8.982300 -18.617800
C -20.849800 -5.224300 -23.062800
N -20.794500 -5.043500 -24.351100
O -20.693600 -10.725900 -18.198700
C -20.451100 -8.700800 -18.807700
N -19.861100 -7.524900 -19.336300
N -19.786600 -5.270900 -21.137700
N -19.757700 -9.767400 -18.549900
N -19.622500 -5.314400 -22.379800
N -18.812000 -7.217400 -18.726500
C -18.544600 -5.304500 -20.453500
C -18.182400 -6.126500 -19.342200
N -17.591900 -4.468100 -20.697200
N -16.994300 -5.780600 -18.936000
O -16.618200 -4.753000 -19.747100
56
Fragment
O -17.846100 -8.040800 -22.569800
N -17.469900 -9.068400 -23.381000
N -16.872400 -7.755900 -21.619700
C -16.281800 -9.414300 -22.974700
C -15.919700 -8.592300 -21.863500
N -15.652200 -10.505200 -23.590500
N -14.841800 -8.602200 -19.937200
N -14.706600 -13.055200 -23.767100
N -14.677600 -8.558700 -21.179300
N -14.603200 -10.812700 -22.980700
C -14.013200 -11.988600 -23.509300
O -13.770700 -14.013700 -24.118300
N -13.669800 -8.331300 -17.965900
C -13.614500 -8.512100 -19.254200
C -12.630800 -12.270100 -23.699200
N -12.501800 -13.515500 -24.076200
O -12.369100 -8.254000 -17.555100
C -12.247300 -8.539700 -19.659100
N -11.753500 -10.275000 -23.452400
N -11.741500 -8.828400 -20.951100
N -11.486100 -8.388500 -18.618600
N -11.466900 -11.481700 -23.616900
N -10.731100 -8.135300 -21.215900
C -10.599700 -9.445200 -23.456300
C -10.214000 -8.483800 -22.477300
N -9.809700 -9.359700 -24.482400
N -9.169000 -7.838100 -22.901800
O -8.906100 -8.352500 -24.142500
O -25.558100 -5.064700 -18.174500
N -25.295300 -4.550300 -19.415200
N -24.654600 -6.071900 -17.834600
C -24.250300 -5.196000 -19.839700
C -23.864500 -6.157400 -18.860700
N -23.733200 -4.847500 -21.101100
N -22.997300 -8.193900 -18.700000
N -22.978100 -5.100700 -23.698400
N -22.722800 -5.540600 -21.365800
N -22.710700 -6.987200 -18.864600
C -22.217000 -5.251900 -22.657900
O -22.095200 -4.966200 -24.761900
N -21.962400 -10.227700 -18.240800
C -21.833400 -8.982300 -18.617800
C -20.849800 -5.224300 -23.062800
N -20.794500 -5.043500 -24.351100
O -20.693600 -10.725900 -18.198700
C -20.451100 -8.700800 -18.807700
N -19.861100 -7.524900 -19.336300
N -19.786600 -5.270900 -21.137700
N -19.757700 -9.767400 -18.549900
N -19.622500 -5.314400 -22.379800
N -18.812000 -7.217400 -18.726500
C -18.544600 -5.304500 -20.453500
C -18.182400 -6.126500 -19.342200
N -17.591900 -4.468100 -20.697200
N -16.994300 -5.780600 -18.936000
O -16.618200 -4.753000 -19.747100
