28
Fragment
O -17.846100 -8.040800 -22.569800
N -17.469900 -9.068400 -23.381000
N -16.872400 -7.755900 -21.619700
C -16.281800 -9.414300 -22.974700
C -15.919700 -8.592300 -21.863500
N -15.652200 -10.505200 -23.590500
N -14.841800 -8.602200 -19.937200
N -14.706600 -13.055200 -23.767100
N -14.677600 -8.558700 -21.179300
N -14.603200 -10.812700 -22.980700
C -14.013200 -11.988600 -23.509300
O -13.770700 -14.013700 -24.118300
N -13.669800 -8.331300 -17.965900
C -13.614500 -8.512100 -19.254200
C -12.630800 -12.270100 -23.699200
N -12.501800 -13.515500 -24.076200
O -12.369100 -8.254000 -17.555100
C -12.247300 -8.539700 -19.659100
N -11.753500 -10.275000 -23.452400
N -11.741500 -8.828400 -20.951100
N -11.486100 -8.388500 -18.618600
N -11.466900 -11.481700 -23.616900
N -10.731100 -8.135300 -21.215900
C -10.599700 -9.445200 -23.456300
C -10.214000 -8.483800 -22.477300
N -9.809700 -9.359700 -24.482400
N -9.169000 -7.838100 -22.901800
O -8.906100 -8.352500 -24.142500
6
Fragment
H -14.659200 -4.382600 -17.690200
H -14.178900 -5.856200 -17.294100
C -13.915400 -5.018500 -17.729300
C -13.571200 -5.282200 -19.126300
N -13.302000 -5.509000 -20.210900
H -13.138800 -4.641100 -17.267000
34
Fragment
O -17.846100 -8.040800 -22.569800
N -17.469900 -9.068400 -23.381000
N -16.872400 -7.755900 -21.619700
C -16.281800 -9.414300 -22.974700
C -15.919700 -8.592300 -21.863500
N -15.652200 -10.505200 -23.590500
N -14.841800 -8.602200 -19.937200
N -14.706600 -13.055200 -23.767100
N -14.677600 -8.558700 -21.179300
N -14.603200 -10.812700 -22.980700
C -14.013200 -11.988600 -23.509300
O -13.770700 -14.013700 -24.118300
N -13.669800 -8.331300 -17.965900
C -13.614500 -8.512100 -19.254200
C -12.630800 -12.270100 -23.699200
N -12.501800 -13.515500 -24.076200
O -12.369100 -8.254000 -17.555100
C -12.247300 -8.539700 -19.659100
N -11.753500 -10.275000 -23.452400
N -11.741500 -8.828400 -20.951100
N -11.486100 -8.388500 -18.618600
N -11.466900 -11.481700 -23.616900
N -10.731100 -8.135300 -21.215900
C -10.599700 -9.445200 -23.456300
C -10.214000 -8.483800 -22.477300
N -9.809700 -9.359700 -24.482400
N -9.169000 -7.838100 -22.901800
O -8.906100 -8.352500 -24.142500
H -14.659200 -4.382600 -17.690200
H -14.178900 -5.856200 -17.294100
C -13.915400 -5.018500 -17.729300
C -13.571200 -5.282200 -19.126300
N -13.302000 -5.509000 -20.210900
H -13.138800 -4.641100 -17.267000
