28
Fragment
O -17.846100 -8.040800 -22.569800
N -17.469900 -9.068400 -23.381000
N -16.872400 -7.755900 -21.619700
C -16.281800 -9.414300 -22.974700
C -15.919700 -8.592300 -21.863500
N -15.652200 -10.505200 -23.590500
N -14.841800 -8.602200 -19.937200
N -14.706600 -13.055200 -23.767100
N -14.677600 -8.558700 -21.179300
N -14.603200 -10.812700 -22.980700
C -14.013200 -11.988600 -23.509300
O -13.770700 -14.013700 -24.118300
N -13.669800 -8.331300 -17.965900
C -13.614500 -8.512100 -19.254200
C -12.630800 -12.270100 -23.699200
N -12.501800 -13.515500 -24.076200
O -12.369100 -8.254000 -17.555100
C -12.247300 -8.539700 -19.659100
N -11.753500 -10.275000 -23.452400
N -11.741500 -8.828400 -20.951100
N -11.486100 -8.388500 -18.618600
N -11.466900 -11.481700 -23.616900
N -10.731100 -8.135300 -21.215900
C -10.599700 -9.445200 -23.456300
C -10.214000 -8.483800 -22.477300
N -9.809700 -9.359700 -24.482400
N -9.169000 -7.838100 -22.901800
O -8.906100 -8.352500 -24.142500
28
Fragment
O -13.975900 -8.398200 -14.106500
N -13.599800 -7.370600 -14.917600
N -13.002200 -8.683100 -13.156400
C -12.411700 -7.024700 -14.511300
C -12.049500 -7.846700 -13.400100
N -11.782100 -5.933800 -15.127100
N -10.971600 -7.836800 -11.473800
N -10.836500 -3.383800 -15.303700
N -10.807500 -7.880300 -12.715900
N -10.733000 -5.626300 -14.517300
C -10.143000 -4.450400 -15.045900
O -9.900600 -2.425300 -15.654900
N -9.799700 -8.107700 -9.502500
C -9.744300 -7.926900 -10.790800
C -8.760700 -4.168900 -15.235800
N -8.631700 -2.923500 -15.612800
O -8.499000 -8.185000 -9.091700
C -8.377200 -7.899300 -11.195700
N -7.883400 -6.164000 -14.989000
N -7.871300 -7.610600 -12.487700
N -7.616000 -8.050500 -10.155200
N -7.596800 -4.957300 -15.153500
N -6.861000 -8.303700 -12.752500
C -6.729600 -6.993800 -14.992900
C -6.343900 -7.955200 -14.013900
N -5.939500 -7.079300 -16.019000
N -5.298800 -8.600900 -14.438400
O -5.036000 -8.086500 -15.679100
56
Fragment
O -17.846100 -8.040800 -22.569800
N -17.469900 -9.068400 -23.381000
N -16.872400 -7.755900 -21.619700
C -16.281800 -9.414300 -22.974700
C -15.919700 -8.592300 -21.863500
N -15.652200 -10.505200 -23.590500
N -14.841800 -8.602200 -19.937200
N -14.706600 -13.055200 -23.767100
N -14.677600 -8.558700 -21.179300
N -14.603200 -10.812700 -22.980700
C -14.013200 -11.988600 -23.509300
O -13.770700 -14.013700 -24.118300
N -13.669800 -8.331300 -17.965900
C -13.614500 -8.512100 -19.254200
C -12.630800 -12.270100 -23.699200
N -12.501800 -13.515500 -24.076200
O -12.369100 -8.254000 -17.555100
C -12.247300 -8.539700 -19.659100
N -11.753500 -10.275000 -23.452400
N -11.741500 -8.828400 -20.951100
N -11.486100 -8.388500 -18.618600
N -11.466900 -11.481700 -23.616900
N -10.731100 -8.135300 -21.215900
C -10.599700 -9.445200 -23.456300
C -10.214000 -8.483800 -22.477300
N -9.809700 -9.359700 -24.482400
N -9.169000 -7.838100 -22.901800
O -8.906100 -8.352500 -24.142500
O -13.975900 -8.398200 -14.106500
N -13.599800 -7.370600 -14.917600
N -13.002200 -8.683100 -13.156400
C -12.411700 -7.024700 -14.511300
C -12.049500 -7.846700 -13.400100
N -11.782100 -5.933800 -15.127100
N -10.971600 -7.836800 -11.473800
N -10.836500 -3.383800 -15.303700
N -10.807500 -7.880300 -12.715900
N -10.733000 -5.626300 -14.517300
C -10.143000 -4.450400 -15.045900
O -9.900600 -2.425300 -15.654900
N -9.799700 -8.107700 -9.502500
C -9.744300 -7.926900 -10.790800
C -8.760700 -4.168900 -15.235800
N -8.631700 -2.923500 -15.612800
O -8.499000 -8.185000 -9.091700
C -8.377200 -7.899300 -11.195700
N -7.883400 -6.164000 -14.989000
N -7.871300 -7.610600 -12.487700
N -7.616000 -8.050500 -10.155200
N -7.596800 -4.957300 -15.153500
N -6.861000 -8.303700 -12.752500
C -6.729600 -6.993800 -14.992900
C -6.343900 -7.955200 -14.013900
N -5.939500 -7.079300 -16.019000
N -5.298800 -8.600900 -14.438400
O -5.036000 -8.086500 -15.679100
