28
Fragment
O -17.846100 -8.040800 -22.569800
N -17.469900 -9.068400 -23.381000
N -16.872400 -7.755900 -21.619700
C -16.281800 -9.414300 -22.974700
C -15.919700 -8.592300 -21.863500
N -15.652200 -10.505200 -23.590500
N -14.841800 -8.602200 -19.937200
N -14.706600 -13.055200 -23.767100
N -14.677600 -8.558700 -21.179300
N -14.603200 -10.812700 -22.980700
C -14.013200 -11.988600 -23.509300
O -13.770700 -14.013700 -24.118300
N -13.669800 -8.331300 -17.965900
C -13.614500 -8.512100 -19.254200
C -12.630800 -12.270100 -23.699200
N -12.501800 -13.515500 -24.076200
O -12.369100 -8.254000 -17.555100
C -12.247300 -8.539700 -19.659100
N -11.753500 -10.275000 -23.452400
N -11.741500 -8.828400 -20.951100
N -11.486100 -8.388500 -18.618600
N -11.466900 -11.481700 -23.616900
N -10.731100 -8.135300 -21.215900
C -10.599700 -9.445200 -23.456300
C -10.214000 -8.483800 -22.477300
N -9.809700 -9.359700 -24.482400
N -9.169000 -7.838100 -22.901800
O -8.906100 -8.352500 -24.142500
28
Fragment
O -17.846100 -1.465200 -22.569800
N -17.469900 -2.492800 -23.381000
N -16.872400 -1.180300 -21.619700
C -16.281800 -2.838700 -22.974700
C -15.919700 -2.016700 -21.863500
N -15.652200 -3.929600 -23.590500
N -14.841800 -2.026600 -19.937200
N -14.706600 -6.479600 -23.767100
N -14.677600 -1.983100 -21.179300
N -14.603200 -4.237100 -22.980700
C -14.013200 -5.413000 -23.509300
O -13.770700 -7.438100 -24.118300
N -13.669800 -1.755700 -17.965900
C -13.614500 -1.936500 -19.254200
C -12.630800 -5.694500 -23.699200
N -12.501800 -6.939900 -24.076200
O -12.369100 -1.678400 -17.555100
C -12.247300 -1.964100 -19.659100
N -11.753500 -3.699400 -23.452400
N -11.741500 -2.252800 -20.951100
N -11.486100 -1.812900 -18.618600
N -11.466900 -4.906100 -23.616900
N -10.731100 -1.559700 -21.215900
C -10.599700 -2.869600 -23.456300
C -10.214000 -1.908200 -22.477300
N -9.809700 -2.784100 -24.482400
N -9.169000 -1.262500 -22.901800
O -8.906100 -1.776900 -24.142500
56
Fragment
O -17.846100 -8.040800 -22.569800
N -17.469900 -9.068400 -23.381000
N -16.872400 -7.755900 -21.619700
C -16.281800 -9.414300 -22.974700
C -15.919700 -8.592300 -21.863500
N -15.652200 -10.505200 -23.590500
N -14.841800 -8.602200 -19.937200
N -14.706600 -13.055200 -23.767100
N -14.677600 -8.558700 -21.179300
N -14.603200 -10.812700 -22.980700
C -14.013200 -11.988600 -23.509300
O -13.770700 -14.013700 -24.118300
N -13.669800 -8.331300 -17.965900
C -13.614500 -8.512100 -19.254200
C -12.630800 -12.270100 -23.699200
N -12.501800 -13.515500 -24.076200
O -12.369100 -8.254000 -17.555100
C -12.247300 -8.539700 -19.659100
N -11.753500 -10.275000 -23.452400
N -11.741500 -8.828400 -20.951100
N -11.486100 -8.388500 -18.618600
N -11.466900 -11.481700 -23.616900
N -10.731100 -8.135300 -21.215900
C -10.599700 -9.445200 -23.456300
C -10.214000 -8.483800 -22.477300
N -9.809700 -9.359700 -24.482400
N -9.169000 -7.838100 -22.901800
O -8.906100 -8.352500 -24.142500
O -17.846100 -1.465200 -22.569800
N -17.469900 -2.492800 -23.381000
N -16.872400 -1.180300 -21.619700
C -16.281800 -2.838700 -22.974700
C -15.919700 -2.016700 -21.863500
N -15.652200 -3.929600 -23.590500
N -14.841800 -2.026600 -19.937200
N -14.706600 -6.479600 -23.767100
N -14.677600 -1.983100 -21.179300
N -14.603200 -4.237100 -22.980700
C -14.013200 -5.413000 -23.509300
O -13.770700 -7.438100 -24.118300
N -13.669800 -1.755700 -17.965900
C -13.614500 -1.936500 -19.254200
C -12.630800 -5.694500 -23.699200
N -12.501800 -6.939900 -24.076200
O -12.369100 -1.678400 -17.555100
C -12.247300 -1.964100 -19.659100
N -11.753500 -3.699400 -23.452400
N -11.741500 -2.252800 -20.951100
N -11.486100 -1.812900 -18.618600
N -11.466900 -4.906100 -23.616900
N -10.731100 -1.559700 -21.215900
C -10.599700 -2.869600 -23.456300
C -10.214000 -1.908200 -22.477300
N -9.809700 -2.784100 -24.482400
N -9.169000 -1.262500 -22.901800
O -8.906100 -1.776900 -24.142500
