28
Fragment
O -17.846100 -8.040800 -22.569800
N -17.469900 -9.068400 -23.381000
N -16.872400 -7.755900 -21.619700
C -16.281800 -9.414300 -22.974700
C -15.919700 -8.592300 -21.863500
N -15.652200 -10.505200 -23.590500
N -14.841800 -8.602200 -19.937200
N -14.706600 -13.055200 -23.767100
N -14.677600 -8.558700 -21.179300
N -14.603200 -10.812700 -22.980700
C -14.013200 -11.988600 -23.509300
O -13.770700 -14.013700 -24.118300
N -13.669800 -8.331300 -17.965900
C -13.614500 -8.512100 -19.254200
C -12.630800 -12.270100 -23.699200
N -12.501800 -13.515500 -24.076200
O -12.369100 -8.254000 -17.555100
C -12.247300 -8.539700 -19.659100
N -11.753500 -10.275000 -23.452400
N -11.741500 -8.828400 -20.951100
N -11.486100 -8.388500 -18.618600
N -11.466900 -11.481700 -23.616900
N -10.731100 -8.135300 -21.215900
C -10.599700 -9.445200 -23.456300
C -10.214000 -8.483800 -22.477300
N -9.809700 -9.359700 -24.482400
N -9.169000 -7.838100 -22.901800
O -8.906100 -8.352500 -24.142500
28
Fragment
O -21.716200 -8.398200 -31.033200
N -21.340100 -7.370600 -31.844400
N -20.742500 -8.683100 -30.083100
C -20.152000 -7.024700 -31.438100
C -19.789800 -7.846700 -30.326900
N -19.522400 -5.933800 -32.053900
N -18.711900 -7.836800 -28.400600
N -18.576700 -3.383800 -32.230500
N -18.547800 -7.880300 -29.642700
N -18.473300 -5.626300 -31.444100
C -17.883300 -4.450400 -31.972700
O -17.640800 -2.425300 -32.581700
N -17.539900 -8.107700 -26.429300
C -17.484600 -7.926900 -27.717600
C -16.501000 -4.168900 -32.162600
N -16.372000 -2.923500 -32.539600
O -16.239300 -8.185000 -26.018500
C -16.117400 -7.899300 -28.122500
N -15.623700 -6.164000 -31.915800
N -15.611600 -7.610600 -29.414500
N -15.356300 -8.050500 -27.082000
N -15.337100 -4.957300 -32.080300
N -14.601200 -8.303700 -29.679300
C -14.469900 -6.993800 -31.919700
C -14.084100 -7.955200 -30.940700
N -13.679800 -7.079300 -32.945800
N -13.039100 -8.600900 -31.365200
O -12.776300 -8.086500 -32.605900
56
Fragment
O -17.846100 -8.040800 -22.569800
N -17.469900 -9.068400 -23.381000
N -16.872400 -7.755900 -21.619700
C -16.281800 -9.414300 -22.974700
C -15.919700 -8.592300 -21.863500
N -15.652200 -10.505200 -23.590500
N -14.841800 -8.602200 -19.937200
N -14.706600 -13.055200 -23.767100
N -14.677600 -8.558700 -21.179300
N -14.603200 -10.812700 -22.980700
C -14.013200 -11.988600 -23.509300
O -13.770700 -14.013700 -24.118300
N -13.669800 -8.331300 -17.965900
C -13.614500 -8.512100 -19.254200
C -12.630800 -12.270100 -23.699200
N -12.501800 -13.515500 -24.076200
O -12.369100 -8.254000 -17.555100
C -12.247300 -8.539700 -19.659100
N -11.753500 -10.275000 -23.452400
N -11.741500 -8.828400 -20.951100
N -11.486100 -8.388500 -18.618600
N -11.466900 -11.481700 -23.616900
N -10.731100 -8.135300 -21.215900
C -10.599700 -9.445200 -23.456300
C -10.214000 -8.483800 -22.477300
N -9.809700 -9.359700 -24.482400
N -9.169000 -7.838100 -22.901800
O -8.906100 -8.352500 -24.142500
O -21.716200 -8.398200 -31.033200
N -21.340100 -7.370600 -31.844400
N -20.742500 -8.683100 -30.083100
C -20.152000 -7.024700 -31.438100
C -19.789800 -7.846700 -30.326900
N -19.522400 -5.933800 -32.053900
N -18.711900 -7.836800 -28.400600
N -18.576700 -3.383800 -32.230500
N -18.547800 -7.880300 -29.642700
N -18.473300 -5.626300 -31.444100
C -17.883300 -4.450400 -31.972700
O -17.640800 -2.425300 -32.581700
N -17.539900 -8.107700 -26.429300
C -17.484600 -7.926900 -27.717600
C -16.501000 -4.168900 -32.162600
N -16.372000 -2.923500 -32.539600
O -16.239300 -8.185000 -26.018500
C -16.117400 -7.899300 -28.122500
N -15.623700 -6.164000 -31.915800
N -15.611600 -7.610600 -29.414500
N -15.356300 -8.050500 -27.082000
N -15.337100 -4.957300 -32.080300
N -14.601200 -8.303700 -29.679300
C -14.469900 -6.993800 -31.919700
C -14.084100 -7.955200 -30.940700
N -13.679800 -7.079300 -32.945800
N -13.039100 -8.600900 -31.365200
O -12.776300 -8.086500 -32.605900
