14
Fragment
H -7.508100 -30.253400 -14.764700
C -7.021800 -29.524900 -15.077500
H -6.950700 -28.574000 -13.290100
H -6.910400 -30.159200 -16.994200
C -6.678100 -28.506100 -14.176900
C -6.669300 -29.487200 -16.397600
C -5.956800 -27.422400 -14.567500
C -5.921600 -28.371200 -16.790800
H -5.729800 -26.748900 -13.968400
C -5.573400 -27.367000 -15.904800
H -5.431200 -28.410500 -18.706200
N -5.370000 -27.974400 -17.967600
N -4.829200 -26.429600 -16.580300
N -4.715200 -26.807400 -17.822700
14
Fragment
H -10.018900 -23.059600 -8.484500
C -9.532700 -23.788100 -8.797300
H -9.461600 -24.739000 -7.009900
H -9.421300 -23.153800 -10.714000
C -9.188900 -24.806900 -7.896700
C -9.180100 -23.825800 -10.117400
C -8.467600 -25.890600 -8.287300
C -8.432400 -24.941800 -10.510700
H -8.240600 -26.564100 -7.688200
C -8.084300 -25.946000 -9.624600
H -7.942000 -24.902500 -12.426000
N -7.880800 -25.338600 -11.687400
N -7.340000 -26.883400 -10.300100
N -7.226100 -26.505600 -11.542500
28
Fragment
H -7.508100 -30.253400 -14.764700
C -7.021800 -29.524900 -15.077500
H -6.950700 -28.574000 -13.290100
H -6.910400 -30.159200 -16.994200
C -6.678100 -28.506100 -14.176900
C -6.669300 -29.487200 -16.397600
C -5.956800 -27.422400 -14.567500
C -5.921600 -28.371200 -16.790800
H -5.729800 -26.748900 -13.968400
C -5.573400 -27.367000 -15.904800
H -5.431200 -28.410500 -18.706200
N -5.370000 -27.974400 -17.967600
N -4.829200 -26.429600 -16.580300
N -4.715200 -26.807400 -17.822700
H -10.018900 -23.059600 -8.484500
C -9.532700 -23.788100 -8.797300
H -9.461600 -24.739000 -7.009900
H -9.421300 -23.153800 -10.714000
C -9.188900 -24.806900 -7.896700
C -9.180100 -23.825800 -10.117400
C -8.467600 -25.890600 -8.287300
C -8.432400 -24.941800 -10.510700
H -8.240600 -26.564100 -7.688200
C -8.084300 -25.946000 -9.624600
H -7.942000 -24.902500 -12.426000
N -7.880800 -25.338600 -11.687400
N -7.340000 -26.883400 -10.300100
N -7.226100 -26.505600 -11.542500
