19
Fragment
H -19.061600 -9.194800 -28.076300
H -18.828600 -9.624300 -25.424500
H -18.230500 -8.537000 -23.479100
C -18.221100 -8.922300 -25.467900
C -18.113400 -9.271700 -27.954100
H -17.873300 -10.198700 -27.889800
C -17.857800 -8.275800 -24.290400
C -17.712100 -8.561100 -26.691300
H -17.661100 -8.874700 -28.701200
C -16.950900 -7.253700 -24.334900
C -16.791400 -7.510700 -26.729200
H -16.699000 -6.823500 -23.549700
C -16.399000 -6.851300 -25.556300
O -16.291600 -7.168200 -27.941200
H -15.753400 -6.555900 -27.851700
C -15.401300 -5.767200 -25.625700
O -15.045300 -5.295400 -24.459700
O -14.935200 -5.362200 -26.690600
H -14.490300 -4.700200 -24.564100
19
Fragment
H -18.356800 -7.371700 -20.720300
O -17.912000 -8.033700 -18.593800
O -17.801800 -7.966900 -20.824700
C -17.445800 -8.438700 -19.658700
H -17.093800 -9.227400 -17.432700
O -16.555500 -9.839700 -17.343200
C -16.448100 -9.522800 -19.728100
H -16.148200 -9.495000 -21.734700
C -16.055700 -10.182200 -18.555200
C -15.896300 -9.925200 -20.949500
H -15.186000 -11.546200 -16.583100
C -15.135000 -11.232600 -18.593000
C -14.989300 -10.947300 -20.994000
H -14.973800 -12.870200 -17.394600
C -14.733700 -11.943200 -17.330300
C -14.626000 -11.593800 -19.816500
H -14.616700 -11.208500 -21.805300
H -14.018500 -12.295800 -19.859900
H -13.785600 -11.866300 -17.208100
38
Fragment
H -19.061600 -9.194800 -28.076300
H -18.828600 -9.624300 -25.424500
H -18.230500 -8.537000 -23.479100
C -18.221100 -8.922300 -25.467900
C -18.113400 -9.271700 -27.954100
H -17.873300 -10.198700 -27.889800
C -17.857800 -8.275800 -24.290400
C -17.712100 -8.561100 -26.691300
H -17.661100 -8.874700 -28.701200
C -16.950900 -7.253700 -24.334900
C -16.791400 -7.510700 -26.729200
H -16.699000 -6.823500 -23.549700
C -16.399000 -6.851300 -25.556300
O -16.291600 -7.168200 -27.941200
H -15.753400 -6.555900 -27.851700
C -15.401300 -5.767200 -25.625700
O -15.045300 -5.295400 -24.459700
O -14.935200 -5.362200 -26.690600
H -14.490300 -4.700200 -24.564100
H -18.356800 -7.371700 -20.720300
O -17.912000 -8.033700 -18.593800
O -17.801800 -7.966900 -20.824700
C -17.445800 -8.438700 -19.658700
H -17.093800 -9.227400 -17.432700
O -16.555500 -9.839700 -17.343200
C -16.448100 -9.522800 -19.728100
H -16.148200 -9.495000 -21.734700
C -16.055700 -10.182200 -18.555200
C -15.896300 -9.925200 -20.949500
H -15.186000 -11.546200 -16.583100
C -15.135000 -11.232600 -18.593000
C -14.989300 -10.947300 -20.994000
H -14.973800 -12.870200 -17.394600
C -14.733700 -11.943200 -17.330300
C -14.626000 -11.593800 -19.816500
H -14.616700 -11.208500 -21.805300
H -14.018500 -12.295800 -19.859900
H -13.785600 -11.866300 -17.208100
