19
Fragment
H -19.061600 -9.194800 -28.076300
H -18.828600 -9.624300 -25.424500
H -18.230500 -8.537000 -23.479100
C -18.221100 -8.922300 -25.467900
C -18.113400 -9.271700 -27.954100
H -17.873300 -10.198700 -27.889800
C -17.857800 -8.275800 -24.290400
C -17.712100 -8.561100 -26.691300
H -17.661100 -8.874700 -28.701200
C -16.950900 -7.253700 -24.334900
C -16.791400 -7.510700 -26.729200
H -16.699000 -6.823500 -23.549700
C -16.399000 -6.851300 -25.556300
O -16.291600 -7.168200 -27.941200
H -15.753400 -6.555900 -27.851700
C -15.401300 -5.767200 -25.625700
O -15.045300 -5.295400 -24.459700
O -14.935200 -5.362200 -26.690600
H -14.490300 -4.700200 -24.564100
19
Fragment
H -19.061600 -3.851800 -28.076300
H -18.828600 -4.281300 -25.424500
H -18.230500 -3.194000 -23.479100
C -18.221100 -3.579300 -25.467900
C -18.113400 -3.928700 -27.954100
H -17.873300 -4.855700 -27.889800
C -17.857800 -2.932800 -24.290400
C -17.712100 -3.218100 -26.691300
H -17.661100 -3.531700 -28.701200
C -16.950900 -1.910700 -24.334900
C -16.791400 -2.167700 -26.729200
H -16.699000 -1.480500 -23.549700
C -16.399000 -1.508300 -25.556300
O -16.291600 -1.825200 -27.941200
H -15.753400 -1.212900 -27.851700
C -15.401300 -0.424200 -25.625700
O -15.045300 0.047600 -24.459700
O -14.935200 -0.019200 -26.690600
H -14.490300 0.642800 -24.564100
38
Fragment
H -19.061600 -9.194800 -28.076300
H -18.828600 -9.624300 -25.424500
H -18.230500 -8.537000 -23.479100
C -18.221100 -8.922300 -25.467900
C -18.113400 -9.271700 -27.954100
H -17.873300 -10.198700 -27.889800
C -17.857800 -8.275800 -24.290400
C -17.712100 -8.561100 -26.691300
H -17.661100 -8.874700 -28.701200
C -16.950900 -7.253700 -24.334900
C -16.791400 -7.510700 -26.729200
H -16.699000 -6.823500 -23.549700
C -16.399000 -6.851300 -25.556300
O -16.291600 -7.168200 -27.941200
H -15.753400 -6.555900 -27.851700
C -15.401300 -5.767200 -25.625700
O -15.045300 -5.295400 -24.459700
O -14.935200 -5.362200 -26.690600
H -14.490300 -4.700200 -24.564100
H -19.061600 -3.851800 -28.076300
H -18.828600 -4.281300 -25.424500
H -18.230500 -3.194000 -23.479100
C -18.221100 -3.579300 -25.467900
C -18.113400 -3.928700 -27.954100
H -17.873300 -4.855700 -27.889800
C -17.857800 -2.932800 -24.290400
C -17.712100 -3.218100 -26.691300
H -17.661100 -3.531700 -28.701200
C -16.950900 -1.910700 -24.334900
C -16.791400 -2.167700 -26.729200
H -16.699000 -1.480500 -23.549700
C -16.399000 -1.508300 -25.556300
O -16.291600 -1.825200 -27.941200
H -15.753400 -1.212900 -27.851700
C -15.401300 -0.424200 -25.625700
O -15.045300 0.047600 -24.459700
O -14.935200 -0.019200 -26.690600
H -14.490300 0.642800 -24.564100
