14
Fragment
H -7.508100 -30.253400 -14.764700
C -7.021800 -29.524900 -15.077500
H -6.950700 -28.574000 -13.290100
H -6.910400 -30.159200 -16.994200
C -6.678100 -28.506100 -14.176900
C -6.669300 -29.487200 -16.397600
C -5.956800 -27.422400 -14.567500
C -5.921600 -28.371200 -16.790800
H -5.729800 -26.748900 -13.968400
C -5.573400 -27.367000 -15.904800
H -5.431200 -28.410500 -18.706200
N -5.370000 -27.974400 -17.967600
N -4.829200 -26.429600 -16.580300
N -4.715200 -26.807400 -17.822700
14
Fragment
H -4.997300 -23.059600 -21.044900
C -4.511000 -23.788100 -21.357700
H -4.439900 -24.739000 -19.570300
H -4.399600 -23.153800 -23.274400
C -4.167200 -24.806900 -20.457100
C -4.158500 -23.825800 -22.677800
C -3.446000 -25.890600 -20.847700
C -3.410700 -24.941800 -23.071000
H -3.219000 -26.564100 -20.248600
C -3.062600 -25.946000 -22.185000
H -2.920300 -24.902500 -24.986400
N -2.859200 -25.338600 -24.247800
N -2.318400 -26.883400 -22.860500
N -2.204400 -26.505600 -24.102900
28
Fragment
H -7.508100 -30.253400 -14.764700
C -7.021800 -29.524900 -15.077500
H -6.950700 -28.574000 -13.290100
H -6.910400 -30.159200 -16.994200
C -6.678100 -28.506100 -14.176900
C -6.669300 -29.487200 -16.397600
C -5.956800 -27.422400 -14.567500
C -5.921600 -28.371200 -16.790800
H -5.729800 -26.748900 -13.968400
C -5.573400 -27.367000 -15.904800
H -5.431200 -28.410500 -18.706200
N -5.370000 -27.974400 -17.967600
N -4.829200 -26.429600 -16.580300
N -4.715200 -26.807400 -17.822700
H -4.997300 -23.059600 -21.044900
C -4.511000 -23.788100 -21.357700
H -4.439900 -24.739000 -19.570300
H -4.399600 -23.153800 -23.274400
C -4.167200 -24.806900 -20.457100
C -4.158500 -23.825800 -22.677800
C -3.446000 -25.890600 -20.847700
C -3.410700 -24.941800 -23.071000
H -3.219000 -26.564100 -20.248600
C -3.062600 -25.946000 -22.185000
H -2.920300 -24.902500 -24.986400
N -2.859200 -25.338600 -24.247800
N -2.318400 -26.883400 -22.860500
N -2.204400 -26.505600 -24.102900
