14
Fragment
H -7.508100 -30.253400 -14.764700
C -7.021800 -29.524900 -15.077500
H -6.950700 -28.574000 -13.290100
H -6.910400 -30.159200 -16.994200
C -6.678100 -28.506100 -14.176900
C -6.669300 -29.487200 -16.397600
C -5.956800 -27.422400 -14.567500
C -5.921600 -28.371200 -16.790800
H -5.729800 -26.748900 -13.968400
C -5.573400 -27.367000 -15.904800
H -5.431200 -28.410500 -18.706200
N -5.370000 -27.974400 -17.967600
N -4.829200 -26.429600 -16.580300
N -4.715200 -26.807400 -17.822700
16
Fragment
H -11.353300 -35.654000 -13.045200
H -11.253200 -36.100000 -15.312400
O -10.969700 -34.931400 -12.994200
C -10.826300 -35.275100 -15.371400
C -10.591600 -34.535500 -14.225400
H -10.590500 -35.296800 -17.363500
C -10.429500 -34.794000 -16.597800
C -9.945400 -33.319900 -14.321200
C -9.787200 -33.558400 -16.703600
H -9.775900 -32.826600 -13.551400
C -9.551800 -32.832800 -15.538600
O -9.471700 -33.646700 -19.071700
C -9.378400 -33.044100 -18.021900
H -9.123300 -32.009100 -15.587400
O -8.886400 -31.807400 -17.974800
H -8.675500 -31.568400 -18.730000
30
Fragment
H -7.508100 -30.253400 -14.764700
C -7.021800 -29.524900 -15.077500
H -6.950700 -28.574000 -13.290100
H -6.910400 -30.159200 -16.994200
C -6.678100 -28.506100 -14.176900
C -6.669300 -29.487200 -16.397600
C -5.956800 -27.422400 -14.567500
C -5.921600 -28.371200 -16.790800
H -5.729800 -26.748900 -13.968400
C -5.573400 -27.367000 -15.904800
H -5.431200 -28.410500 -18.706200
N -5.370000 -27.974400 -17.967600
N -4.829200 -26.429600 -16.580300
N -4.715200 -26.807400 -17.822700
H -11.353300 -35.654000 -13.045200
H -11.253200 -36.100000 -15.312400
O -10.969700 -34.931400 -12.994200
C -10.826300 -35.275100 -15.371400
C -10.591600 -34.535500 -14.225400
H -10.590500 -35.296800 -17.363500
C -10.429500 -34.794000 -16.597800
C -9.945400 -33.319900 -14.321200
C -9.787200 -33.558400 -16.703600
H -9.775900 -32.826600 -13.551400
C -9.551800 -32.832800 -15.538600
O -9.471700 -33.646700 -19.071700
C -9.378400 -33.044100 -18.021900
H -9.123300 -32.009100 -15.587400
O -8.886400 -31.807400 -17.974800
H -8.675500 -31.568400 -18.730000
