14
Fragment
H -7.508100 -30.253400 -14.764700
C -7.021800 -29.524900 -15.077500
H -6.950700 -28.574000 -13.290100
H -6.910400 -30.159200 -16.994200
C -6.678100 -28.506100 -14.176900
C -6.669300 -29.487200 -16.397600
C -5.956800 -27.422400 -14.567500
C -5.921600 -28.371200 -16.790800
H -5.729800 -26.748900 -13.968400
C -5.573400 -27.367000 -15.904800
H -5.431200 -28.410500 -18.706200
N -5.370000 -27.974400 -17.967600
N -4.829200 -26.429600 -16.580300
N -4.715200 -26.807400 -17.822700
14
Fragment
H -5.109600 -28.396300 -22.194200
N -4.914000 -29.414900 -20.537500
N -4.804100 -29.113300 -21.831100
N -4.328100 -30.571800 -20.330100
C -4.143000 -30.096300 -22.496500
H -3.966000 -29.640300 -24.494000
C -3.839400 -31.032600 -21.519600
C -3.775400 -30.272500 -23.839600
C -3.168600 -32.214900 -21.838700
C -3.117400 -31.437300 -24.119700
H -2.961500 -32.844400 -21.186900
H -2.848100 -31.596800 -24.995200
C -2.831200 -32.406300 -23.138700
H -2.402000 -33.192700 -23.387400
28
Fragment
H -7.508100 -30.253400 -14.764700
C -7.021800 -29.524900 -15.077500
H -6.950700 -28.574000 -13.290100
H -6.910400 -30.159200 -16.994200
C -6.678100 -28.506100 -14.176900
C -6.669300 -29.487200 -16.397600
C -5.956800 -27.422400 -14.567500
C -5.921600 -28.371200 -16.790800
H -5.729800 -26.748900 -13.968400
C -5.573400 -27.367000 -15.904800
H -5.431200 -28.410500 -18.706200
N -5.370000 -27.974400 -17.967600
N -4.829200 -26.429600 -16.580300
N -4.715200 -26.807400 -17.822700
H -5.109600 -28.396300 -22.194200
N -4.914000 -29.414900 -20.537500
N -4.804100 -29.113300 -21.831100
N -4.328100 -30.571800 -20.330100
C -4.143000 -30.096300 -22.496500
H -3.966000 -29.640300 -24.494000
C -3.839400 -31.032600 -21.519600
C -3.775400 -30.272500 -23.839600
C -3.168600 -32.214900 -21.838700
C -3.117400 -31.437300 -24.119700
H -2.961500 -32.844400 -21.186900
H -2.848100 -31.596800 -24.995200
C -2.831200 -32.406300 -23.138700
H -2.402000 -33.192700 -23.387400
