19
Fragment
H -19.061600 -9.194800 -28.076300
H -18.828600 -9.624300 -25.424500
H -18.230500 -8.537000 -23.479100
C -18.221100 -8.922300 -25.467900
C -18.113400 -9.271700 -27.954100
H -17.873300 -10.198700 -27.889800
C -17.857800 -8.275800 -24.290400
C -17.712100 -8.561100 -26.691300
H -17.661100 -8.874700 -28.701200
C -16.950900 -7.253700 -24.334900
C -16.791400 -7.510700 -26.729200
H -16.699000 -6.823500 -23.549700
C -16.399000 -6.851300 -25.556300
O -16.291600 -7.168200 -27.941200
H -15.753400 -6.555900 -27.851700
C -15.401300 -5.767200 -25.625700
O -15.045300 -5.295400 -24.459700
O -14.935200 -5.362200 -26.690600
H -14.490300 -4.700200 -24.564100
14
Fragment
N -13.281400 -3.315900 -24.564600
N -13.110100 -2.866500 -25.781300
H -12.811500 -3.245300 -21.803500
C -12.555400 -2.527200 -23.702900
C -12.390400 -2.592400 -22.314900
N -12.297600 -1.819800 -25.731100
H -12.047400 -1.366700 -26.418900
C -11.910500 -1.553700 -24.457600
C -11.582800 -1.651000 -21.750100
H -11.449500 -1.664900 -20.829000
C -11.088700 -0.591500 -23.870900
C -10.949300 -0.666300 -22.510500
H -10.659800 0.062500 -24.373900
H -10.414700 -0.039500 -22.078900
33
Fragment
H -19.061600 -9.194800 -28.076300
H -18.828600 -9.624300 -25.424500
H -18.230500 -8.537000 -23.479100
C -18.221100 -8.922300 -25.467900
C -18.113400 -9.271700 -27.954100
H -17.873300 -10.198700 -27.889800
C -17.857800 -8.275800 -24.290400
C -17.712100 -8.561100 -26.691300
H -17.661100 -8.874700 -28.701200
C -16.950900 -7.253700 -24.334900
C -16.791400 -7.510700 -26.729200
H -16.699000 -6.823500 -23.549700
C -16.399000 -6.851300 -25.556300
O -16.291600 -7.168200 -27.941200
H -15.753400 -6.555900 -27.851700
C -15.401300 -5.767200 -25.625700
O -15.045300 -5.295400 -24.459700
O -14.935200 -5.362200 -26.690600
H -14.490300 -4.700200 -24.564100
N -13.281400 -3.315900 -24.564600
N -13.110100 -2.866500 -25.781300
H -12.811500 -3.245300 -21.803500
C -12.555400 -2.527200 -23.702900
C -12.390400 -2.592400 -22.314900
N -12.297600 -1.819800 -25.731100
H -12.047400 -1.366700 -26.418900
C -11.910500 -1.553700 -24.457600
C -11.582800 -1.651000 -21.750100
H -11.449500 -1.664900 -20.829000
C -11.088700 -0.591500 -23.870900
C -10.949300 -0.666300 -22.510500
H -10.659800 0.062500 -24.373900
H -10.414700 -0.039500 -22.078900
