19
Fragment
H -19.061600 -9.194800 -28.076300
H -18.828600 -9.624300 -25.424500
H -18.230500 -8.537000 -23.479100
C -18.221100 -8.922300 -25.467900
C -18.113400 -9.271700 -27.954100
H -17.873300 -10.198700 -27.889800
C -17.857800 -8.275800 -24.290400
C -17.712100 -8.561100 -26.691300
H -17.661100 -8.874700 -28.701200
C -16.950900 -7.253700 -24.334900
C -16.791400 -7.510700 -26.729200
H -16.699000 -6.823500 -23.549700
C -16.399000 -6.851300 -25.556300
O -16.291600 -7.168200 -27.941200
H -15.753400 -6.555900 -27.851700
C -15.401300 -5.767200 -25.625700
O -15.045300 -5.295400 -24.459700
O -14.935200 -5.362200 -26.690600
H -14.490300 -4.700200 -24.564100
14
Fragment
H -22.432400 -8.054000 -23.205500
H -22.187400 -7.952000 -20.910500
C -21.897800 -8.680800 -22.773900
C -21.758400 -8.606000 -21.413500
H -21.397700 -9.679400 -24.455400
C -21.264400 -9.665500 -23.534300
C -20.936600 -9.568200 -20.826800
H -20.799700 -9.381200 -18.865500
N -20.549600 -9.834300 -19.553300
C -20.456700 -10.606900 -22.969500
C -20.291700 -10.541700 -21.581500
H -20.035600 -11.259800 -23.480900
N -19.737000 -10.881000 -19.503100
N -19.565700 -11.330400 -20.719800
33
Fragment
H -19.061600 -9.194800 -28.076300
H -18.828600 -9.624300 -25.424500
H -18.230500 -8.537000 -23.479100
C -18.221100 -8.922300 -25.467900
C -18.113400 -9.271700 -27.954100
H -17.873300 -10.198700 -27.889800
C -17.857800 -8.275800 -24.290400
C -17.712100 -8.561100 -26.691300
H -17.661100 -8.874700 -28.701200
C -16.950900 -7.253700 -24.334900
C -16.791400 -7.510700 -26.729200
H -16.699000 -6.823500 -23.549700
C -16.399000 -6.851300 -25.556300
O -16.291600 -7.168200 -27.941200
H -15.753400 -6.555900 -27.851700
C -15.401300 -5.767200 -25.625700
O -15.045300 -5.295400 -24.459700
O -14.935200 -5.362200 -26.690600
H -14.490300 -4.700200 -24.564100
H -22.432400 -8.054000 -23.205500
H -22.187400 -7.952000 -20.910500
C -21.897800 -8.680800 -22.773900
C -21.758400 -8.606000 -21.413500
H -21.397700 -9.679400 -24.455400
C -21.264400 -9.665500 -23.534300
C -20.936600 -9.568200 -20.826800
H -20.799700 -9.381200 -18.865500
N -20.549600 -9.834300 -19.553300
C -20.456700 -10.606900 -22.969500
C -20.291700 -10.541700 -21.581500
H -20.035600 -11.259800 -23.480900
N -19.737000 -10.881000 -19.503100
N -19.565700 -11.330400 -20.719800
