32
Fragment
H -14.340300 -30.729100 -29.101200
H -14.171000 -28.690900 -27.994000
C -13.523800 -30.288000 -29.032900
C -13.415300 -29.075500 -28.374400
H -12.984200 -32.598200 -30.283700
C -12.379600 -30.819800 -29.586500
N -12.236500 -32.040700 -30.284600
C -12.202400 -28.433000 -28.274200
H -12.157400 -27.613300 -27.836700
C -11.150500 -30.193400 -29.486300
C -11.041500 -28.978900 -28.814200
C -10.957400 -32.255800 -30.655100
H -10.877800 -31.867100 -27.164600
O -10.543100 -33.223200 -31.288000
N -10.488200 -28.944600 -33.035900
H -10.222000 -28.547900 -28.727600
N -10.138200 -32.311200 -27.082200
C -10.091100 -31.077000 -30.147000
C -10.015500 -29.607300 -32.252200
H -10.010000 -32.455200 -26.207700
C -9.336100 -30.431200 -31.327200
C -9.075100 -32.100700 -27.925600
C -9.034900 -31.592200 -29.212900
C -8.008700 -30.598200 -31.559600
H -7.974500 -29.826800 -33.459700
H -7.802100 -33.129900 -26.895800
N -7.786600 -32.449600 -27.613500
C -7.691900 -31.697900 -29.552300
N -7.321200 -30.083000 -32.599200
O -7.158200 -31.293300 -30.748900
N -6.910000 -32.225600 -28.654700
H -6.675000 -30.282000 -32.628100
9
Fragment
H -8.717300 -35.331300 -25.804500
H -8.032400 -36.723100 -26.023200
C -7.944500 -35.778500 -26.157600
H -7.870800 -35.593200 -27.096300
H -6.778800 -35.597200 -24.555900
C -6.762100 -35.303100 -25.478700
O -6.688200 -33.926300 -25.521000
H -6.158200 -33.645500 -24.886300
H -5.973900 -35.679800 -25.900200
41
Fragment
H -14.340300 -30.729100 -29.101200
H -14.171000 -28.690900 -27.994000
C -13.523800 -30.288000 -29.032900
C -13.415300 -29.075500 -28.374400
H -12.984200 -32.598200 -30.283700
C -12.379600 -30.819800 -29.586500
N -12.236500 -32.040700 -30.284600
C -12.202400 -28.433000 -28.274200
H -12.157400 -27.613300 -27.836700
C -11.150500 -30.193400 -29.486300
C -11.041500 -28.978900 -28.814200
C -10.957400 -32.255800 -30.655100
H -10.877800 -31.867100 -27.164600
O -10.543100 -33.223200 -31.288000
N -10.488200 -28.944600 -33.035900
H -10.222000 -28.547900 -28.727600
N -10.138200 -32.311200 -27.082200
C -10.091100 -31.077000 -30.147000
C -10.015500 -29.607300 -32.252200
H -10.010000 -32.455200 -26.207700
C -9.336100 -30.431200 -31.327200
C -9.075100 -32.100700 -27.925600
C -9.034900 -31.592200 -29.212900
C -8.008700 -30.598200 -31.559600
H -7.974500 -29.826800 -33.459700
H -7.802100 -33.129900 -26.895800
N -7.786600 -32.449600 -27.613500
C -7.691900 -31.697900 -29.552300
N -7.321200 -30.083000 -32.599200
O -7.158200 -31.293300 -30.748900
N -6.910000 -32.225600 -28.654700
H -6.675000 -30.282000 -32.628100
H -8.717300 -35.331300 -25.804500
H -8.032400 -36.723100 -26.023200
C -7.944500 -35.778500 -26.157600
H -7.870800 -35.593200 -27.096300
H -6.778800 -35.597200 -24.555900
C -6.762100 -35.303100 -25.478700
O -6.688200 -33.926300 -25.521000
H -6.158200 -33.645500 -24.886300
H -5.973900 -35.679800 -25.900200
