32
Fragment
H -14.340300 -30.729100 -29.101200
H -14.171000 -28.690900 -27.994000
C -13.523800 -30.288000 -29.032900
C -13.415300 -29.075500 -28.374400
H -12.984200 -32.598200 -30.283700
C -12.379600 -30.819800 -29.586500
N -12.236500 -32.040700 -30.284600
C -12.202400 -28.433000 -28.274200
H -12.157400 -27.613300 -27.836700
C -11.150500 -30.193400 -29.486300
C -11.041500 -28.978900 -28.814200
C -10.957400 -32.255800 -30.655100
H -10.877800 -31.867100 -27.164600
O -10.543100 -33.223200 -31.288000
N -10.488200 -28.944600 -33.035900
H -10.222000 -28.547900 -28.727600
N -10.138200 -32.311200 -27.082200
C -10.091100 -31.077000 -30.147000
C -10.015500 -29.607300 -32.252200
H -10.010000 -32.455200 -26.207700
C -9.336100 -30.431200 -31.327200
C -9.075100 -32.100700 -27.925600
C -9.034900 -31.592200 -29.212900
C -8.008700 -30.598200 -31.559600
H -7.974500 -29.826800 -33.459700
H -7.802100 -33.129900 -26.895800
N -7.786600 -32.449600 -27.613500
C -7.691900 -31.697900 -29.552300
N -7.321200 -30.083000 -32.599200
O -7.158200 -31.293300 -30.748900
N -6.910000 -32.225600 -28.654700
H -6.675000 -30.282000 -32.628100
32
Fragment
H -16.328900 -38.729100 -31.962800
H -15.389700 -36.213500 -31.404600
N -15.187900 -38.830600 -32.051200
N -14.691600 -40.054000 -32.476800
N -14.482300 -36.736000 -31.154700
C -14.205800 -37.994000 -31.666600
H -13.794100 -36.330300 -30.876000
C -13.394100 -39.870500 -32.322800
C -12.997300 -38.647800 -31.858000
O -12.535500 -40.905200 -32.678700
H -11.875800 -39.458200 -28.950900
C -11.603700 -38.570000 -28.930300
C -11.561700 -38.303100 -31.541300
H -11.560900 -38.370600 -26.925400
C -11.413400 -37.915400 -27.720500
C -11.381500 -37.876600 -30.090000
C -11.195900 -40.631800 -32.532400
C -11.134700 -36.988900 -32.290900
O -11.041700 -36.837300 -33.500500
C -11.009400 -36.604300 -27.684100
C -10.997000 -36.553900 -30.030800
N -10.894700 -36.047400 -31.344200
H -10.875500 -36.189300 -26.861600
H -10.874100 -42.350500 -33.498400
H -10.825200 -35.154100 -31.429700
C -10.796400 -35.883200 -28.850600
C -10.719700 -39.456400 -32.012900
H -10.531900 -34.993000 -28.834700
N -10.464500 -41.670100 -32.966900
H -9.466100 -41.677800 -32.796700
C -9.297600 -39.307800 -31.969700
N -8.162200 -39.162600 -31.951400
64
Fragment
H -14.340300 -30.729100 -29.101200
H -14.171000 -28.690900 -27.994000
C -13.523800 -30.288000 -29.032900
C -13.415300 -29.075500 -28.374400
H -12.984200 -32.598200 -30.283700
C -12.379600 -30.819800 -29.586500
N -12.236500 -32.040700 -30.284600
C -12.202400 -28.433000 -28.274200
H -12.157400 -27.613300 -27.836700
C -11.150500 -30.193400 -29.486300
C -11.041500 -28.978900 -28.814200
C -10.957400 -32.255800 -30.655100
H -10.877800 -31.867100 -27.164600
O -10.543100 -33.223200 -31.288000
N -10.488200 -28.944600 -33.035900
H -10.222000 -28.547900 -28.727600
N -10.138200 -32.311200 -27.082200
C -10.091100 -31.077000 -30.147000
C -10.015500 -29.607300 -32.252200
H -10.010000 -32.455200 -26.207700
C -9.336100 -30.431200 -31.327200
C -9.075100 -32.100700 -27.925600
C -9.034900 -31.592200 -29.212900
C -8.008700 -30.598200 -31.559600
H -7.974500 -29.826800 -33.459700
H -7.802100 -33.129900 -26.895800
N -7.786600 -32.449600 -27.613500
C -7.691900 -31.697900 -29.552300
N -7.321200 -30.083000 -32.599200
O -7.158200 -31.293300 -30.748900
N -6.910000 -32.225600 -28.654700
H -6.675000 -30.282000 -32.628100
H -16.328900 -38.729100 -31.962800
H -15.389700 -36.213500 -31.404600
N -15.187900 -38.830600 -32.051200
N -14.691600 -40.054000 -32.476800
N -14.482300 -36.736000 -31.154700
C -14.205800 -37.994000 -31.666600
H -13.794100 -36.330300 -30.876000
C -13.394100 -39.870500 -32.322800
C -12.997300 -38.647800 -31.858000
O -12.535500 -40.905200 -32.678700
H -11.875800 -39.458200 -28.950900
C -11.603700 -38.570000 -28.930300
C -11.561700 -38.303100 -31.541300
H -11.560900 -38.370600 -26.925400
C -11.413400 -37.915400 -27.720500
C -11.381500 -37.876600 -30.090000
C -11.195900 -40.631800 -32.532400
C -11.134700 -36.988900 -32.290900
O -11.041700 -36.837300 -33.500500
C -11.009400 -36.604300 -27.684100
C -10.997000 -36.553900 -30.030800
N -10.894700 -36.047400 -31.344200
H -10.875500 -36.189300 -26.861600
H -10.874100 -42.350500 -33.498400
H -10.825200 -35.154100 -31.429700
C -10.796400 -35.883200 -28.850600
C -10.719700 -39.456400 -32.012900
H -10.531900 -34.993000 -28.834700
N -10.464500 -41.670100 -32.966900
H -9.466100 -41.677800 -32.796700
C -9.297600 -39.307800 -31.969700
N -8.162200 -39.162600 -31.951400
