32
Fragment
H -14.340300 -30.729100 -29.101200
H -14.171000 -28.690900 -27.994000
C -13.523800 -30.288000 -29.032900
C -13.415300 -29.075500 -28.374400
H -12.984200 -32.598200 -30.283700
C -12.379600 -30.819800 -29.586500
N -12.236500 -32.040700 -30.284600
C -12.202400 -28.433000 -28.274200
H -12.157400 -27.613300 -27.836700
C -11.150500 -30.193400 -29.486300
C -11.041500 -28.978900 -28.814200
C -10.957400 -32.255800 -30.655100
H -10.877800 -31.867100 -27.164600
O -10.543100 -33.223200 -31.288000
N -10.488200 -28.944600 -33.035900
H -10.222000 -28.547900 -28.727600
N -10.138200 -32.311200 -27.082200
C -10.091100 -31.077000 -30.147000
C -10.015500 -29.607300 -32.252200
H -10.010000 -32.455200 -26.207700
C -9.336100 -30.431200 -31.327200
C -9.075100 -32.100700 -27.925600
C -9.034900 -31.592200 -29.212900
C -8.008700 -30.598200 -31.559600
H -7.974500 -29.826800 -33.459700
H -7.802100 -33.129900 -26.895800
N -7.786600 -32.449600 -27.613500
C -7.691900 -31.697900 -29.552300
N -7.321200 -30.083000 -32.599200
O -7.158200 -31.293300 -30.748900
N -6.910000 -32.225600 -28.654700
H -6.675000 -30.282000 -32.628100
32
Fragment
N -20.828200 -29.092100 -25.007000
C -19.692800 -29.237300 -24.988800
H -19.524200 -31.607300 -24.161800
N -18.525800 -31.599600 -23.991600
H -18.458500 -24.922500 -28.123800
C -18.270700 -29.385900 -24.945500
C -18.193900 -25.812700 -28.107900
H -18.165200 -25.083600 -25.528800
H -18.116300 -32.280000 -23.460100
H -18.114900 -26.118800 -30.096900
N -18.095600 -25.976900 -25.614200
C -17.993400 -26.483400 -26.927700
C -17.981000 -26.533800 -29.274400
O -17.948700 -26.766800 -23.458000
C -17.855700 -26.918400 -24.667600
C -17.794500 -30.561300 -24.426100
C -17.608900 -27.806100 -26.868500
C -17.577000 -27.844900 -29.237900
H -17.429500 -28.300100 -30.033100
C -17.428700 -28.232600 -25.417100
C -17.386700 -28.499500 -28.028100
H -17.114600 -29.387700 -28.007600
O -16.454800 -30.834700 -24.279800
C -15.993100 -28.577300 -25.100500
C -15.596300 -29.800000 -24.635700
H -15.196300 -26.259800 -26.082400
C -14.784600 -27.923500 -25.291800
N -14.508000 -26.665500 -25.803800
N -14.298800 -29.983500 -24.481700
N -13.802400 -28.760100 -24.907300
H -13.600700 -26.143000 -25.553800
H -12.661500 -28.658600 -24.995700
64
Fragment
H -14.340300 -30.729100 -29.101200
H -14.171000 -28.690900 -27.994000
C -13.523800 -30.288000 -29.032900
C -13.415300 -29.075500 -28.374400
H -12.984200 -32.598200 -30.283700
C -12.379600 -30.819800 -29.586500
N -12.236500 -32.040700 -30.284600
C -12.202400 -28.433000 -28.274200
H -12.157400 -27.613300 -27.836700
C -11.150500 -30.193400 -29.486300
C -11.041500 -28.978900 -28.814200
C -10.957400 -32.255800 -30.655100
H -10.877800 -31.867100 -27.164600
O -10.543100 -33.223200 -31.288000
N -10.488200 -28.944600 -33.035900
H -10.222000 -28.547900 -28.727600
N -10.138200 -32.311200 -27.082200
C -10.091100 -31.077000 -30.147000
C -10.015500 -29.607300 -32.252200
H -10.010000 -32.455200 -26.207700
C -9.336100 -30.431200 -31.327200
C -9.075100 -32.100700 -27.925600
C -9.034900 -31.592200 -29.212900
C -8.008700 -30.598200 -31.559600
H -7.974500 -29.826800 -33.459700
H -7.802100 -33.129900 -26.895800
N -7.786600 -32.449600 -27.613500
C -7.691900 -31.697900 -29.552300
N -7.321200 -30.083000 -32.599200
O -7.158200 -31.293300 -30.748900
N -6.910000 -32.225600 -28.654700
H -6.675000 -30.282000 -32.628100
N -20.828200 -29.092100 -25.007000
C -19.692800 -29.237300 -24.988800
H -19.524200 -31.607300 -24.161800
N -18.525800 -31.599600 -23.991600
H -18.458500 -24.922500 -28.123800
C -18.270700 -29.385900 -24.945500
C -18.193900 -25.812700 -28.107900
H -18.165200 -25.083600 -25.528800
H -18.116300 -32.280000 -23.460100
H -18.114900 -26.118800 -30.096900
N -18.095600 -25.976900 -25.614200
C -17.993400 -26.483400 -26.927700
C -17.981000 -26.533800 -29.274400
O -17.948700 -26.766800 -23.458000
C -17.855700 -26.918400 -24.667600
C -17.794500 -30.561300 -24.426100
C -17.608900 -27.806100 -26.868500
C -17.577000 -27.844900 -29.237900
H -17.429500 -28.300100 -30.033100
C -17.428700 -28.232600 -25.417100
C -17.386700 -28.499500 -28.028100
H -17.114600 -29.387700 -28.007600
O -16.454800 -30.834700 -24.279800
C -15.993100 -28.577300 -25.100500
C -15.596300 -29.800000 -24.635700
H -15.196300 -26.259800 -26.082400
C -14.784600 -27.923500 -25.291800
N -14.508000 -26.665500 -25.803800
N -14.298800 -29.983500 -24.481700
N -13.802400 -28.760100 -24.907300
H -13.600700 -26.143000 -25.553800
H -12.661500 -28.658600 -24.995700
