36
Fragment
O -29.373600 -24.713400 -24.384000
O -28.847100 -25.247000 -21.436900
N -28.509000 -23.946500 -23.997400
O -28.419000 -22.763400 -24.239200
N -28.105400 -25.634800 -22.311800
O -27.882200 -26.783400 -22.637000
H -27.596200 -22.972500 -21.783300
C -27.423200 -24.524600 -23.099600
C -26.860900 -23.452800 -22.179500
O -26.698700 -25.387100 -25.158600
N -26.395400 -25.197800 -23.993300
H -26.300200 -22.869100 -22.679700
O -26.150100 -24.074500 -21.118900
O -25.361300 -25.512900 -23.440000
C -24.810100 -23.827000 -21.094700
H -24.748600 -24.650700 -19.369300
N -24.259500 -24.467400 -20.030700
O -24.216400 -23.163500 -21.900600
O -23.449200 -22.079100 -18.921700
N -22.949500 -24.146500 -19.743100
C -22.666300 -22.910200 -19.291900
H -22.324700 -24.699300 -19.959500
O -21.600900 -23.232400 -16.600000
H -21.525100 -21.077800 -18.212300
O -21.306700 -22.742600 -19.337800
C -20.809500 -21.598400 -18.657400
N -20.521900 -22.733700 -16.400300
H -20.301900 -21.042100 -19.271300
O -19.916500 -22.678200 -15.355200
C -19.839400 -22.102100 -17.616700
O -19.604300 -19.960000 -16.831800
N -18.991200 -20.976700 -17.071100
N -18.911000 -23.161500 -18.199300
O -18.903300 -24.253700 -17.675100
O -18.289500 -22.787700 -19.169600
O -17.798600 -21.165400 -16.921800
10
Fragment
H -29.821700 -27.971800 -25.119800
H -29.514100 -27.952400 -26.613900
C -29.160900 -28.052100 -25.767300
H -28.534500 -29.734600 -23.709700
H -28.523400 -27.352400 -25.614700
C -28.458700 -29.362100 -25.657100
O -28.338500 -30.094500 -26.622500
C -27.896000 -29.744900 -24.331700
H -27.455400 -30.623300 -24.335400
H -27.275500 -29.109000 -23.999200
46
Fragment
O -29.373600 -24.713400 -24.384000
O -28.847100 -25.247000 -21.436900
N -28.509000 -23.946500 -23.997400
O -28.419000 -22.763400 -24.239200
N -28.105400 -25.634800 -22.311800
O -27.882200 -26.783400 -22.637000
H -27.596200 -22.972500 -21.783300
C -27.423200 -24.524600 -23.099600
C -26.860900 -23.452800 -22.179500
O -26.698700 -25.387100 -25.158600
N -26.395400 -25.197800 -23.993300
H -26.300200 -22.869100 -22.679700
O -26.150100 -24.074500 -21.118900
O -25.361300 -25.512900 -23.440000
C -24.810100 -23.827000 -21.094700
H -24.748600 -24.650700 -19.369300
N -24.259500 -24.467400 -20.030700
O -24.216400 -23.163500 -21.900600
O -23.449200 -22.079100 -18.921700
N -22.949500 -24.146500 -19.743100
C -22.666300 -22.910200 -19.291900
H -22.324700 -24.699300 -19.959500
O -21.600900 -23.232400 -16.600000
H -21.525100 -21.077800 -18.212300
O -21.306700 -22.742600 -19.337800
C -20.809500 -21.598400 -18.657400
N -20.521900 -22.733700 -16.400300
H -20.301900 -21.042100 -19.271300
O -19.916500 -22.678200 -15.355200
C -19.839400 -22.102100 -17.616700
O -19.604300 -19.960000 -16.831800
N -18.991200 -20.976700 -17.071100
N -18.911000 -23.161500 -18.199300
O -18.903300 -24.253700 -17.675100
O -18.289500 -22.787700 -19.169600
O -17.798600 -21.165400 -16.921800
H -29.821700 -27.971800 -25.119800
H -29.514100 -27.952400 -26.613900
C -29.160900 -28.052100 -25.767300
H -28.534500 -29.734600 -23.709700
H -28.523400 -27.352400 -25.614700
C -28.458700 -29.362100 -25.657100
O -28.338500 -30.094500 -26.622500
C -27.896000 -29.744900 -24.331700
H -27.455400 -30.623300 -24.335400
H -27.275500 -29.109000 -23.999200
