36
Fragment
O -29.373600 -24.713400 -24.384000
O -28.847100 -25.247000 -21.436900
N -28.509000 -23.946500 -23.997400
O -28.419000 -22.763400 -24.239200
N -28.105400 -25.634800 -22.311800
O -27.882200 -26.783400 -22.637000
H -27.596200 -22.972500 -21.783300
C -27.423200 -24.524600 -23.099600
C -26.860900 -23.452800 -22.179500
O -26.698700 -25.387100 -25.158600
N -26.395400 -25.197800 -23.993300
H -26.300200 -22.869100 -22.679700
O -26.150100 -24.074500 -21.118900
O -25.361300 -25.512900 -23.440000
C -24.810100 -23.827000 -21.094700
H -24.748600 -24.650700 -19.369300
N -24.259500 -24.467400 -20.030700
O -24.216400 -23.163500 -21.900600
O -23.449200 -22.079100 -18.921700
N -22.949500 -24.146500 -19.743100
C -22.666300 -22.910200 -19.291900
H -22.324700 -24.699300 -19.959500
O -21.600900 -23.232400 -16.600000
H -21.525100 -21.077800 -18.212300
O -21.306700 -22.742600 -19.337800
C -20.809500 -21.598400 -18.657400
N -20.521900 -22.733700 -16.400300
H -20.301900 -21.042100 -19.271300
O -19.916500 -22.678200 -15.355200
C -19.839400 -22.102100 -17.616700
O -19.604300 -19.960000 -16.831800
N -18.991200 -20.976700 -17.071100
N -18.911000 -23.161500 -18.199300
O -18.903300 -24.253700 -17.675100
O -18.289500 -22.787700 -19.169600
O -17.798600 -21.165400 -16.921800
36
Fragment
O -43.330800 -29.736000 -33.722300
O -42.804200 -30.269700 -30.775100
N -42.466200 -28.969100 -33.335700
O -42.376100 -27.786000 -33.577400
N -42.062500 -30.657400 -31.650000
O -41.839400 -31.806000 -31.975200
H -41.553300 -27.995100 -31.121500
C -41.380400 -29.547200 -32.437800
C -40.818000 -28.475500 -31.517700
O -40.655900 -30.409700 -34.496800
N -40.352500 -30.220500 -33.331500
H -40.257300 -27.891800 -32.017900
O -40.107200 -29.097100 -30.457200
O -39.318500 -30.535500 -32.778200
C -38.767200 -28.849700 -30.432900
H -38.705700 -29.673300 -28.707500
N -38.216600 -29.490100 -29.368900
O -38.173600 -28.186200 -31.238900
O -37.406300 -27.101800 -28.260000
N -36.906700 -29.169200 -29.081400
C -36.623500 -27.932900 -28.630100
H -36.281800 -29.722000 -29.297700
O -35.558000 -28.255100 -25.938200
H -35.482200 -26.100500 -27.550500
O -35.263800 -27.765300 -28.676000
C -34.766600 -26.621100 -27.995600
N -34.479000 -27.756400 -25.738600
H -34.259000 -26.064800 -28.609500
O -33.873700 -27.700900 -24.693400
C -33.796500 -27.124800 -26.954900
O -33.561400 -24.982700 -26.170000
N -32.948300 -25.999400 -26.409300
N -32.868100 -28.184200 -27.537600
O -32.860500 -29.276300 -27.013300
O -32.246600 -27.810400 -28.507800
O -31.755700 -26.188100 -26.260000
72
Fragment
O -29.373600 -24.713400 -24.384000
O -28.847100 -25.247000 -21.436900
N -28.509000 -23.946500 -23.997400
O -28.419000 -22.763400 -24.239200
N -28.105400 -25.634800 -22.311800
O -27.882200 -26.783400 -22.637000
H -27.596200 -22.972500 -21.783300
C -27.423200 -24.524600 -23.099600
C -26.860900 -23.452800 -22.179500
O -26.698700 -25.387100 -25.158600
N -26.395400 -25.197800 -23.993300
H -26.300200 -22.869100 -22.679700
O -26.150100 -24.074500 -21.118900
O -25.361300 -25.512900 -23.440000
C -24.810100 -23.827000 -21.094700
H -24.748600 -24.650700 -19.369300
N -24.259500 -24.467400 -20.030700
O -24.216400 -23.163500 -21.900600
O -23.449200 -22.079100 -18.921700
N -22.949500 -24.146500 -19.743100
C -22.666300 -22.910200 -19.291900
H -22.324700 -24.699300 -19.959500
O -21.600900 -23.232400 -16.600000
H -21.525100 -21.077800 -18.212300
O -21.306700 -22.742600 -19.337800
C -20.809500 -21.598400 -18.657400
N -20.521900 -22.733700 -16.400300
H -20.301900 -21.042100 -19.271300
O -19.916500 -22.678200 -15.355200
C -19.839400 -22.102100 -17.616700
O -19.604300 -19.960000 -16.831800
N -18.991200 -20.976700 -17.071100
N -18.911000 -23.161500 -18.199300
O -18.903300 -24.253700 -17.675100
O -18.289500 -22.787700 -19.169600
O -17.798600 -21.165400 -16.921800
O -43.330800 -29.736000 -33.722300
O -42.804200 -30.269700 -30.775100
N -42.466200 -28.969100 -33.335700
O -42.376100 -27.786000 -33.577400
N -42.062500 -30.657400 -31.650000
O -41.839400 -31.806000 -31.975200
H -41.553300 -27.995100 -31.121500
C -41.380400 -29.547200 -32.437800
C -40.818000 -28.475500 -31.517700
O -40.655900 -30.409700 -34.496800
N -40.352500 -30.220500 -33.331500
H -40.257300 -27.891800 -32.017900
O -40.107200 -29.097100 -30.457200
O -39.318500 -30.535500 -32.778200
C -38.767200 -28.849700 -30.432900
H -38.705700 -29.673300 -28.707500
N -38.216600 -29.490100 -29.368900
O -38.173600 -28.186200 -31.238900
O -37.406300 -27.101800 -28.260000
N -36.906700 -29.169200 -29.081400
C -36.623500 -27.932900 -28.630100
H -36.281800 -29.722000 -29.297700
O -35.558000 -28.255100 -25.938200
H -35.482200 -26.100500 -27.550500
O -35.263800 -27.765300 -28.676000
C -34.766600 -26.621100 -27.995600
N -34.479000 -27.756400 -25.738600
H -34.259000 -26.064800 -28.609500
O -33.873700 -27.700900 -24.693400
C -33.796500 -27.124800 -26.954900
O -33.561400 -24.982700 -26.170000
N -32.948300 -25.999400 -26.409300
N -32.868100 -28.184200 -27.537600
O -32.860500 -29.276300 -27.013300
O -32.246600 -27.810400 -28.507800
O -31.755700 -26.188100 -26.260000
