36
Fragment
O -29.373600 -24.713400 -24.384000
O -28.847100 -25.247000 -21.436900
N -28.509000 -23.946500 -23.997400
O -28.419000 -22.763400 -24.239200
N -28.105400 -25.634800 -22.311800
O -27.882200 -26.783400 -22.637000
H -27.596200 -22.972500 -21.783300
C -27.423200 -24.524600 -23.099600
C -26.860900 -23.452800 -22.179500
O -26.698700 -25.387100 -25.158600
N -26.395400 -25.197800 -23.993300
H -26.300200 -22.869100 -22.679700
O -26.150100 -24.074500 -21.118900
O -25.361300 -25.512900 -23.440000
C -24.810100 -23.827000 -21.094700
H -24.748600 -24.650700 -19.369300
N -24.259500 -24.467400 -20.030700
O -24.216400 -23.163500 -21.900600
O -23.449200 -22.079100 -18.921700
N -22.949500 -24.146500 -19.743100
C -22.666300 -22.910200 -19.291900
H -22.324700 -24.699300 -19.959500
O -21.600900 -23.232400 -16.600000
H -21.525100 -21.077800 -18.212300
O -21.306700 -22.742600 -19.337800
C -20.809500 -21.598400 -18.657400
N -20.521900 -22.733700 -16.400300
H -20.301900 -21.042100 -19.271300
O -19.916500 -22.678200 -15.355200
C -19.839400 -22.102100 -17.616700
O -19.604300 -19.960000 -16.831800
N -18.991200 -20.976700 -17.071100
N -18.911000 -23.161500 -18.199300
O -18.903300 -24.253700 -17.675100
O -18.289500 -22.787700 -19.169600
O -17.798600 -21.165400 -16.921800
36
Fragment
O -27.899200 -19.762200 -20.431100
O -27.408300 -18.139800 -18.183300
O -26.794500 -16.673900 -19.677800
N -26.786800 -17.766000 -19.153500
N -26.706600 -19.950800 -20.281800
O -26.093500 -20.967500 -20.521100
C -25.858400 -18.825500 -19.736100
O -25.781200 -18.249300 -21.997700
H -25.395900 -19.885500 -18.081600
N -25.175900 -18.193900 -20.952500
C -24.888300 -19.329100 -18.695500
O -24.391100 -18.184900 -18.015100
H -24.172700 -19.849700 -19.140500
O -24.096900 -17.695200 -20.752900
H -23.373100 -16.228300 -17.393400
C -23.031500 -18.017400 -18.061000
N -22.748300 -16.781100 -17.609700
O -22.248600 -18.848500 -18.431100
O -21.481300 -17.764000 -15.452200
N -21.438300 -16.460100 -17.322200
H -20.949200 -16.276900 -17.983500
C -20.887700 -17.100600 -16.258200
O -20.336400 -15.414700 -13.912900
O -19.547700 -16.853100 -16.233900
H -19.397600 -18.058400 -14.673100
N -19.302400 -15.729800 -13.359500
O -18.999100 -15.540500 -12.194300
C -18.836900 -17.474800 -15.173400
C -18.274500 -16.403000 -14.253300
H -18.101600 -17.955100 -15.569600
O -17.815600 -14.144200 -14.715900
N -17.592400 -15.292800 -15.041100
O -17.278800 -18.164200 -13.113700
N -17.188700 -16.981100 -13.355400
O -16.850700 -15.680500 -15.916000
O -16.324200 -16.214200 -12.968800
72
Fragment
O -29.373600 -24.713400 -24.384000
O -28.847100 -25.247000 -21.436900
N -28.509000 -23.946500 -23.997400
O -28.419000 -22.763400 -24.239200
N -28.105400 -25.634800 -22.311800
O -27.882200 -26.783400 -22.637000
H -27.596200 -22.972500 -21.783300
C -27.423200 -24.524600 -23.099600
C -26.860900 -23.452800 -22.179500
O -26.698700 -25.387100 -25.158600
N -26.395400 -25.197800 -23.993300
H -26.300200 -22.869100 -22.679700
O -26.150100 -24.074500 -21.118900
O -25.361300 -25.512900 -23.440000
C -24.810100 -23.827000 -21.094700
H -24.748600 -24.650700 -19.369300
N -24.259500 -24.467400 -20.030700
O -24.216400 -23.163500 -21.900600
O -23.449200 -22.079100 -18.921700
N -22.949500 -24.146500 -19.743100
C -22.666300 -22.910200 -19.291900
H -22.324700 -24.699300 -19.959500
O -21.600900 -23.232400 -16.600000
H -21.525100 -21.077800 -18.212300
O -21.306700 -22.742600 -19.337800
C -20.809500 -21.598400 -18.657400
N -20.521900 -22.733700 -16.400300
H -20.301900 -21.042100 -19.271300
O -19.916500 -22.678200 -15.355200
C -19.839400 -22.102100 -17.616700
O -19.604300 -19.960000 -16.831800
N -18.991200 -20.976700 -17.071100
N -18.911000 -23.161500 -18.199300
O -18.903300 -24.253700 -17.675100
O -18.289500 -22.787700 -19.169600
O -17.798600 -21.165400 -16.921800
O -27.899200 -19.762200 -20.431100
O -27.408300 -18.139800 -18.183300
O -26.794500 -16.673900 -19.677800
N -26.786800 -17.766000 -19.153500
N -26.706600 -19.950800 -20.281800
O -26.093500 -20.967500 -20.521100
C -25.858400 -18.825500 -19.736100
O -25.781200 -18.249300 -21.997700
H -25.395900 -19.885500 -18.081600
N -25.175900 -18.193900 -20.952500
C -24.888300 -19.329100 -18.695500
O -24.391100 -18.184900 -18.015100
H -24.172700 -19.849700 -19.140500
O -24.096900 -17.695200 -20.752900
H -23.373100 -16.228300 -17.393400
C -23.031500 -18.017400 -18.061000
N -22.748300 -16.781100 -17.609700
O -22.248600 -18.848500 -18.431100
O -21.481300 -17.764000 -15.452200
N -21.438300 -16.460100 -17.322200
H -20.949200 -16.276900 -17.983500
C -20.887700 -17.100600 -16.258200
O -20.336400 -15.414700 -13.912900
O -19.547700 -16.853100 -16.233900
H -19.397600 -18.058400 -14.673100
N -19.302400 -15.729800 -13.359500
O -18.999100 -15.540500 -12.194300
C -18.836900 -17.474800 -15.173400
C -18.274500 -16.403000 -14.253300
H -18.101600 -17.955100 -15.569600
O -17.815600 -14.144200 -14.715900
N -17.592400 -15.292800 -15.041100
O -17.278800 -18.164200 -13.113700
N -17.188700 -16.981100 -13.355400
O -16.850700 -15.680500 -15.916000
O -16.324200 -16.214200 -12.968800
