36
Fragment
O -29.030700 -27.557500 -15.148900
N -27.911000 -27.981800 -15.348400
H -27.818800 -25.855500 -13.555100
O -27.560000 -28.767600 -16.198300
H -27.240000 -25.579800 -14.875700
O -27.191300 -29.546000 -13.349800
C -27.082700 -26.002500 -14.075500
N -27.002600 -28.367100 -13.138900
O -26.897100 -27.837900 -12.058200
C -26.871600 -27.465700 -14.367000
O -26.547400 -23.443800 -13.732500
O -26.078700 -18.097400 -8.603500
H -25.917700 -19.257900 -11.017700
H -25.916700 -20.371600 -9.994500
O -25.879700 -25.588500 -13.429600
C -25.747300 -24.239700 -13.312800
O -25.695700 -22.559000 -10.625900
N -25.497500 -27.691900 -14.970500
C -25.394000 -19.885100 -10.539700
O -25.294400 -27.065500 -15.985600
C -24.973500 -22.035900 -11.429000
N -24.961100 -17.925000 -9.037900
O -24.731200 -28.432300 -14.387700
O -24.722800 -20.697000 -11.501500
N -24.589600 -23.972900 -12.682400
C -24.350000 -19.130900 -9.735000
O -24.274800 -16.924300 -8.955700
N -24.257500 -22.665900 -12.399200
H -24.139800 -24.570900 -12.416300
H -23.973300 -22.232600 -13.016500
N -23.687400 -19.966200 -8.650800
O -23.638600 -17.980300 -11.604200
O -23.496200 -19.434500 -7.573600
O -23.390400 -21.100500 -8.971900
N -23.244300 -18.586000 -10.629700
O -22.096200 -18.788300 -10.299700
36
Fragment
O -28.578700 -16.238200 -15.148900
N -27.459000 -16.662500 -15.348400
H -27.366700 -14.536200 -13.555100
O -27.107900 -17.448300 -16.198300
H -26.787900 -14.260500 -14.875700
O -26.739200 -18.226800 -13.349800
C -26.630600 -14.683200 -14.075500
N -26.550500 -17.047800 -13.138900
O -26.445100 -16.518600 -12.058200
C -26.419500 -16.146400 -14.367000
O -26.095300 -12.124500 -13.732500
O -25.626700 -6.778200 -8.603500
H -25.465700 -7.938600 -11.017700
H -25.464600 -9.052300 -9.994500
O -25.427600 -14.269300 -13.429600
C -25.295200 -12.920400 -13.312800
O -25.243600 -11.239800 -10.625900
N -25.045500 -16.372700 -14.970500
C -24.942000 -8.565800 -10.539700
O -24.842300 -15.746200 -15.985600
C -24.521400 -10.716600 -11.429000
N -24.509000 -6.605700 -9.037900
O -24.279100 -17.113000 -14.387700
O -24.270700 -9.377800 -11.501500
N -24.137500 -12.653600 -12.682400
C -23.898000 -7.811600 -9.735000
O -23.822700 -5.605000 -8.955700
N -23.805400 -11.346600 -12.399200
H -23.687800 -13.251600 -12.416300
H -23.521300 -10.913300 -13.016500
N -23.235400 -8.646900 -8.650800
O -23.186500 -6.661000 -11.604200
O -23.044100 -8.115200 -7.573600
O -22.938300 -9.781200 -8.971900
N -22.792300 -7.266700 -10.629700
O -21.644100 -7.469000 -10.299700
72
Fragment
O -29.030700 -27.557500 -15.148900
N -27.911000 -27.981800 -15.348400
H -27.818800 -25.855500 -13.555100
O -27.560000 -28.767600 -16.198300
H -27.240000 -25.579800 -14.875700
O -27.191300 -29.546000 -13.349800
C -27.082700 -26.002500 -14.075500
N -27.002600 -28.367100 -13.138900
O -26.897100 -27.837900 -12.058200
C -26.871600 -27.465700 -14.367000
O -26.547400 -23.443800 -13.732500
O -26.078700 -18.097400 -8.603500
H -25.917700 -19.257900 -11.017700
H -25.916700 -20.371600 -9.994500
O -25.879700 -25.588500 -13.429600
C -25.747300 -24.239700 -13.312800
O -25.695700 -22.559000 -10.625900
N -25.497500 -27.691900 -14.970500
C -25.394000 -19.885100 -10.539700
O -25.294400 -27.065500 -15.985600
C -24.973500 -22.035900 -11.429000
N -24.961100 -17.925000 -9.037900
O -24.731200 -28.432300 -14.387700
O -24.722800 -20.697000 -11.501500
N -24.589600 -23.972900 -12.682400
C -24.350000 -19.130900 -9.735000
O -24.274800 -16.924300 -8.955700
N -24.257500 -22.665900 -12.399200
H -24.139800 -24.570900 -12.416300
H -23.973300 -22.232600 -13.016500
N -23.687400 -19.966200 -8.650800
O -23.638600 -17.980300 -11.604200
O -23.496200 -19.434500 -7.573600
O -23.390400 -21.100500 -8.971900
N -23.244300 -18.586000 -10.629700
O -22.096200 -18.788300 -10.299700
O -28.578700 -16.238200 -15.148900
N -27.459000 -16.662500 -15.348400
H -27.366700 -14.536200 -13.555100
O -27.107900 -17.448300 -16.198300
H -26.787900 -14.260500 -14.875700
O -26.739200 -18.226800 -13.349800
C -26.630600 -14.683200 -14.075500
N -26.550500 -17.047800 -13.138900
O -26.445100 -16.518600 -12.058200
C -26.419500 -16.146400 -14.367000
O -26.095300 -12.124500 -13.732500
O -25.626700 -6.778200 -8.603500
H -25.465700 -7.938600 -11.017700
H -25.464600 -9.052300 -9.994500
O -25.427600 -14.269300 -13.429600
C -25.295200 -12.920400 -13.312800
O -25.243600 -11.239800 -10.625900
N -25.045500 -16.372700 -14.970500
C -24.942000 -8.565800 -10.539700
O -24.842300 -15.746200 -15.985600
C -24.521400 -10.716600 -11.429000
N -24.509000 -6.605700 -9.037900
O -24.279100 -17.113000 -14.387700
O -24.270700 -9.377800 -11.501500
N -24.137500 -12.653600 -12.682400
C -23.898000 -7.811600 -9.735000
O -23.822700 -5.605000 -8.955700
N -23.805400 -11.346600 -12.399200
H -23.687800 -13.251600 -12.416300
H -23.521300 -10.913300 -13.016500
N -23.235400 -8.646900 -8.650800
O -23.186500 -6.661000 -11.604200
O -23.044100 -8.115200 -7.573600
O -22.938300 -9.781200 -8.971900
N -22.792300 -7.266700 -10.629700
O -21.644100 -7.469000 -10.299700
