36
Fragment
O -29.030700 -27.557500 -15.148900
N -27.911000 -27.981800 -15.348400
H -27.818800 -25.855500 -13.555100
O -27.560000 -28.767600 -16.198300
H -27.240000 -25.579800 -14.875700
O -27.191300 -29.546000 -13.349800
C -27.082700 -26.002500 -14.075500
N -27.002600 -28.367100 -13.138900
O -26.897100 -27.837900 -12.058200
C -26.871600 -27.465700 -14.367000
O -26.547400 -23.443800 -13.732500
O -26.078700 -18.097400 -8.603500
H -25.917700 -19.257900 -11.017700
H -25.916700 -20.371600 -9.994500
O -25.879700 -25.588500 -13.429600
C -25.747300 -24.239700 -13.312800
O -25.695700 -22.559000 -10.625900
N -25.497500 -27.691900 -14.970500
C -25.394000 -19.885100 -10.539700
O -25.294400 -27.065500 -15.985600
C -24.973500 -22.035900 -11.429000
N -24.961100 -17.925000 -9.037900
O -24.731200 -28.432300 -14.387700
O -24.722800 -20.697000 -11.501500
N -24.589600 -23.972900 -12.682400
C -24.350000 -19.130900 -9.735000
O -24.274800 -16.924300 -8.955700
N -24.257500 -22.665900 -12.399200
H -24.139800 -24.570900 -12.416300
H -23.973300 -22.232600 -13.016500
N -23.687400 -19.966200 -8.650800
O -23.638600 -17.980300 -11.604200
O -23.496200 -19.434500 -7.573600
O -23.390400 -21.100500 -8.971900
N -23.244300 -18.586000 -10.629700
O -22.096200 -18.788300 -10.299700
36
Fragment
O -29.757500 -24.835800 -8.054000
N -28.609400 -25.038200 -7.724000
O -28.463300 -22.523600 -9.381800
O -28.357500 -24.189700 -10.780100
O -28.215100 -25.643800 -6.749500
N -28.166300 -23.657900 -9.702900
H -27.880400 -21.391600 -5.337300
H -27.713900 -19.053300 -5.937400
N -27.596200 -20.958200 -5.954500
O -27.578900 -26.699800 -9.398000
C -27.503700 -24.493300 -8.618700
N -27.264100 -19.651200 -5.671300
O -27.130900 -22.927100 -6.852200
O -27.122500 -15.191900 -3.966100
N -26.892600 -25.699200 -9.315800
C -26.880200 -21.588200 -6.924800
O -26.559300 -16.558700 -2.368100
C -26.459700 -23.739000 -7.814000
N -26.356200 -15.932200 -3.383200
O -26.158000 -21.065100 -7.727800
C -26.106400 -19.384400 -5.040900
O -25.974000 -18.035600 -4.924100
H -25.937000 -23.252500 -8.359200
H -25.936000 -24.366200 -7.336000
O -25.775000 -25.526700 -9.750200
O -25.306300 -20.180300 -4.621200
C -24.982100 -16.158400 -3.986700
O -24.956600 -15.786200 -6.295500
N -24.851100 -15.257000 -5.214800
C -24.771000 -17.621600 -4.278300
O -24.662400 -14.078100 -5.004000
H -24.613700 -18.044400 -3.478000
O -24.293700 -14.856500 -2.155400
H -24.034900 -17.768700 -4.798600
N -23.942700 -15.642400 -3.005300
O -22.823000 -16.066600 -3.204800
72
Fragment
O -29.030700 -27.557500 -15.148900
N -27.911000 -27.981800 -15.348400
H -27.818800 -25.855500 -13.555100
O -27.560000 -28.767600 -16.198300
H -27.240000 -25.579800 -14.875700
O -27.191300 -29.546000 -13.349800
C -27.082700 -26.002500 -14.075500
N -27.002600 -28.367100 -13.138900
O -26.897100 -27.837900 -12.058200
C -26.871600 -27.465700 -14.367000
O -26.547400 -23.443800 -13.732500
O -26.078700 -18.097400 -8.603500
H -25.917700 -19.257900 -11.017700
H -25.916700 -20.371600 -9.994500
O -25.879700 -25.588500 -13.429600
C -25.747300 -24.239700 -13.312800
O -25.695700 -22.559000 -10.625900
N -25.497500 -27.691900 -14.970500
C -25.394000 -19.885100 -10.539700
O -25.294400 -27.065500 -15.985600
C -24.973500 -22.035900 -11.429000
N -24.961100 -17.925000 -9.037900
O -24.731200 -28.432300 -14.387700
O -24.722800 -20.697000 -11.501500
N -24.589600 -23.972900 -12.682400
C -24.350000 -19.130900 -9.735000
O -24.274800 -16.924300 -8.955700
N -24.257500 -22.665900 -12.399200
H -24.139800 -24.570900 -12.416300
H -23.973300 -22.232600 -13.016500
N -23.687400 -19.966200 -8.650800
O -23.638600 -17.980300 -11.604200
O -23.496200 -19.434500 -7.573600
O -23.390400 -21.100500 -8.971900
N -23.244300 -18.586000 -10.629700
O -22.096200 -18.788300 -10.299700
O -29.757500 -24.835800 -8.054000
N -28.609400 -25.038200 -7.724000
O -28.463300 -22.523600 -9.381800
O -28.357500 -24.189700 -10.780100
O -28.215100 -25.643800 -6.749500
N -28.166300 -23.657900 -9.702900
H -27.880400 -21.391600 -5.337300
H -27.713900 -19.053300 -5.937400
N -27.596200 -20.958200 -5.954500
O -27.578900 -26.699800 -9.398000
C -27.503700 -24.493300 -8.618700
N -27.264100 -19.651200 -5.671300
O -27.130900 -22.927100 -6.852200
O -27.122500 -15.191900 -3.966100
N -26.892600 -25.699200 -9.315800
C -26.880200 -21.588200 -6.924800
O -26.559300 -16.558700 -2.368100
C -26.459700 -23.739000 -7.814000
N -26.356200 -15.932200 -3.383200
O -26.158000 -21.065100 -7.727800
C -26.106400 -19.384400 -5.040900
O -25.974000 -18.035600 -4.924100
H -25.937000 -23.252500 -8.359200
H -25.936000 -24.366200 -7.336000
O -25.775000 -25.526700 -9.750200
O -25.306300 -20.180300 -4.621200
C -24.982100 -16.158400 -3.986700
O -24.956600 -15.786200 -6.295500
N -24.851100 -15.257000 -5.214800
C -24.771000 -17.621600 -4.278300
O -24.662400 -14.078100 -5.004000
H -24.613700 -18.044400 -3.478000
O -24.293700 -14.856500 -2.155400
H -24.034900 -17.768700 -4.798600
N -23.942700 -15.642400 -3.005300
O -22.823000 -16.066600 -3.204800
