36
Fragment
O -29.030700 -27.557500 -15.148900
N -27.911000 -27.981800 -15.348400
H -27.818800 -25.855500 -13.555100
O -27.560000 -28.767600 -16.198300
H -27.240000 -25.579800 -14.875700
O -27.191300 -29.546000 -13.349800
C -27.082700 -26.002500 -14.075500
N -27.002600 -28.367100 -13.138900
O -26.897100 -27.837900 -12.058200
C -26.871600 -27.465700 -14.367000
O -26.547400 -23.443800 -13.732500
O -26.078700 -18.097400 -8.603500
H -25.917700 -19.257900 -11.017700
H -25.916700 -20.371600 -9.994500
O -25.879700 -25.588500 -13.429600
C -25.747300 -24.239700 -13.312800
O -25.695700 -22.559000 -10.625900
N -25.497500 -27.691900 -14.970500
C -25.394000 -19.885100 -10.539700
O -25.294400 -27.065500 -15.985600
C -24.973500 -22.035900 -11.429000
N -24.961100 -17.925000 -9.037900
O -24.731200 -28.432300 -14.387700
O -24.722800 -20.697000 -11.501500
N -24.589600 -23.972900 -12.682400
C -24.350000 -19.130900 -9.735000
O -24.274800 -16.924300 -8.955700
N -24.257500 -22.665900 -12.399200
H -24.139800 -24.570900 -12.416300
H -23.973300 -22.232600 -13.016500
N -23.687400 -19.966200 -8.650800
O -23.638600 -17.980300 -11.604200
O -23.496200 -19.434500 -7.573600
O -23.390400 -21.100500 -8.971900
N -23.244300 -18.586000 -10.629700
O -22.096200 -18.788300 -10.299700
36
Fragment
O -24.184400 -22.724300 -5.972000
N -23.064700 -23.148600 -6.171500
H -22.972400 -21.022300 -4.378300
O -22.713600 -23.934500 -7.021500
H -22.393600 -20.746600 -5.698800
O -22.344900 -24.712900 -4.172900
C -22.236300 -21.169400 -4.898600
N -22.156200 -23.534000 -3.962000
O -22.050800 -23.004800 -2.881300
C -22.025200 -22.632500 -5.190200
O -21.701000 -18.610700 -4.555700
O -21.232300 -13.264300 0.573400
H -21.071400 -14.424800 -1.840900
H -21.070300 -15.538500 -0.817700
O -21.033300 -20.755400 -4.252700
C -20.900900 -19.406500 -4.135900
O -20.849300 -17.725900 -1.449000
N -20.651200 -22.858800 -5.793600
C -20.547700 -15.051900 -1.362900
O -20.448000 -22.232300 -6.808800
C -20.127100 -17.202800 -2.252100
N -20.114700 -13.091800 0.138900
O -19.884800 -23.599100 -5.210800
O -19.876400 -15.863900 -2.324700
N -19.743200 -19.139700 -3.505600
C -19.503700 -14.297700 -0.558100
O -19.428400 -12.091100 0.221200
N -19.411100 -17.832700 -3.222400
H -19.293500 -19.737700 -3.239400
H -19.127000 -17.399400 -3.839600
N -18.841100 -15.133000 0.526000
O -18.792200 -13.147100 -2.427400
O -18.649800 -14.601300 1.603300
O -18.544000 -16.267300 0.204900
N -18.398000 -13.752800 -1.452900
O -17.249800 -13.955100 -1.122900
72
Fragment
O -29.030700 -27.557500 -15.148900
N -27.911000 -27.981800 -15.348400
H -27.818800 -25.855500 -13.555100
O -27.560000 -28.767600 -16.198300
H -27.240000 -25.579800 -14.875700
O -27.191300 -29.546000 -13.349800
C -27.082700 -26.002500 -14.075500
N -27.002600 -28.367100 -13.138900
O -26.897100 -27.837900 -12.058200
C -26.871600 -27.465700 -14.367000
O -26.547400 -23.443800 -13.732500
O -26.078700 -18.097400 -8.603500
H -25.917700 -19.257900 -11.017700
H -25.916700 -20.371600 -9.994500
O -25.879700 -25.588500 -13.429600
C -25.747300 -24.239700 -13.312800
O -25.695700 -22.559000 -10.625900
N -25.497500 -27.691900 -14.970500
C -25.394000 -19.885100 -10.539700
O -25.294400 -27.065500 -15.985600
C -24.973500 -22.035900 -11.429000
N -24.961100 -17.925000 -9.037900
O -24.731200 -28.432300 -14.387700
O -24.722800 -20.697000 -11.501500
N -24.589600 -23.972900 -12.682400
C -24.350000 -19.130900 -9.735000
O -24.274800 -16.924300 -8.955700
N -24.257500 -22.665900 -12.399200
H -24.139800 -24.570900 -12.416300
H -23.973300 -22.232600 -13.016500
N -23.687400 -19.966200 -8.650800
O -23.638600 -17.980300 -11.604200
O -23.496200 -19.434500 -7.573600
O -23.390400 -21.100500 -8.971900
N -23.244300 -18.586000 -10.629700
O -22.096200 -18.788300 -10.299700
O -24.184400 -22.724300 -5.972000
N -23.064700 -23.148600 -6.171500
H -22.972400 -21.022300 -4.378300
O -22.713600 -23.934500 -7.021500
H -22.393600 -20.746600 -5.698800
O -22.344900 -24.712900 -4.172900
C -22.236300 -21.169400 -4.898600
N -22.156200 -23.534000 -3.962000
O -22.050800 -23.004800 -2.881300
C -22.025200 -22.632500 -5.190200
O -21.701000 -18.610700 -4.555700
O -21.232300 -13.264300 0.573400
H -21.071400 -14.424800 -1.840900
H -21.070300 -15.538500 -0.817700
O -21.033300 -20.755400 -4.252700
C -20.900900 -19.406500 -4.135900
O -20.849300 -17.725900 -1.449000
N -20.651200 -22.858800 -5.793600
C -20.547700 -15.051900 -1.362900
O -20.448000 -22.232300 -6.808800
C -20.127100 -17.202800 -2.252100
N -20.114700 -13.091800 0.138900
O -19.884800 -23.599100 -5.210800
O -19.876400 -15.863900 -2.324700
N -19.743200 -19.139700 -3.505600
C -19.503700 -14.297700 -0.558100
O -19.428400 -12.091100 0.221200
N -19.411100 -17.832700 -3.222400
H -19.293500 -19.737700 -3.239400
H -19.127000 -17.399400 -3.839600
N -18.841100 -15.133000 0.526000
O -18.792200 -13.147100 -2.427400
O -18.649800 -14.601300 1.603300
O -18.544000 -16.267300 0.204900
N -18.398000 -13.752800 -1.452900
O -17.249800 -13.955100 -1.122900
