36
Fragment
O -29.373600 -24.713400 -24.384000
O -28.847100 -25.247000 -21.436900
N -28.509000 -23.946500 -23.997400
O -28.419000 -22.763400 -24.239200
N -28.105400 -25.634800 -22.311800
O -27.882200 -26.783400 -22.637000
H -27.596200 -22.972500 -21.783300
C -27.423200 -24.524600 -23.099600
C -26.860900 -23.452800 -22.179500
O -26.698700 -25.387100 -25.158600
N -26.395400 -25.197800 -23.993300
H -26.300200 -22.869100 -22.679700
O -26.150100 -24.074500 -21.118900
O -25.361300 -25.512900 -23.440000
C -24.810100 -23.827000 -21.094700
H -24.748600 -24.650700 -19.369300
N -24.259500 -24.467400 -20.030700
O -24.216400 -23.163500 -21.900600
O -23.449200 -22.079100 -18.921700
N -22.949500 -24.146500 -19.743100
C -22.666300 -22.910200 -19.291900
H -22.324700 -24.699300 -19.959500
O -21.600900 -23.232400 -16.600000
H -21.525100 -21.077800 -18.212300
O -21.306700 -22.742600 -19.337800
C -20.809500 -21.598400 -18.657400
N -20.521900 -22.733700 -16.400300
H -20.301900 -21.042100 -19.271300
O -19.916500 -22.678200 -15.355200
C -19.839400 -22.102100 -17.616700
O -19.604300 -19.960000 -16.831800
N -18.991200 -20.976700 -17.071100
N -18.911000 -23.161500 -18.199300
O -18.903300 -24.253700 -17.675100
O -18.289500 -22.787700 -19.169600
O -17.798600 -21.165400 -16.921800
36
Fragment
O -31.676500 -24.784800 -29.769300
O -31.185600 -23.162500 -27.521500
O -30.571800 -21.696600 -29.016000
N -30.564100 -22.788700 -28.491700
N -30.484000 -24.973500 -29.620000
O -29.870800 -25.990200 -29.859300
C -29.635700 -23.848100 -29.074300
O -29.558600 -23.272000 -31.335900
H -29.173200 -24.908100 -27.419800
N -28.953300 -23.216500 -30.290700
C -28.665700 -24.351800 -28.033700
O -28.168400 -23.207600 -27.353300
H -27.950000 -24.872400 -28.478800
O -27.874300 -22.717800 -30.091100
H -27.150400 -21.250900 -26.731600
C -26.808800 -23.040000 -27.399200
N -26.525600 -21.803700 -26.947900
O -26.025900 -23.871100 -27.769300
O -25.258700 -22.786700 -24.790400
N -25.215600 -21.482800 -26.660400
H -24.726500 -21.299600 -27.321800
C -24.665000 -22.123200 -25.596400
O -24.113800 -20.437300 -23.251100
O -23.325000 -21.875800 -25.572100
H -23.174900 -23.081100 -24.011400
N -23.079700 -20.752400 -22.697700
O -22.776400 -20.563200 -21.532500
C -22.614200 -22.497400 -24.511600
C -22.051900 -21.425700 -23.591500
H -21.878900 -22.977800 -24.907800
O -21.592900 -19.166900 -24.054100
N -21.369700 -20.315500 -24.379300
O -21.056100 -23.186900 -22.451900
N -20.966100 -22.003700 -22.693600
O -20.628000 -20.703200 -25.254200
O -20.101500 -21.236900 -22.307000
72
Fragment
O -29.373600 -24.713400 -24.384000
O -28.847100 -25.247000 -21.436900
N -28.509000 -23.946500 -23.997400
O -28.419000 -22.763400 -24.239200
N -28.105400 -25.634800 -22.311800
O -27.882200 -26.783400 -22.637000
H -27.596200 -22.972500 -21.783300
C -27.423200 -24.524600 -23.099600
C -26.860900 -23.452800 -22.179500
O -26.698700 -25.387100 -25.158600
N -26.395400 -25.197800 -23.993300
H -26.300200 -22.869100 -22.679700
O -26.150100 -24.074500 -21.118900
O -25.361300 -25.512900 -23.440000
C -24.810100 -23.827000 -21.094700
H -24.748600 -24.650700 -19.369300
N -24.259500 -24.467400 -20.030700
O -24.216400 -23.163500 -21.900600
O -23.449200 -22.079100 -18.921700
N -22.949500 -24.146500 -19.743100
C -22.666300 -22.910200 -19.291900
H -22.324700 -24.699300 -19.959500
O -21.600900 -23.232400 -16.600000
H -21.525100 -21.077800 -18.212300
O -21.306700 -22.742600 -19.337800
C -20.809500 -21.598400 -18.657400
N -20.521900 -22.733700 -16.400300
H -20.301900 -21.042100 -19.271300
O -19.916500 -22.678200 -15.355200
C -19.839400 -22.102100 -17.616700
O -19.604300 -19.960000 -16.831800
N -18.991200 -20.976700 -17.071100
N -18.911000 -23.161500 -18.199300
O -18.903300 -24.253700 -17.675100
O -18.289500 -22.787700 -19.169600
O -17.798600 -21.165400 -16.921800
O -31.676500 -24.784800 -29.769300
O -31.185600 -23.162500 -27.521500
O -30.571800 -21.696600 -29.016000
N -30.564100 -22.788700 -28.491700
N -30.484000 -24.973500 -29.620000
O -29.870800 -25.990200 -29.859300
C -29.635700 -23.848100 -29.074300
O -29.558600 -23.272000 -31.335900
H -29.173200 -24.908100 -27.419800
N -28.953300 -23.216500 -30.290700
C -28.665700 -24.351800 -28.033700
O -28.168400 -23.207600 -27.353300
H -27.950000 -24.872400 -28.478800
O -27.874300 -22.717800 -30.091100
H -27.150400 -21.250900 -26.731600
C -26.808800 -23.040000 -27.399200
N -26.525600 -21.803700 -26.947900
O -26.025900 -23.871100 -27.769300
O -25.258700 -22.786700 -24.790400
N -25.215600 -21.482800 -26.660400
H -24.726500 -21.299600 -27.321800
C -24.665000 -22.123200 -25.596400
O -24.113800 -20.437300 -23.251100
O -23.325000 -21.875800 -25.572100
H -23.174900 -23.081100 -24.011400
N -23.079700 -20.752400 -22.697700
O -22.776400 -20.563200 -21.532500
C -22.614200 -22.497400 -24.511600
C -22.051900 -21.425700 -23.591500
H -21.878900 -22.977800 -24.907800
O -21.592900 -19.166900 -24.054100
N -21.369700 -20.315500 -24.379300
O -21.056100 -23.186900 -22.451900
N -20.966100 -22.003700 -22.693600
O -20.628000 -20.703200 -25.254200
O -20.101500 -21.236900 -22.307000
