36
Fragment
O -29.030700 -27.557500 -15.148900
N -27.911000 -27.981800 -15.348400
H -27.818800 -25.855500 -13.555100
O -27.560000 -28.767600 -16.198300
H -27.240000 -25.579800 -14.875700
O -27.191300 -29.546000 -13.349800
C -27.082700 -26.002500 -14.075500
N -27.002600 -28.367100 -13.138900
O -26.897100 -27.837900 -12.058200
C -26.871600 -27.465700 -14.367000
O -26.547400 -23.443800 -13.732500
O -26.078700 -18.097400 -8.603500
H -25.917700 -19.257900 -11.017700
H -25.916700 -20.371600 -9.994500
O -25.879700 -25.588500 -13.429600
C -25.747300 -24.239700 -13.312800
O -25.695700 -22.559000 -10.625900
N -25.497500 -27.691900 -14.970500
C -25.394000 -19.885100 -10.539700
O -25.294400 -27.065500 -15.985600
C -24.973500 -22.035900 -11.429000
N -24.961100 -17.925000 -9.037900
O -24.731200 -28.432300 -14.387700
O -24.722800 -20.697000 -11.501500
N -24.589600 -23.972900 -12.682400
C -24.350000 -19.130900 -9.735000
O -24.274800 -16.924300 -8.955700
N -24.257500 -22.665900 -12.399200
H -24.139800 -24.570900 -12.416300
H -23.973300 -22.232600 -13.016500
N -23.687400 -19.966200 -8.650800
O -23.638600 -17.980300 -11.604200
O -23.496200 -19.434500 -7.573600
O -23.390400 -21.100500 -8.971900
N -23.244300 -18.586000 -10.629700
O -22.096200 -18.788300 -10.299700
14
Fragment
H -31.438800 -15.362100 -6.502700
H -31.250700 -16.097400 -5.094100
H -30.885500 -19.464700 -8.313300
C -30.783300 -15.695300 -5.855800
O -30.277100 -16.949300 -7.765500
H -30.226700 -14.951600 -5.542800
C -29.936900 -19.345700 -8.097700
C -29.921500 -16.720100 -6.505000
H -29.802300 -19.475100 -7.135900
H -29.628500 -17.841500 -9.456800
C -29.507200 -17.964200 -8.481600
H -29.404500 -20.002600 -8.593200
O -29.019500 -17.310800 -5.945600
H -28.544900 -17.851600 -8.276600
50
Fragment
O -29.030700 -27.557500 -15.148900
N -27.911000 -27.981800 -15.348400
H -27.818800 -25.855500 -13.555100
O -27.560000 -28.767600 -16.198300
H -27.240000 -25.579800 -14.875700
O -27.191300 -29.546000 -13.349800
C -27.082700 -26.002500 -14.075500
N -27.002600 -28.367100 -13.138900
O -26.897100 -27.837900 -12.058200
C -26.871600 -27.465700 -14.367000
O -26.547400 -23.443800 -13.732500
O -26.078700 -18.097400 -8.603500
H -25.917700 -19.257900 -11.017700
H -25.916700 -20.371600 -9.994500
O -25.879700 -25.588500 -13.429600
C -25.747300 -24.239700 -13.312800
O -25.695700 -22.559000 -10.625900
N -25.497500 -27.691900 -14.970500
C -25.394000 -19.885100 -10.539700
O -25.294400 -27.065500 -15.985600
C -24.973500 -22.035900 -11.429000
N -24.961100 -17.925000 -9.037900
O -24.731200 -28.432300 -14.387700
O -24.722800 -20.697000 -11.501500
N -24.589600 -23.972900 -12.682400
C -24.350000 -19.130900 -9.735000
O -24.274800 -16.924300 -8.955700
N -24.257500 -22.665900 -12.399200
H -24.139800 -24.570900 -12.416300
H -23.973300 -22.232600 -13.016500
N -23.687400 -19.966200 -8.650800
O -23.638600 -17.980300 -11.604200
O -23.496200 -19.434500 -7.573600
O -23.390400 -21.100500 -8.971900
N -23.244300 -18.586000 -10.629700
O -22.096200 -18.788300 -10.299700
H -31.438800 -15.362100 -6.502700
H -31.250700 -16.097400 -5.094100
H -30.885500 -19.464700 -8.313300
C -30.783300 -15.695300 -5.855800
O -30.277100 -16.949300 -7.765500
H -30.226700 -14.951600 -5.542800
C -29.936900 -19.345700 -8.097700
C -29.921500 -16.720100 -6.505000
H -29.802300 -19.475100 -7.135900
H -29.628500 -17.841500 -9.456800
C -29.507200 -17.964200 -8.481600
H -29.404500 -20.002600 -8.593200
O -29.019500 -17.310800 -5.945600
H -28.544900 -17.851600 -8.276600
