35
Fragment
Cl -17.364200 -12.703400 -19.639000
H -16.543600 -10.694600 -21.418000
H -16.272000 -9.005200 -26.267200
C -15.845000 -12.331100 -20.422600
C -15.778000 -11.241000 -21.280600
H -15.489000 -9.056900 -28.475100
C -15.339700 -8.957600 -26.442100
C -14.875300 -8.999800 -27.752900
H -14.785500 -13.846600 -19.596300
H -14.772400 -8.802300 -24.500700
C -14.736500 -13.113200 -20.197400
C -14.587500 -10.951500 -21.937600
H -14.543900 -10.206300 -22.525100
C -14.447100 -8.844800 -25.392000
C -13.543000 -12.825700 -20.852200
C -13.526700 -8.959600 -27.994100
C -13.457700 -11.742400 -21.743500
H -13.206900 -9.003500 -28.888500
C -13.072900 -8.792800 -25.626900
H -12.778500 -13.367400 -20.695600
C -12.621400 -8.855600 -26.944300
N -12.481200 -9.437500 -23.329600
N -12.235700 -11.557900 -22.398200
H -12.226700 -7.633900 -24.148800
C -12.119000 -8.580900 -24.451700
C -11.868600 -10.583500 -23.303500
H -11.689000 -8.827500 -27.125100
H -11.614100 -12.157400 -22.215900
N -10.798200 -10.981900 -24.074200
N -10.719200 -8.761400 -24.812900
H -10.290700 -8.075500 -25.145400
C -10.204700 -9.995800 -24.740400
N -9.015500 -10.226400 -25.327200
H -8.707100 -11.030000 -25.180900
H -8.665500 -9.655300 -25.894500
35
Fragment
H -14.015700 -14.561500 -16.664800
H -13.974200 -15.936200 -17.378400
N -13.665800 -15.132500 -17.232100
C -12.476500 -14.901900 -17.818900
H -12.390500 -12.981700 -17.413800
N -11.962000 -13.667600 -17.746400
N -11.883100 -15.888100 -18.485000
H -11.067100 -17.063600 -20.343300
H -10.992300 -13.733700 -15.434100
C -10.812600 -15.489700 -19.255800
C -10.562200 -13.487000 -18.107500
H -10.454600 -12.540000 -18.410400
N -10.445500 -16.464100 -20.161000
N -10.200000 -14.343600 -19.229700
C -10.059900 -13.761800 -15.615000
H -9.902800 -18.273500 -21.863700
C -9.608300 -13.699000 -16.932300
H -9.474300 -13.909600 -13.670700
C -9.223500 -16.648500 -20.815700
C -9.154500 -13.865800 -14.565200
C -9.138200 -17.731800 -21.707100
C -8.234100 -13.751000 -17.167300
H -8.137400 -15.112400 -20.034200
C -8.093700 -15.857700 -20.621700
C -7.944700 -18.019300 -22.361900
H -7.908900 -13.708500 -18.058600
H -7.895800 -18.752800 -22.963000
C -7.805900 -13.906000 -14.806400
C -7.341500 -13.863800 -16.117200
H -7.192200 -13.963100 -14.084100
C -6.903200 -16.147100 -21.278600
C -6.836300 -17.237300 -22.136600
H -6.409300 -13.911400 -16.292100
H -6.137600 -15.600800 -21.141300
Cl -5.317000 -17.609500 -22.920300
70
Fragment
Cl -17.364200 -12.703400 -19.639000
H -16.543600 -10.694600 -21.418000
H -16.272000 -9.005200 -26.267200
C -15.845000 -12.331100 -20.422600
C -15.778000 -11.241000 -21.280600
H -15.489000 -9.056900 -28.475100
C -15.339700 -8.957600 -26.442100
C -14.875300 -8.999800 -27.752900
H -14.785500 -13.846600 -19.596300
H -14.772400 -8.802300 -24.500700
C -14.736500 -13.113200 -20.197400
C -14.587500 -10.951500 -21.937600
H -14.543900 -10.206300 -22.525100
C -14.447100 -8.844800 -25.392000
C -13.543000 -12.825700 -20.852200
C -13.526700 -8.959600 -27.994100
C -13.457700 -11.742400 -21.743500
H -13.206900 -9.003500 -28.888500
C -13.072900 -8.792800 -25.626900
H -12.778500 -13.367400 -20.695600
C -12.621400 -8.855600 -26.944300
N -12.481200 -9.437500 -23.329600
N -12.235700 -11.557900 -22.398200
H -12.226700 -7.633900 -24.148800
C -12.119000 -8.580900 -24.451700
C -11.868600 -10.583500 -23.303500
H -11.689000 -8.827500 -27.125100
H -11.614100 -12.157400 -22.215900
N -10.798200 -10.981900 -24.074200
N -10.719200 -8.761400 -24.812900
H -10.290700 -8.075500 -25.145400
C -10.204700 -9.995800 -24.740400
N -9.015500 -10.226400 -25.327200
H -8.707100 -11.030000 -25.180900
H -8.665500 -9.655300 -25.894500
H -14.015700 -14.561500 -16.664800
H -13.974200 -15.936200 -17.378400
N -13.665800 -15.132500 -17.232100
C -12.476500 -14.901900 -17.818900
H -12.390500 -12.981700 -17.413800
N -11.962000 -13.667600 -17.746400
N -11.883100 -15.888100 -18.485000
H -11.067100 -17.063600 -20.343300
H -10.992300 -13.733700 -15.434100
C -10.812600 -15.489700 -19.255800
C -10.562200 -13.487000 -18.107500
H -10.454600 -12.540000 -18.410400
N -10.445500 -16.464100 -20.161000
N -10.200000 -14.343600 -19.229700
C -10.059900 -13.761800 -15.615000
H -9.902800 -18.273500 -21.863700
C -9.608300 -13.699000 -16.932300
H -9.474300 -13.909600 -13.670700
C -9.223500 -16.648500 -20.815700
C -9.154500 -13.865800 -14.565200
C -9.138200 -17.731800 -21.707100
C -8.234100 -13.751000 -17.167300
H -8.137400 -15.112400 -20.034200
C -8.093700 -15.857700 -20.621700
C -7.944700 -18.019300 -22.361900
H -7.908900 -13.708500 -18.058600
H -7.895800 -18.752800 -22.963000
C -7.805900 -13.906000 -14.806400
C -7.341500 -13.863800 -16.117200
H -7.192200 -13.963100 -14.084100
C -6.903200 -16.147100 -21.278600
C -6.836300 -17.237300 -22.136600
H -6.409300 -13.911400 -16.292100
H -6.137600 -15.600800 -21.141300
Cl -5.317000 -17.609500 -22.920300
