35
Fragment
Cl -17.364200 -12.703400 -19.639000
H -16.543600 -10.694600 -21.418000
H -16.272000 -9.005200 -26.267200
C -15.845000 -12.331100 -20.422600
C -15.778000 -11.241000 -21.280600
H -15.489000 -9.056900 -28.475100
C -15.339700 -8.957600 -26.442100
C -14.875300 -8.999800 -27.752900
H -14.785500 -13.846600 -19.596300
H -14.772400 -8.802300 -24.500700
C -14.736500 -13.113200 -20.197400
C -14.587500 -10.951500 -21.937600
H -14.543900 -10.206300 -22.525100
C -14.447100 -8.844800 -25.392000
C -13.543000 -12.825700 -20.852200
C -13.526700 -8.959600 -27.994100
C -13.457700 -11.742400 -21.743500
H -13.206900 -9.003500 -28.888500
C -13.072900 -8.792800 -25.626900
H -12.778500 -13.367400 -20.695600
C -12.621400 -8.855600 -26.944300
N -12.481200 -9.437500 -23.329600
N -12.235700 -11.557900 -22.398200
H -12.226700 -7.633900 -24.148800
C -12.119000 -8.580900 -24.451700
C -11.868600 -10.583500 -23.303500
H -11.689000 -8.827500 -27.125100
H -11.614100 -12.157400 -22.215900
N -10.798200 -10.981900 -24.074200
N -10.719200 -8.761400 -24.812900
H -10.290700 -8.075500 -25.145400
C -10.204700 -9.995800 -24.740400
N -9.015500 -10.226400 -25.327200
H -8.707100 -11.030000 -25.180900
H -8.665500 -9.655300 -25.894500
35
Fragment
H -8.301400 -10.979000 -33.238800
H -8.193200 -13.457500 -27.171800
H -8.105700 -12.177100 -29.039600
N -7.971100 -10.179300 -33.064400
H -7.833400 -9.586600 -33.694200
C -7.525600 -12.916900 -26.766800
N -7.523200 -10.978000 -30.954100
N -7.504600 -11.600100 -28.760800
C -7.481200 -9.968300 -31.829600
H -7.450900 -13.955200 -25.016200
C -7.180000 -10.617900 -29.663400
C -7.085900 -13.214200 -25.486000
H -7.079000 -8.075500 -32.059900
N -7.034700 -8.756500 -31.514900
C -6.995700 -11.826800 -27.471000
N -6.642500 -9.497300 -29.265600
H -6.301800 -7.668800 -29.988000
C -6.196100 -8.607300 -30.317900
C -6.116900 -12.429200 -24.898200
C -5.990900 -11.070200 -26.873600
H -5.595800 -10.348400 -27.349000
Cl -5.579200 -12.764900 -23.273000
C -5.564200 -11.365600 -25.585100
H -4.889600 -10.836300 -25.175500
C -4.732300 -8.805600 -30.687600
H -4.642900 -10.816000 -30.419100
H -4.370800 -6.847300 -31.082500
C -4.145600 -10.058600 -30.703700
C -3.986600 -7.716400 -31.099500
C -2.829400 -10.216600 -31.136400
C -2.683600 -7.883200 -31.537800
H -2.431400 -11.079600 -31.142200
H -2.184700 -7.129500 -31.829900
C -2.106100 -9.125400 -31.554900
H -1.211400 -9.232500 -31.853800
70
Fragment
Cl -17.364200 -12.703400 -19.639000
H -16.543600 -10.694600 -21.418000
H -16.272000 -9.005200 -26.267200
C -15.845000 -12.331100 -20.422600
C -15.778000 -11.241000 -21.280600
H -15.489000 -9.056900 -28.475100
C -15.339700 -8.957600 -26.442100
C -14.875300 -8.999800 -27.752900
H -14.785500 -13.846600 -19.596300
H -14.772400 -8.802300 -24.500700
C -14.736500 -13.113200 -20.197400
C -14.587500 -10.951500 -21.937600
H -14.543900 -10.206300 -22.525100
C -14.447100 -8.844800 -25.392000
C -13.543000 -12.825700 -20.852200
C -13.526700 -8.959600 -27.994100
C -13.457700 -11.742400 -21.743500
H -13.206900 -9.003500 -28.888500
C -13.072900 -8.792800 -25.626900
H -12.778500 -13.367400 -20.695600
C -12.621400 -8.855600 -26.944300
N -12.481200 -9.437500 -23.329600
N -12.235700 -11.557900 -22.398200
H -12.226700 -7.633900 -24.148800
C -12.119000 -8.580900 -24.451700
C -11.868600 -10.583500 -23.303500
H -11.689000 -8.827500 -27.125100
H -11.614100 -12.157400 -22.215900
N -10.798200 -10.981900 -24.074200
N -10.719200 -8.761400 -24.812900
H -10.290700 -8.075500 -25.145400
C -10.204700 -9.995800 -24.740400
N -9.015500 -10.226400 -25.327200
H -8.707100 -11.030000 -25.180900
H -8.665500 -9.655300 -25.894500
H -8.301400 -10.979000 -33.238800
H -8.193200 -13.457500 -27.171800
H -8.105700 -12.177100 -29.039600
N -7.971100 -10.179300 -33.064400
H -7.833400 -9.586600 -33.694200
C -7.525600 -12.916900 -26.766800
N -7.523200 -10.978000 -30.954100
N -7.504600 -11.600100 -28.760800
C -7.481200 -9.968300 -31.829600
H -7.450900 -13.955200 -25.016200
C -7.180000 -10.617900 -29.663400
C -7.085900 -13.214200 -25.486000
H -7.079000 -8.075500 -32.059900
N -7.034700 -8.756500 -31.514900
C -6.995700 -11.826800 -27.471000
N -6.642500 -9.497300 -29.265600
H -6.301800 -7.668800 -29.988000
C -6.196100 -8.607300 -30.317900
C -6.116900 -12.429200 -24.898200
C -5.990900 -11.070200 -26.873600
H -5.595800 -10.348400 -27.349000
Cl -5.579200 -12.764900 -23.273000
C -5.564200 -11.365600 -25.585100
H -4.889600 -10.836300 -25.175500
C -4.732300 -8.805600 -30.687600
H -4.642900 -10.816000 -30.419100
H -4.370800 -6.847300 -31.082500
C -4.145600 -10.058600 -30.703700
C -3.986600 -7.716400 -31.099500
C -2.829400 -10.216600 -31.136400
C -2.683600 -7.883200 -31.537800
H -2.431400 -11.079600 -31.142200
H -2.184700 -7.129500 -31.829900
C -2.106100 -9.125400 -31.554900
H -1.211400 -9.232500 -31.853800
