35
Fragment
Cl -17.364200 -12.703400 -19.639000
H -16.543600 -10.694600 -21.418000
H -16.272000 -9.005200 -26.267200
C -15.845000 -12.331100 -20.422600
C -15.778000 -11.241000 -21.280600
H -15.489000 -9.056900 -28.475100
C -15.339700 -8.957600 -26.442100
C -14.875300 -8.999800 -27.752900
H -14.785500 -13.846600 -19.596300
H -14.772400 -8.802300 -24.500700
C -14.736500 -13.113200 -20.197400
C -14.587500 -10.951500 -21.937600
H -14.543900 -10.206300 -22.525100
C -14.447100 -8.844800 -25.392000
C -13.543000 -12.825700 -20.852200
C -13.526700 -8.959600 -27.994100
C -13.457700 -11.742400 -21.743500
H -13.206900 -9.003500 -28.888500
C -13.072900 -8.792800 -25.626900
H -12.778500 -13.367400 -20.695600
C -12.621400 -8.855600 -26.944300
N -12.481200 -9.437500 -23.329600
N -12.235700 -11.557900 -22.398200
H -12.226700 -7.633900 -24.148800
C -12.119000 -8.580900 -24.451700
C -11.868600 -10.583500 -23.303500
H -11.689000 -8.827500 -27.125100
H -11.614100 -12.157400 -22.215900
N -10.798200 -10.981900 -24.074200
N -10.719200 -8.761400 -24.812900
H -10.290700 -8.075500 -25.145400
C -10.204700 -9.995800 -24.740400
N -9.015500 -10.226400 -25.327200
H -8.707100 -11.030000 -25.180900
H -8.665500 -9.655300 -25.894500
9
Fragment
H -14.831700 -5.866400 -21.952200
H -14.757400 -8.019900 -20.998200
H -14.056500 -6.890700 -22.906500
H -14.035600 -6.938800 -20.066700
C -14.028700 -6.419200 -22.047100
C -13.973400 -7.419100 -20.930600
H -13.232700 -5.848200 -22.014500
H -12.794800 -8.615200 -21.674000
O -12.781200 -8.209600 -20.936500
44
Fragment
Cl -17.364200 -12.703400 -19.639000
H -16.543600 -10.694600 -21.418000
H -16.272000 -9.005200 -26.267200
C -15.845000 -12.331100 -20.422600
C -15.778000 -11.241000 -21.280600
H -15.489000 -9.056900 -28.475100
C -15.339700 -8.957600 -26.442100
C -14.875300 -8.999800 -27.752900
H -14.785500 -13.846600 -19.596300
H -14.772400 -8.802300 -24.500700
C -14.736500 -13.113200 -20.197400
C -14.587500 -10.951500 -21.937600
H -14.543900 -10.206300 -22.525100
C -14.447100 -8.844800 -25.392000
C -13.543000 -12.825700 -20.852200
C -13.526700 -8.959600 -27.994100
C -13.457700 -11.742400 -21.743500
H -13.206900 -9.003500 -28.888500
C -13.072900 -8.792800 -25.626900
H -12.778500 -13.367400 -20.695600
C -12.621400 -8.855600 -26.944300
N -12.481200 -9.437500 -23.329600
N -12.235700 -11.557900 -22.398200
H -12.226700 -7.633900 -24.148800
C -12.119000 -8.580900 -24.451700
C -11.868600 -10.583500 -23.303500
H -11.689000 -8.827500 -27.125100
H -11.614100 -12.157400 -22.215900
N -10.798200 -10.981900 -24.074200
N -10.719200 -8.761400 -24.812900
H -10.290700 -8.075500 -25.145400
C -10.204700 -9.995800 -24.740400
N -9.015500 -10.226400 -25.327200
H -8.707100 -11.030000 -25.180900
H -8.665500 -9.655300 -25.894500
H -14.831700 -5.866400 -21.952200
H -14.757400 -8.019900 -20.998200
H -14.056500 -6.890700 -22.906500
H -14.035600 -6.938800 -20.066700
C -14.028700 -6.419200 -22.047100
C -13.973400 -7.419100 -20.930600
H -13.232700 -5.848200 -22.014500
H -12.794800 -8.615200 -21.674000
O -12.781200 -8.209600 -20.936500
