39
Fragment
H -19.199300 -10.642100 -26.924900
H -18.787000 -9.291000 -27.562800
N -18.764600 -9.875500 -26.908500
C -17.936000 -9.681600 -25.870100
H -17.862700 -11.856100 -23.008500
N -17.758500 -10.689000 -25.006700
H -17.531200 -7.773500 -26.198000
H -17.498600 -13.187400 -21.231900
N -17.355000 -8.490100 -25.711400
N -17.224700 -11.268600 -22.873500
C -17.058700 -10.340500 -23.877800
C -16.686800 -12.724500 -21.059300
C -16.350000 -11.597600 -21.833600
N -16.347000 -9.264600 -23.679000
C -16.171700 -8.420600 -24.842100
H -16.093500 -7.477500 -24.518200
H -16.074900 -13.927100 -19.525900
C -15.842200 -13.165000 -20.043100
C -15.169100 -10.907400 -21.542900
H -14.940500 -10.126100 -22.033700
C -14.914900 -8.733900 -25.650600
H -14.851700 -6.899200 -26.522000
C -14.659900 -12.488500 -19.792400
H -14.549000 -10.639700 -25.028100
C -14.440900 -7.755900 -26.521400
C -14.325500 -11.368500 -20.529700
C -14.263800 -9.965500 -25.632800
Cl -13.561300 -13.094100 -18.585400
H -13.514600 -10.908800 -20.345900
C -13.386300 -7.996700 -27.384700
C -13.208400 -10.214200 -26.488700
H -13.081200 -7.311800 -27.968200
C -12.782100 -9.236200 -27.396600
H -12.767600 -11.055800 -26.459800
H -12.201700 -8.463000 -29.789400
O -11.757300 -9.603300 -28.230300
C -11.407500 -8.677100 -29.256900
H -11.056100 -7.856900 -28.850700
H -10.723100 -9.073600 -29.835700
9
Fragment
H -22.321500 -11.141700 -23.439800
H -22.082100 -12.242700 -22.303300
C -21.646100 -11.585800 -22.885400
H -21.205600 -12.906600 -24.259200
H -21.183900 -10.918600 -22.336500
C -20.709900 -12.241800 -23.717600
H -20.346100 -11.569200 -24.346600
H -19.851600 -13.461700 -22.489300
O -19.629300 -12.897700 -23.130200
48
Fragment
H -19.199300 -10.642100 -26.924900
H -18.787000 -9.291000 -27.562800
N -18.764600 -9.875500 -26.908500
C -17.936000 -9.681600 -25.870100
H -17.862700 -11.856100 -23.008500
N -17.758500 -10.689000 -25.006700
H -17.531200 -7.773500 -26.198000
H -17.498600 -13.187400 -21.231900
N -17.355000 -8.490100 -25.711400
N -17.224700 -11.268600 -22.873500
C -17.058700 -10.340500 -23.877800
C -16.686800 -12.724500 -21.059300
C -16.350000 -11.597600 -21.833600
N -16.347000 -9.264600 -23.679000
C -16.171700 -8.420600 -24.842100
H -16.093500 -7.477500 -24.518200
H -16.074900 -13.927100 -19.525900
C -15.842200 -13.165000 -20.043100
C -15.169100 -10.907400 -21.542900
H -14.940500 -10.126100 -22.033700
C -14.914900 -8.733900 -25.650600
H -14.851700 -6.899200 -26.522000
C -14.659900 -12.488500 -19.792400
H -14.549000 -10.639700 -25.028100
C -14.440900 -7.755900 -26.521400
C -14.325500 -11.368500 -20.529700
C -14.263800 -9.965500 -25.632800
Cl -13.561300 -13.094100 -18.585400
H -13.514600 -10.908800 -20.345900
C -13.386300 -7.996700 -27.384700
C -13.208400 -10.214200 -26.488700
H -13.081200 -7.311800 -27.968200
C -12.782100 -9.236200 -27.396600
H -12.767600 -11.055800 -26.459800
H -12.201700 -8.463000 -29.789400
O -11.757300 -9.603300 -28.230300
C -11.407500 -8.677100 -29.256900
H -11.056100 -7.856900 -28.850700
H -10.723100 -9.073600 -29.835700
H -22.321500 -11.141700 -23.439800
H -22.082100 -12.242700 -22.303300
C -21.646100 -11.585800 -22.885400
H -21.205600 -12.906600 -24.259200
H -21.183900 -10.918600 -22.336500
C -20.709900 -12.241800 -23.717600
H -20.346100 -11.569200 -24.346600
H -19.851600 -13.461700 -22.489300
O -19.629300 -12.897700 -23.130200
