35
Fragment
H -11.058700 -18.439000 -26.339500
H -10.929500 -15.903300 -20.269100
H -10.859200 -17.197400 -22.140000
N -10.688100 -19.221200 -26.155200
H -10.528300 -19.837100 -26.753700
N -10.250000 -18.399000 -24.045500
C -10.249300 -16.433800 -19.871700
N -10.235700 -17.754700 -21.860000
C -10.193000 -19.414800 -24.913900
H -10.157300 -15.374100 -18.132200
C -9.904400 -18.751900 -22.757100
C -9.799100 -16.121000 -18.597600
N -9.738400 -20.618300 -24.596800
C -9.720200 -17.520000 -20.583100
H -9.662200 -21.362300 -25.068200
N -9.369400 -19.864500 -22.347100
H -9.010400 -21.694700 -23.054600
C -8.906300 -20.758100 -23.388400
C -8.825100 -16.904100 -18.016300
C -8.691000 -18.259200 -19.977400
H -8.283300 -18.975600 -20.449800
C -8.266300 -17.947300 -18.696200
Br -8.243400 -16.529100 -16.242800
H -7.581500 -18.463900 -18.286600
C -7.428000 -20.545900 -23.731200
H -7.368600 -18.542500 -23.445000
H -7.056900 -22.498100 -24.158600
C -6.858000 -19.295500 -23.719800
C -6.676700 -21.627300 -24.156900
C -5.517800 -19.133200 -24.115500
C -5.365300 -21.439500 -24.582600
H -5.112800 -18.274300 -24.085900
H -4.865900 -22.180800 -24.902800
C -4.795600 -20.217400 -24.545400
H -3.892400 -20.107800 -24.817800
35
Fragment
H -11.638700 -14.792300 -23.925500
H -11.544700 -13.404000 -24.582600
N -11.284700 -14.236000 -24.506800
C -10.086000 -14.466700 -25.085300
H -9.960400 -16.425000 -24.696800
N -9.574900 -15.697600 -24.998200
N -9.498100 -13.498800 -25.761000
H -8.725100 -12.387200 -27.625000
H -8.586000 -15.620300 -22.688700
C -8.417700 -13.898700 -26.533700
C -8.182600 -15.891200 -25.361000
H -8.080900 -16.842800 -25.651300
N -8.057300 -12.930800 -27.447900
N -7.815500 -15.047500 -26.498000
C -7.654700 -15.591100 -22.877100
H -7.506500 -11.147700 -29.175400
C -7.204100 -15.660500 -24.191200
H -7.031800 -15.429900 -20.934000
C -6.826700 -12.764600 -28.105000
C -6.743200 -11.689100 -29.012000
C -6.725800 -15.477700 -21.832900
C -5.842600 -15.606700 -24.442600
H -5.756600 -14.292600 -27.296300
C -5.709600 -13.557500 -27.896400
C -5.550700 -11.419300 -29.666200
H -5.529200 -15.648400 -25.338200
H -5.496300 -10.690900 -30.273800
C -5.384500 -15.436600 -22.095700
C -4.929500 -15.494300 -23.404100
H -4.763300 -15.367100 -21.380200
C -4.512700 -13.280800 -28.566300
C -4.448800 -12.205400 -29.436200
H -3.998200 -15.456700 -23.587700
H -3.748900 -13.827400 -28.424600
Br -2.775400 -11.803900 -30.273400
70
Fragment
H -11.058700 -18.439000 -26.339500
H -10.929500 -15.903300 -20.269100
H -10.859200 -17.197400 -22.140000
N -10.688100 -19.221200 -26.155200
H -10.528300 -19.837100 -26.753700
N -10.250000 -18.399000 -24.045500
C -10.249300 -16.433800 -19.871700
N -10.235700 -17.754700 -21.860000
C -10.193000 -19.414800 -24.913900
H -10.157300 -15.374100 -18.132200
C -9.904400 -18.751900 -22.757100
C -9.799100 -16.121000 -18.597600
N -9.738400 -20.618300 -24.596800
C -9.720200 -17.520000 -20.583100
H -9.662200 -21.362300 -25.068200
N -9.369400 -19.864500 -22.347100
H -9.010400 -21.694700 -23.054600
C -8.906300 -20.758100 -23.388400
C -8.825100 -16.904100 -18.016300
C -8.691000 -18.259200 -19.977400
H -8.283300 -18.975600 -20.449800
C -8.266300 -17.947300 -18.696200
Br -8.243400 -16.529100 -16.242800
H -7.581500 -18.463900 -18.286600
C -7.428000 -20.545900 -23.731200
H -7.368600 -18.542500 -23.445000
H -7.056900 -22.498100 -24.158600
C -6.858000 -19.295500 -23.719800
C -6.676700 -21.627300 -24.156900
C -5.517800 -19.133200 -24.115500
C -5.365300 -21.439500 -24.582600
H -5.112800 -18.274300 -24.085900
H -4.865900 -22.180800 -24.902800
C -4.795600 -20.217400 -24.545400
H -3.892400 -20.107800 -24.817800
H -11.638700 -14.792300 -23.925500
H -11.544700 -13.404000 -24.582600
N -11.284700 -14.236000 -24.506800
C -10.086000 -14.466700 -25.085300
H -9.960400 -16.425000 -24.696800
N -9.574900 -15.697600 -24.998200
N -9.498100 -13.498800 -25.761000
H -8.725100 -12.387200 -27.625000
H -8.586000 -15.620300 -22.688700
C -8.417700 -13.898700 -26.533700
C -8.182600 -15.891200 -25.361000
H -8.080900 -16.842800 -25.651300
N -8.057300 -12.930800 -27.447900
N -7.815500 -15.047500 -26.498000
C -7.654700 -15.591100 -22.877100
H -7.506500 -11.147700 -29.175400
C -7.204100 -15.660500 -24.191200
H -7.031800 -15.429900 -20.934000
C -6.826700 -12.764600 -28.105000
C -6.743200 -11.689100 -29.012000
C -6.725800 -15.477700 -21.832900
C -5.842600 -15.606700 -24.442600
H -5.756600 -14.292600 -27.296300
C -5.709600 -13.557500 -27.896400
C -5.550700 -11.419300 -29.666200
H -5.529200 -15.648400 -25.338200
H -5.496300 -10.690900 -30.273800
C -5.384500 -15.436600 -22.095700
C -4.929500 -15.494300 -23.404100
H -4.763300 -15.367100 -21.380200
C -4.512700 -13.280800 -28.566300
C -4.448800 -12.205400 -29.436200
H -3.998200 -15.456700 -23.587700
H -3.748900 -13.827400 -28.424600
Br -2.775400 -11.803900 -30.273400
