35
Fragment
H -11.058700 -18.439000 -26.339500
H -10.929500 -15.903300 -20.269100
H -10.859200 -17.197400 -22.140000
N -10.688100 -19.221200 -26.155200
H -10.528300 -19.837100 -26.753700
N -10.250000 -18.399000 -24.045500
C -10.249300 -16.433800 -19.871700
N -10.235700 -17.754700 -21.860000
C -10.193000 -19.414800 -24.913900
H -10.157300 -15.374100 -18.132200
C -9.904400 -18.751900 -22.757100
C -9.799100 -16.121000 -18.597600
N -9.738400 -20.618300 -24.596800
C -9.720200 -17.520000 -20.583100
H -9.662200 -21.362300 -25.068200
N -9.369400 -19.864500 -22.347100
H -9.010400 -21.694700 -23.054600
C -8.906300 -20.758100 -23.388400
C -8.825100 -16.904100 -18.016300
C -8.691000 -18.259200 -19.977400
H -8.283300 -18.975600 -20.449800
C -8.266300 -17.947300 -18.696200
Br -8.243400 -16.529100 -16.242800
H -7.581500 -18.463900 -18.286600
C -7.428000 -20.545900 -23.731200
H -7.368600 -18.542500 -23.445000
H -7.056900 -22.498100 -24.158600
C -6.858000 -19.295500 -23.719800
C -6.676700 -21.627300 -24.156900
C -5.517800 -19.133200 -24.115500
C -5.365300 -21.439500 -24.582600
H -5.112800 -18.274300 -24.085900
H -4.865900 -22.180800 -24.902800
C -4.795600 -20.217400 -24.545400
H -3.892400 -20.107800 -24.817800
9
Fragment
H -12.654500 -15.867700 -13.883900
O -12.613200 -16.291100 -14.601000
H -12.269700 -18.664400 -13.527800
C -11.459700 -18.116400 -13.464000
H -11.447900 -17.649200 -12.603100
C -11.445200 -17.119200 -14.571000
H -11.369900 -17.598600 -15.434400
H -10.669600 -18.692900 -13.533700
H -10.646100 -16.543500 -14.475000
44
Fragment
H -11.058700 -18.439000 -26.339500
H -10.929500 -15.903300 -20.269100
H -10.859200 -17.197400 -22.140000
N -10.688100 -19.221200 -26.155200
H -10.528300 -19.837100 -26.753700
N -10.250000 -18.399000 -24.045500
C -10.249300 -16.433800 -19.871700
N -10.235700 -17.754700 -21.860000
C -10.193000 -19.414800 -24.913900
H -10.157300 -15.374100 -18.132200
C -9.904400 -18.751900 -22.757100
C -9.799100 -16.121000 -18.597600
N -9.738400 -20.618300 -24.596800
C -9.720200 -17.520000 -20.583100
H -9.662200 -21.362300 -25.068200
N -9.369400 -19.864500 -22.347100
H -9.010400 -21.694700 -23.054600
C -8.906300 -20.758100 -23.388400
C -8.825100 -16.904100 -18.016300
C -8.691000 -18.259200 -19.977400
H -8.283300 -18.975600 -20.449800
C -8.266300 -17.947300 -18.696200
Br -8.243400 -16.529100 -16.242800
H -7.581500 -18.463900 -18.286600
C -7.428000 -20.545900 -23.731200
H -7.368600 -18.542500 -23.445000
H -7.056900 -22.498100 -24.158600
C -6.858000 -19.295500 -23.719800
C -6.676700 -21.627300 -24.156900
C -5.517800 -19.133200 -24.115500
C -5.365300 -21.439500 -24.582600
H -5.112800 -18.274300 -24.085900
H -4.865900 -22.180800 -24.902800
C -4.795600 -20.217400 -24.545400
H -3.892400 -20.107800 -24.817800
H -12.654500 -15.867700 -13.883900
O -12.613200 -16.291100 -14.601000
H -12.269700 -18.664400 -13.527800
C -11.459700 -18.116400 -13.464000
H -11.447900 -17.649200 -12.603100
C -11.445200 -17.119200 -14.571000
H -11.369900 -17.598600 -15.434400
H -10.669600 -18.692900 -13.533700
H -10.646100 -16.543500 -14.475000
