35
Fragment
H -11.058700 -18.439000 -26.339500
H -10.929500 -15.903300 -20.269100
H -10.859200 -17.197400 -22.140000
N -10.688100 -19.221200 -26.155200
H -10.528300 -19.837100 -26.753700
N -10.250000 -18.399000 -24.045500
C -10.249300 -16.433800 -19.871700
N -10.235700 -17.754700 -21.860000
C -10.193000 -19.414800 -24.913900
H -10.157300 -15.374100 -18.132200
C -9.904400 -18.751900 -22.757100
C -9.799100 -16.121000 -18.597600
N -9.738400 -20.618300 -24.596800
C -9.720200 -17.520000 -20.583100
H -9.662200 -21.362300 -25.068200
N -9.369400 -19.864500 -22.347100
H -9.010400 -21.694700 -23.054600
C -8.906300 -20.758100 -23.388400
C -8.825100 -16.904100 -18.016300
C -8.691000 -18.259200 -19.977400
H -8.283300 -18.975600 -20.449800
C -8.266300 -17.947300 -18.696200
Br -8.243400 -16.529100 -16.242800
H -7.581500 -18.463900 -18.286600
C -7.428000 -20.545900 -23.731200
H -7.368600 -18.542500 -23.445000
H -7.056900 -22.498100 -24.158600
C -6.858000 -19.295500 -23.719800
C -6.676700 -21.627300 -24.156900
C -5.517800 -19.133200 -24.115500
C -5.365300 -21.439500 -24.582600
H -5.112800 -18.274300 -24.085900
H -4.865900 -22.180800 -24.902800
C -4.795600 -20.217400 -24.545400
H -3.892400 -20.107800 -24.817800
35
Fragment
Br -15.125200 -16.692300 -26.862100
H -14.151800 -18.715800 -28.710900
H -13.902400 -20.345100 -33.547800
C -13.451800 -17.093800 -27.699300
C -13.387900 -18.169200 -28.569200
H -13.137300 -20.255500 -35.755300
C -12.971200 -20.382700 -33.731400
C -12.516200 -20.325000 -35.039800
H -12.404300 -15.579300 -26.861700
H -12.371500 -20.536800 -31.797300
C -12.350000 -16.307700 -27.469300
C -12.191000 -18.445900 -29.239100
H -12.144100 -19.181000 -29.839200
C -12.058000 -20.495100 -32.692900
C -11.174800 -20.366100 -35.302600
C -11.157400 -16.577500 -28.123500
C -11.073900 -17.653000 -29.030500
H -10.868800 -20.318300 -36.201500
C -10.696600 -20.548900 -32.944300
H -10.394200 -16.036100 -27.960100
C -10.245900 -20.479500 -34.258400
N -10.085100 -19.935900 -30.637500
N -9.843300 -17.819200 -29.687600
H -9.819700 -21.731200 -31.484200
C -9.718000 -20.779600 -31.774500
C -9.483000 -18.787100 -30.601800
H -9.314600 -20.508700 -34.446900
H -9.175500 -17.275600 -29.510500
N -8.402500 -18.387200 -31.374500
N -8.325800 -20.586000 -32.137300
H -7.940200 -21.313400 -32.438700
C -7.814700 -19.355100 -32.050200
N -6.615900 -19.124400 -32.628700
H -6.355900 -18.292400 -32.553000
H -6.262000 -19.680700 -33.210000
70
Fragment
H -11.058700 -18.439000 -26.339500
H -10.929500 -15.903300 -20.269100
H -10.859200 -17.197400 -22.140000
N -10.688100 -19.221200 -26.155200
H -10.528300 -19.837100 -26.753700
N -10.250000 -18.399000 -24.045500
C -10.249300 -16.433800 -19.871700
N -10.235700 -17.754700 -21.860000
C -10.193000 -19.414800 -24.913900
H -10.157300 -15.374100 -18.132200
C -9.904400 -18.751900 -22.757100
C -9.799100 -16.121000 -18.597600
N -9.738400 -20.618300 -24.596800
C -9.720200 -17.520000 -20.583100
H -9.662200 -21.362300 -25.068200
N -9.369400 -19.864500 -22.347100
H -9.010400 -21.694700 -23.054600
C -8.906300 -20.758100 -23.388400
C -8.825100 -16.904100 -18.016300
C -8.691000 -18.259200 -19.977400
H -8.283300 -18.975600 -20.449800
C -8.266300 -17.947300 -18.696200
Br -8.243400 -16.529100 -16.242800
H -7.581500 -18.463900 -18.286600
C -7.428000 -20.545900 -23.731200
H -7.368600 -18.542500 -23.445000
H -7.056900 -22.498100 -24.158600
C -6.858000 -19.295500 -23.719800
C -6.676700 -21.627300 -24.156900
C -5.517800 -19.133200 -24.115500
C -5.365300 -21.439500 -24.582600
H -5.112800 -18.274300 -24.085900
H -4.865900 -22.180800 -24.902800
C -4.795600 -20.217400 -24.545400
H -3.892400 -20.107800 -24.817800
Br -15.125200 -16.692300 -26.862100
H -14.151800 -18.715800 -28.710900
H -13.902400 -20.345100 -33.547800
C -13.451800 -17.093800 -27.699300
C -13.387900 -18.169200 -28.569200
H -13.137300 -20.255500 -35.755300
C -12.971200 -20.382700 -33.731400
C -12.516200 -20.325000 -35.039800
H -12.404300 -15.579300 -26.861700
H -12.371500 -20.536800 -31.797300
C -12.350000 -16.307700 -27.469300
C -12.191000 -18.445900 -29.239100
H -12.144100 -19.181000 -29.839200
C -12.058000 -20.495100 -32.692900
C -11.174800 -20.366100 -35.302600
C -11.157400 -16.577500 -28.123500
C -11.073900 -17.653000 -29.030500
H -10.868800 -20.318300 -36.201500
C -10.696600 -20.548900 -32.944300
H -10.394200 -16.036100 -27.960100
C -10.245900 -20.479500 -34.258400
N -10.085100 -19.935900 -30.637500
N -9.843300 -17.819200 -29.687600
H -9.819700 -21.731200 -31.484200
C -9.718000 -20.779600 -31.774500
C -9.483000 -18.787100 -30.601800
H -9.314600 -20.508700 -34.446900
H -9.175500 -17.275600 -29.510500
N -8.402500 -18.387200 -31.374500
N -8.325800 -20.586000 -32.137300
H -7.940200 -21.313400 -32.438700
C -7.814700 -19.355100 -32.050200
N -6.615900 -19.124400 -32.628700
H -6.355900 -18.292400 -32.553000
H -6.262000 -19.680700 -33.210000
