35
Fragment
H -11.058700 -18.439000 -26.339500
H -10.929500 -15.903300 -20.269100
H -10.859200 -17.197400 -22.140000
N -10.688100 -19.221200 -26.155200
H -10.528300 -19.837100 -26.753700
N -10.250000 -18.399000 -24.045500
C -10.249300 -16.433800 -19.871700
N -10.235700 -17.754700 -21.860000
C -10.193000 -19.414800 -24.913900
H -10.157300 -15.374100 -18.132200
C -9.904400 -18.751900 -22.757100
C -9.799100 -16.121000 -18.597600
N -9.738400 -20.618300 -24.596800
C -9.720200 -17.520000 -20.583100
H -9.662200 -21.362300 -25.068200
N -9.369400 -19.864500 -22.347100
H -9.010400 -21.694700 -23.054600
C -8.906300 -20.758100 -23.388400
C -8.825100 -16.904100 -18.016300
C -8.691000 -18.259200 -19.977400
H -8.283300 -18.975600 -20.449800
C -8.266300 -17.947300 -18.696200
Br -8.243400 -16.529100 -16.242800
H -7.581500 -18.463900 -18.286600
C -7.428000 -20.545900 -23.731200
H -7.368600 -18.542500 -23.445000
H -7.056900 -22.498100 -24.158600
C -6.858000 -19.295500 -23.719800
C -6.676700 -21.627300 -24.156900
C -5.517800 -19.133200 -24.115500
C -5.365300 -21.439500 -24.582600
H -5.112800 -18.274300 -24.085900
H -4.865900 -22.180800 -24.902800
C -4.795600 -20.217400 -24.545400
H -3.892400 -20.107800 -24.817800
35
Fragment
H -19.100700 -24.996200 -18.033800
C -18.197500 -25.105800 -18.306200
H -18.127200 -27.069200 -17.948800
H -17.880300 -23.162700 -18.765700
C -17.627700 -26.327900 -18.269100
C -17.475200 -24.021600 -18.736200
C -16.316400 -26.515700 -18.694700
C -16.135000 -24.183900 -19.131800
H -15.936200 -27.386500 -18.693000
H -15.624500 -23.430900 -19.406600
C -15.565100 -25.434300 -19.120400
H -15.411600 -23.352300 -24.565000
Br -14.749600 -21.417500 -26.608900
C -14.726700 -22.835700 -24.155500
H -14.709800 -23.864000 -22.401800
C -14.302000 -23.147600 -22.874200
C -14.168000 -21.792500 -24.835400
C -14.086800 -25.646500 -19.463200
H -13.982700 -26.583100 -19.797000
N -13.623700 -24.752900 -20.504500
H -13.330900 -26.250700 -17.783400
C -13.272900 -22.408400 -22.268600
N -13.254700 -25.506700 -18.254800
C -13.194000 -21.009400 -24.254000
C -13.088700 -23.640300 -20.094600
H -12.835800 -20.262500 -24.719400
C -12.800100 -24.303200 -17.937700
N -12.757400 -22.643100 -20.991600
C -12.743700 -21.322200 -22.979900
N -12.743000 -23.287400 -18.806200
H -12.464800 -24.725500 -16.097900
N -12.305000 -24.109600 -16.696400
H -12.133900 -22.085800 -20.711600
H -12.063600 -20.791700 -22.582500
H -11.934400 -23.327400 -16.512200
70
Fragment
H -11.058700 -18.439000 -26.339500
H -10.929500 -15.903300 -20.269100
H -10.859200 -17.197400 -22.140000
N -10.688100 -19.221200 -26.155200
H -10.528300 -19.837100 -26.753700
N -10.250000 -18.399000 -24.045500
C -10.249300 -16.433800 -19.871700
N -10.235700 -17.754700 -21.860000
C -10.193000 -19.414800 -24.913900
H -10.157300 -15.374100 -18.132200
C -9.904400 -18.751900 -22.757100
C -9.799100 -16.121000 -18.597600
N -9.738400 -20.618300 -24.596800
C -9.720200 -17.520000 -20.583100
H -9.662200 -21.362300 -25.068200
N -9.369400 -19.864500 -22.347100
H -9.010400 -21.694700 -23.054600
C -8.906300 -20.758100 -23.388400
C -8.825100 -16.904100 -18.016300
C -8.691000 -18.259200 -19.977400
H -8.283300 -18.975600 -20.449800
C -8.266300 -17.947300 -18.696200
Br -8.243400 -16.529100 -16.242800
H -7.581500 -18.463900 -18.286600
C -7.428000 -20.545900 -23.731200
H -7.368600 -18.542500 -23.445000
H -7.056900 -22.498100 -24.158600
C -6.858000 -19.295500 -23.719800
C -6.676700 -21.627300 -24.156900
C -5.517800 -19.133200 -24.115500
C -5.365300 -21.439500 -24.582600
H -5.112800 -18.274300 -24.085900
H -4.865900 -22.180800 -24.902800
C -4.795600 -20.217400 -24.545400
H -3.892400 -20.107800 -24.817800
H -19.100700 -24.996200 -18.033800
C -18.197500 -25.105800 -18.306200
H -18.127200 -27.069200 -17.948800
H -17.880300 -23.162700 -18.765700
C -17.627700 -26.327900 -18.269100
C -17.475200 -24.021600 -18.736200
C -16.316400 -26.515700 -18.694700
C -16.135000 -24.183900 -19.131800
H -15.936200 -27.386500 -18.693000
H -15.624500 -23.430900 -19.406600
C -15.565100 -25.434300 -19.120400
H -15.411600 -23.352300 -24.565000
Br -14.749600 -21.417500 -26.608900
C -14.726700 -22.835700 -24.155500
H -14.709800 -23.864000 -22.401800
C -14.302000 -23.147600 -22.874200
C -14.168000 -21.792500 -24.835400
C -14.086800 -25.646500 -19.463200
H -13.982700 -26.583100 -19.797000
N -13.623700 -24.752900 -20.504500
H -13.330900 -26.250700 -17.783400
C -13.272900 -22.408400 -22.268600
N -13.254700 -25.506700 -18.254800
C -13.194000 -21.009400 -24.254000
C -13.088700 -23.640300 -20.094600
H -12.835800 -20.262500 -24.719400
C -12.800100 -24.303200 -17.937700
N -12.757400 -22.643100 -20.991600
C -12.743700 -21.322200 -22.979900
N -12.743000 -23.287400 -18.806200
H -12.464800 -24.725500 -16.097900
N -12.305000 -24.109600 -16.696400
H -12.133900 -22.085800 -20.711600
H -12.063600 -20.791700 -22.582500
H -11.934400 -23.327400 -16.512200
