13
Fragment
N -16.409300 -7.436100 -17.048300
N -16.276900 -7.681800 -18.375700
N -15.260500 -7.133900 -16.488200
C -14.988500 -7.543700 -18.624500
N -14.900500 -8.070900 -21.038600
N -14.376400 -7.210400 -17.473800
C -14.316500 -7.746000 -19.891300
N -13.879300 -8.171400 -21.926700
O -13.067500 -6.906100 -17.320000
N -13.000800 -7.653900 -20.087900
H -12.846400 -7.242900 -16.538000
N -12.736800 -7.922400 -21.369000
H -12.287300 -7.443900 -19.554000
13
Fragment
H -13.962100 -10.686000 -15.336400
N -13.512600 -11.164500 -13.521400
H -13.403000 -10.485000 -18.352300
N -13.248600 -10.896000 -14.802500
O -13.181900 -10.148200 -17.570400
N -12.370100 -11.413500 -12.963700
C -11.932900 -10.988100 -14.999100
N -11.873000 -10.452500 -17.416600
N -11.348900 -11.313000 -13.851800
C -11.260900 -10.785800 -16.265900
N -10.988900 -10.376000 -18.402200
N -9.972500 -10.923900 -16.514700
N -9.840100 -10.678200 -17.842100
26
Fragment
N -16.409300 -7.436100 -17.048300
N -16.276900 -7.681800 -18.375700
N -15.260500 -7.133900 -16.488200
C -14.988500 -7.543700 -18.624500
N -14.900500 -8.070900 -21.038600
N -14.376400 -7.210400 -17.473800
C -14.316500 -7.746000 -19.891300
N -13.879300 -8.171400 -21.926700
O -13.067500 -6.906100 -17.320000
N -13.000800 -7.653900 -20.087900
H -12.846400 -7.242900 -16.538000
N -12.736800 -7.922400 -21.369000
H -12.287300 -7.443900 -19.554000
H -13.962100 -10.686000 -15.336400
N -13.512600 -11.164500 -13.521400
H -13.403000 -10.485000 -18.352300
N -13.248600 -10.896000 -14.802500
O -13.181900 -10.148200 -17.570400
N -12.370100 -11.413500 -12.963700
C -11.932900 -10.988100 -14.999100
N -11.873000 -10.452500 -17.416600
N -11.348900 -11.313000 -13.851800
C -11.260900 -10.785800 -16.265900
N -10.988900 -10.376000 -18.402200
N -9.972500 -10.923900 -16.514700
N -9.840100 -10.678200 -17.842100
