11
Fragment
Cl -9.402900 -12.412300 -29.399300
O -8.740100 -15.106100 -28.712400
H -8.447300 -15.860400 -28.419100
C -8.365400 -12.982100 -28.141500
N -8.106800 -14.202300 -27.887600
N -7.849600 -10.648600 -27.385000
C -7.766100 -11.966000 -27.275800
N -7.143600 -10.162400 -26.320600
N -7.031500 -12.267300 -26.195600
H -6.836400 -13.031100 -25.846200
N -6.656300 -11.128800 -25.607800
12
Fragment
H -10.973100 -15.772000 -32.031500
H -10.590000 -14.350500 -32.565700
C -10.261000 -15.129300 -32.127400
H -9.949300 -14.887800 -31.233800
H -9.798200 -15.431900 -34.571800
O -9.521500 -16.048100 -34.255600
H -9.251300 -17.662700 -32.205900
C -9.112000 -15.714900 -32.914600
C -8.561500 -16.973800 -32.292400
H -8.420400 -15.071500 -32.981800
H -8.257600 -16.737800 -31.421000
H -7.838000 -17.431500 -32.827400
23
Fragment
Cl -9.402900 -12.412300 -29.399300
O -8.740100 -15.106100 -28.712400
H -8.447300 -15.860400 -28.419100
C -8.365400 -12.982100 -28.141500
N -8.106800 -14.202300 -27.887600
N -7.849600 -10.648600 -27.385000
C -7.766100 -11.966000 -27.275800
N -7.143600 -10.162400 -26.320600
N -7.031500 -12.267300 -26.195600
H -6.836400 -13.031100 -25.846200
N -6.656300 -11.128800 -25.607800
H -10.973100 -15.772000 -32.031500
H -10.590000 -14.350500 -32.565700
C -10.261000 -15.129300 -32.127400
H -9.949300 -14.887800 -31.233800
H -9.798200 -15.431900 -34.571800
O -9.521500 -16.048100 -34.255600
H -9.251300 -17.662700 -32.205900
C -9.112000 -15.714900 -32.914600
C -8.561500 -16.973800 -32.292400
H -8.420400 -15.071500 -32.981800
H -8.257600 -16.737800 -31.421000
H -7.838000 -17.431500 -32.827400
