11
Fragment
Cl -9.402900 -12.412300 -29.399300
O -8.740100 -15.106100 -28.712400
H -8.447300 -15.860400 -28.419100
C -8.365400 -12.982100 -28.141500
N -8.106800 -14.202300 -27.887600
N -7.849600 -10.648600 -27.385000
C -7.766100 -11.966000 -27.275800
N -7.143600 -10.162400 -26.320600
N -7.031500 -12.267300 -26.195600
H -6.836400 -13.031100 -25.846200
N -6.656300 -11.128800 -25.607800
11
Fragment
N -12.723300 -16.076000 -28.904700
H -12.543200 -14.173700 -28.666300
N -12.348000 -14.937500 -28.316800
N -12.236000 -17.042400 -28.191800
C -11.613500 -15.238800 -27.236600
N -11.530000 -16.556200 -27.127400
N -11.272800 -13.002500 -26.624800
C -11.014200 -14.222700 -26.370900
H -10.932200 -11.344400 -26.093300
O -10.639400 -12.098700 -25.800000
Cl -9.976700 -14.792500 -25.113100
22
Fragment
Cl -9.402900 -12.412300 -29.399300
O -8.740100 -15.106100 -28.712400
H -8.447300 -15.860400 -28.419100
C -8.365400 -12.982100 -28.141500
N -8.106800 -14.202300 -27.887600
N -7.849600 -10.648600 -27.385000
C -7.766100 -11.966000 -27.275800
N -7.143600 -10.162400 -26.320600
N -7.031500 -12.267300 -26.195600
H -6.836400 -13.031100 -25.846200
N -6.656300 -11.128800 -25.607800
N -12.723300 -16.076000 -28.904700
H -12.543200 -14.173700 -28.666300
N -12.348000 -14.937500 -28.316800
N -12.236000 -17.042400 -28.191800
C -11.613500 -15.238800 -27.236600
N -11.530000 -16.556200 -27.127400
N -11.272800 -13.002500 -26.624800
C -11.014200 -14.222700 -26.370900
H -10.932200 -11.344400 -26.093300
O -10.639400 -12.098700 -25.800000
Cl -9.976700 -14.792500 -25.113100
