13
Fragment
N -16.409300 -7.436100 -17.048300
N -16.276900 -7.681800 -18.375700
N -15.260500 -7.133900 -16.488200
C -14.988500 -7.543700 -18.624500
N -14.900500 -8.070900 -21.038600
N -14.376400 -7.210400 -17.473800
C -14.316500 -7.746000 -19.891300
N -13.879300 -8.171400 -21.926700
O -13.067500 -6.906100 -17.320000
N -13.000800 -7.653900 -20.087900
H -12.846400 -7.242900 -16.538000
N -12.736800 -7.922400 -21.369000
H -12.287300 -7.443900 -19.554000
13
Fragment
N -24.887600 -7.347900 -19.027000
N -24.626300 -7.347200 -17.754600
N -23.778500 -7.605300 -19.763500
N -23.319000 -7.596200 -17.643100
H -22.980600 -7.683800 -16.771100
C -22.811000 -7.755100 -18.871500
C -21.424300 -8.050100 -19.169600
N -20.821800 -7.971700 -20.342100
O -20.774800 -8.771400 -16.965900
N -20.532400 -8.491800 -18.272800
H -20.064400 -8.455400 -16.560400
N -19.550800 -8.376300 -20.110000
N -19.361500 -8.711500 -18.855300
26
Fragment
N -16.409300 -7.436100 -17.048300
N -16.276900 -7.681800 -18.375700
N -15.260500 -7.133900 -16.488200
C -14.988500 -7.543700 -18.624500
N -14.900500 -8.070900 -21.038600
N -14.376400 -7.210400 -17.473800
C -14.316500 -7.746000 -19.891300
N -13.879300 -8.171400 -21.926700
O -13.067500 -6.906100 -17.320000
N -13.000800 -7.653900 -20.087900
H -12.846400 -7.242900 -16.538000
N -12.736800 -7.922400 -21.369000
H -12.287300 -7.443900 -19.554000
N -24.887600 -7.347900 -19.027000
N -24.626300 -7.347200 -17.754600
N -23.778500 -7.605300 -19.763500
N -23.319000 -7.596200 -17.643100
H -22.980600 -7.683800 -16.771100
C -22.811000 -7.755100 -18.871500
C -21.424300 -8.050100 -19.169600
N -20.821800 -7.971700 -20.342100
O -20.774800 -8.771400 -16.965900
N -20.532400 -8.491800 -18.272800
H -20.064400 -8.455400 -16.560400
N -19.550800 -8.376300 -20.110000
N -19.361500 -8.711500 -18.855300
