11
Fragment
Cl -9.402900 -12.412300 -29.399300
O -8.740100 -15.106100 -28.712400
H -8.447300 -15.860400 -28.419100
C -8.365400 -12.982100 -28.141500
N -8.106800 -14.202300 -27.887600
N -7.849600 -10.648600 -27.385000
C -7.766100 -11.966000 -27.275800
N -7.143600 -10.162400 -26.320600
N -7.031500 -12.267300 -26.195600
H -6.836400 -13.031100 -25.846200
N -6.656300 -11.128800 -25.607800
11
Fragment
N -5.021500 -9.274800 -28.904700
H -4.841400 -7.372500 -28.666300
N -4.646200 -8.136300 -28.316800
N -4.534200 -10.241200 -28.191800
C -3.911700 -8.437600 -27.236600
N -3.828200 -9.755000 -27.127400
N -3.571000 -6.201300 -26.624800
C -3.312400 -7.421500 -26.370900
H -3.230400 -4.543200 -26.093300
O -2.937600 -5.297500 -25.800000
Cl -2.274900 -7.991300 -25.113100
22
Fragment
Cl -9.402900 -12.412300 -29.399300
O -8.740100 -15.106100 -28.712400
H -8.447300 -15.860400 -28.419100
C -8.365400 -12.982100 -28.141500
N -8.106800 -14.202300 -27.887600
N -7.849600 -10.648600 -27.385000
C -7.766100 -11.966000 -27.275800
N -7.143600 -10.162400 -26.320600
N -7.031500 -12.267300 -26.195600
H -6.836400 -13.031100 -25.846200
N -6.656300 -11.128800 -25.607800
N -5.021500 -9.274800 -28.904700
H -4.841400 -7.372500 -28.666300
N -4.646200 -8.136300 -28.316800
N -4.534200 -10.241200 -28.191800
C -3.911700 -8.437600 -27.236600
N -3.828200 -9.755000 -27.127400
N -3.571000 -6.201300 -26.624800
C -3.312400 -7.421500 -26.370900
H -3.230400 -4.543200 -26.093300
O -2.937600 -5.297500 -25.800000
Cl -2.274900 -7.991300 -25.113100
