19
Fragment
H -28.019400 -6.209600 -27.871800
H -27.956800 -8.112300 -26.533000
O -27.103300 -10.006500 -25.135200
C -27.094300 -5.912200 -27.738500
H -27.093800 -5.062100 -27.250900
C -27.021500 -8.025700 -26.385500
H -26.660100 -5.789400 -28.608400
H -26.655200 -10.511200 -24.615800
C -26.361600 -8.977400 -25.615800
C -26.339900 -6.951200 -26.941500
C -24.996500 -8.841100 -25.374900
C -24.968500 -6.852600 -26.698500
H -24.549000 -9.484900 -24.838700
C -24.279200 -7.768900 -25.910700
Cl -24.084300 -5.520000 -27.417300
C -22.805200 -7.612300 -25.619500
H -22.645800 -6.741200 -25.199300
H -22.515000 -8.325400 -25.013900
H -22.299500 -7.668800 -26.456500
28
Fragment
H -25.827500 -1.964400 -30.675400
H -25.401400 -0.737900 -29.748200
H -25.261100 -3.267100 -29.062600
C -25.065300 -1.556300 -30.192900
H -24.613100 -2.059300 -28.246100
H -24.607900 -2.590900 -32.437800
C -24.604000 -2.529900 -29.117400
N -24.059700 -1.166800 -31.169700
H -23.991700 -4.434100 -30.602200
C -23.752000 -2.185100 -32.149400
H -23.364700 -1.731800 -32.939600
N -23.281200 -3.110000 -29.310200
H -23.241500 0.135500 -29.897900
C -23.146700 -3.932700 -30.489400
C -22.910500 -0.456300 -30.620600
N -22.838100 -3.287500 -31.774100
H -22.549800 0.128000 -31.333700
H -22.434400 -4.597500 -30.311300
H -22.393900 -1.685900 -28.237600
C -22.176700 -2.196400 -29.057500
N -21.796900 -1.235600 -30.081300
C -21.415900 -2.946300 -31.922000
H -21.378100 -2.744500 -28.853400
H -21.243300 -2.752000 -32.876700
C -20.914700 -1.768700 -31.099300
H -20.879800 -3.742200 -31.680700
H -20.691200 -1.033800 -31.725000
H -20.073000 -2.042800 -30.658300
47
Fragment
H -28.019400 -6.209600 -27.871800
H -27.956800 -8.112300 -26.533000
O -27.103300 -10.006500 -25.135200
C -27.094300 -5.912200 -27.738500
H -27.093800 -5.062100 -27.250900
C -27.021500 -8.025700 -26.385500
H -26.660100 -5.789400 -28.608400
H -26.655200 -10.511200 -24.615800
C -26.361600 -8.977400 -25.615800
C -26.339900 -6.951200 -26.941500
C -24.996500 -8.841100 -25.374900
C -24.968500 -6.852600 -26.698500
H -24.549000 -9.484900 -24.838700
C -24.279200 -7.768900 -25.910700
Cl -24.084300 -5.520000 -27.417300
C -22.805200 -7.612300 -25.619500
H -22.645800 -6.741200 -25.199300
H -22.515000 -8.325400 -25.013900
H -22.299500 -7.668800 -26.456500
H -25.827500 -1.964400 -30.675400
H -25.401400 -0.737900 -29.748200
H -25.261100 -3.267100 -29.062600
C -25.065300 -1.556300 -30.192900
H -24.613100 -2.059300 -28.246100
H -24.607900 -2.590900 -32.437800
C -24.604000 -2.529900 -29.117400
N -24.059700 -1.166800 -31.169700
H -23.991700 -4.434100 -30.602200
C -23.752000 -2.185100 -32.149400
H -23.364700 -1.731800 -32.939600
N -23.281200 -3.110000 -29.310200
H -23.241500 0.135500 -29.897900
C -23.146700 -3.932700 -30.489400
C -22.910500 -0.456300 -30.620600
N -22.838100 -3.287500 -31.774100
H -22.549800 0.128000 -31.333700
H -22.434400 -4.597500 -30.311300
H -22.393900 -1.685900 -28.237600
C -22.176700 -2.196400 -29.057500
N -21.796900 -1.235600 -30.081300
C -21.415900 -2.946300 -31.922000
H -21.378100 -2.744500 -28.853400
H -21.243300 -2.752000 -32.876700
C -20.914700 -1.768700 -31.099300
H -20.879800 -3.742200 -31.680700
H -20.691200 -1.033800 -31.725000
H -20.073000 -2.042800 -30.658300
