19
Fragment
H -28.019400 -6.209600 -27.871800
H -27.956800 -8.112300 -26.533000
O -27.103300 -10.006500 -25.135200
C -27.094300 -5.912200 -27.738500
H -27.093800 -5.062100 -27.250900
C -27.021500 -8.025700 -26.385500
H -26.660100 -5.789400 -28.608400
H -26.655200 -10.511200 -24.615800
C -26.361600 -8.977400 -25.615800
C -26.339900 -6.951200 -26.941500
C -24.996500 -8.841100 -25.374900
C -24.968500 -6.852600 -26.698500
H -24.549000 -9.484900 -24.838700
C -24.279200 -7.768900 -25.910700
Cl -24.084300 -5.520000 -27.417300
C -22.805200 -7.612300 -25.619500
H -22.645800 -6.741200 -25.199300
H -22.515000 -8.325400 -25.013900
H -22.299500 -7.668800 -26.456500
28
Fragment
H -29.106200 -13.094600 -22.169500
H -28.680100 -14.321100 -21.242400
H -28.539800 -11.791900 -20.556800
C -28.344100 -13.502700 -21.687100
H -27.891800 -12.999700 -19.740300
H -27.886600 -12.468100 -23.931900
C -27.882700 -12.529100 -20.611600
N -27.338400 -13.892200 -22.663900
H -27.270400 -10.624900 -22.096400
C -27.030700 -12.873900 -23.643600
H -26.643400 -13.327200 -24.433800
N -26.559900 -11.949000 -20.804400
H -26.520200 -15.194500 -21.392100
C -26.425400 -11.126300 -21.983600
C -26.189200 -14.602700 -22.114800
N -26.116800 -11.771500 -23.268300
H -25.828500 -15.187000 -22.827900
H -25.713100 -10.461500 -21.805500
H -25.672600 -13.373100 -19.731800
C -25.455400 -12.862600 -20.551700
N -25.075600 -13.823400 -21.575500
C -24.694600 -12.112700 -23.416200
H -24.656800 -12.314500 -20.347600
H -24.522000 -12.307000 -24.370800
C -24.193400 -13.290300 -22.593500
H -24.158500 -11.316800 -23.174900
H -23.969900 -14.025200 -23.219200
H -23.351700 -13.016200 -22.152500
47
Fragment
H -28.019400 -6.209600 -27.871800
H -27.956800 -8.112300 -26.533000
O -27.103300 -10.006500 -25.135200
C -27.094300 -5.912200 -27.738500
H -27.093800 -5.062100 -27.250900
C -27.021500 -8.025700 -26.385500
H -26.660100 -5.789400 -28.608400
H -26.655200 -10.511200 -24.615800
C -26.361600 -8.977400 -25.615800
C -26.339900 -6.951200 -26.941500
C -24.996500 -8.841100 -25.374900
C -24.968500 -6.852600 -26.698500
H -24.549000 -9.484900 -24.838700
C -24.279200 -7.768900 -25.910700
Cl -24.084300 -5.520000 -27.417300
C -22.805200 -7.612300 -25.619500
H -22.645800 -6.741200 -25.199300
H -22.515000 -8.325400 -25.013900
H -22.299500 -7.668800 -26.456500
H -29.106200 -13.094600 -22.169500
H -28.680100 -14.321100 -21.242400
H -28.539800 -11.791900 -20.556800
C -28.344100 -13.502700 -21.687100
H -27.891800 -12.999700 -19.740300
H -27.886600 -12.468100 -23.931900
C -27.882700 -12.529100 -20.611600
N -27.338400 -13.892200 -22.663900
H -27.270400 -10.624900 -22.096400
C -27.030700 -12.873900 -23.643600
H -26.643400 -13.327200 -24.433800
N -26.559900 -11.949000 -20.804400
H -26.520200 -15.194500 -21.392100
C -26.425400 -11.126300 -21.983600
C -26.189200 -14.602700 -22.114800
N -26.116800 -11.771500 -23.268300
H -25.828500 -15.187000 -22.827900
H -25.713100 -10.461500 -21.805500
H -25.672600 -13.373100 -19.731800
C -25.455400 -12.862600 -20.551700
N -25.075600 -13.823400 -21.575500
C -24.694600 -12.112700 -23.416200
H -24.656800 -12.314500 -20.347600
H -24.522000 -12.307000 -24.370800
C -24.193400 -13.290300 -22.593500
H -24.158500 -11.316800 -23.174900
H -23.969900 -14.025200 -23.219200
H -23.351700 -13.016200 -22.152500
