19
Fragment
H -28.019400 -6.209600 -27.871800
H -27.956800 -8.112300 -26.533000
O -27.103300 -10.006500 -25.135200
C -27.094300 -5.912200 -27.738500
H -27.093800 -5.062100 -27.250900
C -27.021500 -8.025700 -26.385500
H -26.660100 -5.789400 -28.608400
H -26.655200 -10.511200 -24.615800
C -26.361600 -8.977400 -25.615800
C -26.339900 -6.951200 -26.941500
C -24.996500 -8.841100 -25.374900
C -24.968500 -6.852600 -26.698500
H -24.549000 -9.484900 -24.838700
C -24.279200 -7.768900 -25.910700
Cl -24.084300 -5.520000 -27.417300
C -22.805200 -7.612300 -25.619500
H -22.645800 -6.741200 -25.199300
H -22.515000 -8.325400 -25.013900
H -22.299500 -7.668800 -26.456500
28
Fragment
H -20.988000 -5.807500 -28.882300
H -20.369900 -4.798600 -27.815700
H -20.181300 -7.506900 -27.859900
C -20.146400 -5.533400 -28.441400
H -19.817800 -6.516800 -26.664000
H -19.682900 -6.509300 -30.687300
C -19.645200 -6.711000 -27.618700
N -19.264100 -5.000300 -29.459400
C -18.884400 -5.961100 -30.483100
H -18.667100 -5.450600 -31.303100
H -18.626700 -8.362300 -29.229400
H -18.511200 -3.636700 -28.207000
N -18.222900 -7.052200 -27.766500
C -18.150600 -4.221000 -28.920100
C -17.914400 -7.697400 -29.051300
H -17.819500 -3.629200 -29.642700
N -17.779900 -6.874700 -30.230500
H -17.696400 -5.496500 -26.601100
C -17.309100 -5.949800 -27.391300
H -17.069400 -8.198900 -28.938500
N -17.001300 -4.931600 -28.371000
C -16.457100 -6.294700 -30.423200
H -16.453100 -6.355700 -27.102900
H -16.447900 -5.824100 -31.294600
C -15.995700 -5.321100 -29.347800
H -15.799900 -7.031800 -30.478000
H -15.659600 -4.502600 -29.792400
H -15.233500 -5.729200 -28.865300
47
Fragment
H -28.019400 -6.209600 -27.871800
H -27.956800 -8.112300 -26.533000
O -27.103300 -10.006500 -25.135200
C -27.094300 -5.912200 -27.738500
H -27.093800 -5.062100 -27.250900
C -27.021500 -8.025700 -26.385500
H -26.660100 -5.789400 -28.608400
H -26.655200 -10.511200 -24.615800
C -26.361600 -8.977400 -25.615800
C -26.339900 -6.951200 -26.941500
C -24.996500 -8.841100 -25.374900
C -24.968500 -6.852600 -26.698500
H -24.549000 -9.484900 -24.838700
C -24.279200 -7.768900 -25.910700
Cl -24.084300 -5.520000 -27.417300
C -22.805200 -7.612300 -25.619500
H -22.645800 -6.741200 -25.199300
H -22.515000 -8.325400 -25.013900
H -22.299500 -7.668800 -26.456500
H -20.988000 -5.807500 -28.882300
H -20.369900 -4.798600 -27.815700
H -20.181300 -7.506900 -27.859900
C -20.146400 -5.533400 -28.441400
H -19.817800 -6.516800 -26.664000
H -19.682900 -6.509300 -30.687300
C -19.645200 -6.711000 -27.618700
N -19.264100 -5.000300 -29.459400
C -18.884400 -5.961100 -30.483100
H -18.667100 -5.450600 -31.303100
H -18.626700 -8.362300 -29.229400
H -18.511200 -3.636700 -28.207000
N -18.222900 -7.052200 -27.766500
C -18.150600 -4.221000 -28.920100
C -17.914400 -7.697400 -29.051300
H -17.819500 -3.629200 -29.642700
N -17.779900 -6.874700 -30.230500
H -17.696400 -5.496500 -26.601100
C -17.309100 -5.949800 -27.391300
H -17.069400 -8.198900 -28.938500
N -17.001300 -4.931600 -28.371000
C -16.457100 -6.294700 -30.423200
H -16.453100 -6.355700 -27.102900
H -16.447900 -5.824100 -31.294600
C -15.995700 -5.321100 -29.347800
H -15.799900 -7.031800 -30.478000
H -15.659600 -4.502600 -29.792400
H -15.233500 -5.729200 -28.865300
