30
Fragment
H -9.246000 -23.744200 -26.047700
H -9.176700 -25.122300 -28.071000
C -8.721100 -23.573800 -26.797300
C -8.687900 -24.348100 -27.910900
N -7.874800 -22.503100 -26.928900
N -7.789600 -23.758300 -28.747600
H -7.562300 -24.034200 -29.698900
C -7.335100 -22.651600 -28.124200
C -6.416600 -21.718600 -28.718000
H -6.118400 -22.934700 -32.082400
H -6.082900 -21.000500 -28.229200
N -6.070700 -21.900900 -29.936600
H -5.988700 -23.890600 -34.782300
N -5.603200 -22.347200 -32.478100
C -5.528400 -23.089400 -34.890400
H -5.477300 -19.228200 -29.723000
C -5.290200 -22.253800 -33.823000
N -5.242100 -21.015700 -30.551700
H -5.197600 -23.241600 -36.869300
C -5.113100 -21.217400 -31.904200
C -5.060300 -22.696800 -36.127900
C -4.741900 -19.811000 -29.929100
C -4.611300 -21.049900 -33.962400
N -4.509900 -20.404900 -32.727600
C -4.388800 -21.497400 -36.272400
H -4.277300 -20.037600 -29.121100
C -4.146700 -20.651400 -35.208700
H -4.140000 -19.366100 -30.529300
H -4.088800 -21.251100 -37.117500
H -3.692000 -19.849000 -35.322700
30
Fragment
H -15.194700 -25.526400 -15.063600
H -15.125400 -24.148200 -17.086900
C -14.669800 -25.696700 -15.813200
C -14.636500 -24.922500 -16.926700
N -13.823400 -26.767400 -15.944800
N -13.738300 -25.512300 -17.763500
H -13.511000 -25.236400 -18.714700
C -13.283700 -26.618900 -17.140100
C -12.365200 -27.552000 -17.733900
H -12.067100 -26.335800 -21.098300
H -12.031500 -28.270000 -17.245100
N -12.019300 -27.369600 -18.952400
H -11.937400 -25.380000 -23.798200
N -11.551800 -26.923400 -21.493900
C -11.477000 -26.181100 -23.906300
H -11.426000 -30.042400 -18.738900
C -11.238900 -27.016700 -22.838800
N -11.190700 -28.254800 -19.567500
H -11.146300 -26.028900 -25.885200
C -11.061800 -28.053100 -20.920100
C -11.008900 -26.573700 -25.143700
C -10.690600 -29.459600 -18.945000
C -10.559900 -28.220600 -22.978300
N -10.458500 -28.865600 -21.743500
C -10.337400 -27.773100 -25.288300
H -10.225900 -29.232900 -18.137000
C -10.095300 -28.619200 -24.224600
H -10.088600 -29.904400 -19.545100
H -10.037500 -28.019500 -26.133400
H -9.640600 -29.421600 -24.338600
60
Fragment
H -9.246000 -23.744200 -26.047700
H -9.176700 -25.122300 -28.071000
C -8.721100 -23.573800 -26.797300
C -8.687900 -24.348100 -27.910900
N -7.874800 -22.503100 -26.928900
N -7.789600 -23.758300 -28.747600
H -7.562300 -24.034200 -29.698900
C -7.335100 -22.651600 -28.124200
C -6.416600 -21.718600 -28.718000
H -6.118400 -22.934700 -32.082400
H -6.082900 -21.000500 -28.229200
N -6.070700 -21.900900 -29.936600
H -5.988700 -23.890600 -34.782300
N -5.603200 -22.347200 -32.478100
C -5.528400 -23.089400 -34.890400
H -5.477300 -19.228200 -29.723000
C -5.290200 -22.253800 -33.823000
N -5.242100 -21.015700 -30.551700
H -5.197600 -23.241600 -36.869300
C -5.113100 -21.217400 -31.904200
C -5.060300 -22.696800 -36.127900
C -4.741900 -19.811000 -29.929100
C -4.611300 -21.049900 -33.962400
N -4.509900 -20.404900 -32.727600
C -4.388800 -21.497400 -36.272400
H -4.277300 -20.037600 -29.121100
C -4.146700 -20.651400 -35.208700
H -4.140000 -19.366100 -30.529300
H -4.088800 -21.251100 -37.117500
H -3.692000 -19.849000 -35.322700
H -15.194700 -25.526400 -15.063600
H -15.125400 -24.148200 -17.086900
C -14.669800 -25.696700 -15.813200
C -14.636500 -24.922500 -16.926700
N -13.823400 -26.767400 -15.944800
N -13.738300 -25.512300 -17.763500
H -13.511000 -25.236400 -18.714700
C -13.283700 -26.618900 -17.140100
C -12.365200 -27.552000 -17.733900
H -12.067100 -26.335800 -21.098300
H -12.031500 -28.270000 -17.245100
N -12.019300 -27.369600 -18.952400
H -11.937400 -25.380000 -23.798200
N -11.551800 -26.923400 -21.493900
C -11.477000 -26.181100 -23.906300
H -11.426000 -30.042400 -18.738900
C -11.238900 -27.016700 -22.838800
N -11.190700 -28.254800 -19.567500
H -11.146300 -26.028900 -25.885200
C -11.061800 -28.053100 -20.920100
C -11.008900 -26.573700 -25.143700
C -10.690600 -29.459600 -18.945000
C -10.559900 -28.220600 -22.978300
N -10.458500 -28.865600 -21.743500
C -10.337400 -27.773100 -25.288300
H -10.225900 -29.232900 -18.137000
C -10.095300 -28.619200 -24.224600
H -10.088600 -29.904400 -19.545100
H -10.037500 -28.019500 -26.133400
H -9.640600 -29.421600 -24.338600
