30
Fragment
H -9.246000 -23.744200 -26.047700
H -9.176700 -25.122300 -28.071000
C -8.721100 -23.573800 -26.797300
C -8.687900 -24.348100 -27.910900
N -7.874800 -22.503100 -26.928900
N -7.789600 -23.758300 -28.747600
H -7.562300 -24.034200 -29.698900
C -7.335100 -22.651600 -28.124200
C -6.416600 -21.718600 -28.718000
H -6.118400 -22.934700 -32.082400
H -6.082900 -21.000500 -28.229200
N -6.070700 -21.900900 -29.936600
H -5.988700 -23.890600 -34.782300
N -5.603200 -22.347200 -32.478100
C -5.528400 -23.089400 -34.890400
H -5.477300 -19.228200 -29.723000
C -5.290200 -22.253800 -33.823000
N -5.242100 -21.015700 -30.551700
H -5.197600 -23.241600 -36.869300
C -5.113100 -21.217400 -31.904200
C -5.060300 -22.696800 -36.127900
C -4.741900 -19.811000 -29.929100
C -4.611300 -21.049900 -33.962400
N -4.509900 -20.404900 -32.727600
C -4.388800 -21.497400 -36.272400
H -4.277300 -20.037600 -29.121100
C -4.146700 -20.651400 -35.208700
H -4.140000 -19.366100 -30.529300
H -4.088800 -21.251100 -37.117500
H -3.692000 -19.849000 -35.322700
30
Fragment
H -10.863600 -23.683600 -17.245100
C -10.279100 -23.523200 -17.950200
H -10.080800 -25.320800 -18.870700
C -9.841100 -24.422600 -18.855100
H -9.791200 -21.425700 -17.849200
N -9.698800 -22.333900 -18.268600
N -8.993100 -23.824400 -19.748100
C -8.937300 -22.559300 -19.364600
H -8.256700 -20.626100 -19.624200
C -8.227800 -21.480000 -19.990000
H -7.873200 -19.004400 -21.186200
N -7.554600 -21.702800 -21.055200
C -6.958900 -19.298700 -21.183300
N -6.892000 -20.675300 -21.645300
H -6.654600 -22.986800 -22.871100
H -6.608100 -19.243700 -20.292100
H -6.440800 -18.739700 -21.766100
N -6.233800 -22.281000 -23.266100
C -6.180800 -21.011800 -22.760400
H -5.426300 -24.117200 -25.221700
N -5.408300 -20.192200 -23.430700
C -5.407400 -22.276800 -24.379200
C -5.069700 -23.260200 -25.282400
C -4.907900 -20.980500 -24.469100
C -4.180700 -22.922100 -26.279100
C -4.024100 -20.650400 -25.478800
H -3.920500 -23.565400 -26.897900
H -3.680100 -19.789900 -25.553400
C -3.668200 -21.636800 -26.372400
H -3.069300 -21.435500 -27.053900
60
Fragment
H -9.246000 -23.744200 -26.047700
H -9.176700 -25.122300 -28.071000
C -8.721100 -23.573800 -26.797300
C -8.687900 -24.348100 -27.910900
N -7.874800 -22.503100 -26.928900
N -7.789600 -23.758300 -28.747600
H -7.562300 -24.034200 -29.698900
C -7.335100 -22.651600 -28.124200
C -6.416600 -21.718600 -28.718000
H -6.118400 -22.934700 -32.082400
H -6.082900 -21.000500 -28.229200
N -6.070700 -21.900900 -29.936600
H -5.988700 -23.890600 -34.782300
N -5.603200 -22.347200 -32.478100
C -5.528400 -23.089400 -34.890400
H -5.477300 -19.228200 -29.723000
C -5.290200 -22.253800 -33.823000
N -5.242100 -21.015700 -30.551700
H -5.197600 -23.241600 -36.869300
C -5.113100 -21.217400 -31.904200
C -5.060300 -22.696800 -36.127900
C -4.741900 -19.811000 -29.929100
C -4.611300 -21.049900 -33.962400
N -4.509900 -20.404900 -32.727600
C -4.388800 -21.497400 -36.272400
H -4.277300 -20.037600 -29.121100
C -4.146700 -20.651400 -35.208700
H -4.140000 -19.366100 -30.529300
H -4.088800 -21.251100 -37.117500
H -3.692000 -19.849000 -35.322700
H -10.863600 -23.683600 -17.245100
C -10.279100 -23.523200 -17.950200
H -10.080800 -25.320800 -18.870700
C -9.841100 -24.422600 -18.855100
H -9.791200 -21.425700 -17.849200
N -9.698800 -22.333900 -18.268600
N -8.993100 -23.824400 -19.748100
C -8.937300 -22.559300 -19.364600
H -8.256700 -20.626100 -19.624200
C -8.227800 -21.480000 -19.990000
H -7.873200 -19.004400 -21.186200
N -7.554600 -21.702800 -21.055200
C -6.958900 -19.298700 -21.183300
N -6.892000 -20.675300 -21.645300
H -6.654600 -22.986800 -22.871100
H -6.608100 -19.243700 -20.292100
H -6.440800 -18.739700 -21.766100
N -6.233800 -22.281000 -23.266100
C -6.180800 -21.011800 -22.760400
H -5.426300 -24.117200 -25.221700
N -5.408300 -20.192200 -23.430700
C -5.407400 -22.276800 -24.379200
C -5.069700 -23.260200 -25.282400
C -4.907900 -20.980500 -24.469100
C -4.180700 -22.922100 -26.279100
C -4.024100 -20.650400 -25.478800
H -3.920500 -23.565400 -26.897900
H -3.680100 -19.789900 -25.553400
C -3.668200 -21.636800 -26.372400
H -3.069300 -21.435500 -27.053900
