30
Fragment
H -9.246000 -23.744200 -26.047700
H -9.176700 -25.122300 -28.071000
C -8.721100 -23.573800 -26.797300
C -8.687900 -24.348100 -27.910900
N -7.874800 -22.503100 -26.928900
N -7.789600 -23.758300 -28.747600
H -7.562300 -24.034200 -29.698900
C -7.335100 -22.651600 -28.124200
C -6.416600 -21.718600 -28.718000
H -6.118400 -22.934700 -32.082400
H -6.082900 -21.000500 -28.229200
N -6.070700 -21.900900 -29.936600
H -5.988700 -23.890600 -34.782300
N -5.603200 -22.347200 -32.478100
C -5.528400 -23.089400 -34.890400
H -5.477300 -19.228200 -29.723000
C -5.290200 -22.253800 -33.823000
N -5.242100 -21.015700 -30.551700
H -5.197600 -23.241600 -36.869300
C -5.113100 -21.217400 -31.904200
C -5.060300 -22.696800 -36.127900
C -4.741900 -19.811000 -29.929100
C -4.611300 -21.049900 -33.962400
N -4.509900 -20.404900 -32.727600
C -4.388800 -21.497400 -36.272400
H -4.277300 -20.037600 -29.121100
C -4.146700 -20.651400 -35.208700
H -4.140000 -19.366100 -30.529300
H -4.088800 -21.251100 -37.117500
H -3.692000 -19.849000 -35.322700
30
Fragment
H -4.915000 -25.586900 -28.229200
C -4.330400 -25.747400 -28.934400
H -4.132200 -23.949700 -29.854800
C -3.892400 -24.848000 -29.839200
H -3.842600 -27.844900 -28.833300
N -3.750200 -26.936600 -29.252700
N -3.044400 -25.446100 -30.732200
C -2.988700 -26.711300 -30.348700
H -2.308100 -28.644500 -30.608300
C -2.279100 -27.790600 -30.974100
H -1.924500 -30.266200 -32.170300
N -1.606000 -27.567700 -32.039400
C -1.010200 -29.971800 -32.167400
N -0.943300 -28.595200 -32.629400
H -0.706000 -26.283700 -33.855200
H -0.659400 -30.026900 -31.276200
H -0.492200 -30.530800 -32.750200
N -0.285100 -26.989600 -34.250200
C -0.232100 -28.258800 -33.744500
H 0.522300 -25.153300 -36.205800
N 0.540300 -29.078400 -34.414800
C 0.541300 -26.993800 -35.363400
C 0.878900 -26.010300 -36.266500
C 1.040800 -28.290000 -35.453200
C 1.768000 -26.348500 -37.263200
C 1.924500 -28.620100 -36.462900
H 2.028100 -25.705100 -37.882000
H 2.268500 -29.480700 -36.537600
C 2.280500 -27.633700 -37.356500
H 2.879300 -27.835000 -38.038000
60
Fragment
H -9.246000 -23.744200 -26.047700
H -9.176700 -25.122300 -28.071000
C -8.721100 -23.573800 -26.797300
C -8.687900 -24.348100 -27.910900
N -7.874800 -22.503100 -26.928900
N -7.789600 -23.758300 -28.747600
H -7.562300 -24.034200 -29.698900
C -7.335100 -22.651600 -28.124200
C -6.416600 -21.718600 -28.718000
H -6.118400 -22.934700 -32.082400
H -6.082900 -21.000500 -28.229200
N -6.070700 -21.900900 -29.936600
H -5.988700 -23.890600 -34.782300
N -5.603200 -22.347200 -32.478100
C -5.528400 -23.089400 -34.890400
H -5.477300 -19.228200 -29.723000
C -5.290200 -22.253800 -33.823000
N -5.242100 -21.015700 -30.551700
H -5.197600 -23.241600 -36.869300
C -5.113100 -21.217400 -31.904200
C -5.060300 -22.696800 -36.127900
C -4.741900 -19.811000 -29.929100
C -4.611300 -21.049900 -33.962400
N -4.509900 -20.404900 -32.727600
C -4.388800 -21.497400 -36.272400
H -4.277300 -20.037600 -29.121100
C -4.146700 -20.651400 -35.208700
H -4.140000 -19.366100 -30.529300
H -4.088800 -21.251100 -37.117500
H -3.692000 -19.849000 -35.322700
H -4.915000 -25.586900 -28.229200
C -4.330400 -25.747400 -28.934400
H -4.132200 -23.949700 -29.854800
C -3.892400 -24.848000 -29.839200
H -3.842600 -27.844900 -28.833300
N -3.750200 -26.936600 -29.252700
N -3.044400 -25.446100 -30.732200
C -2.988700 -26.711300 -30.348700
H -2.308100 -28.644500 -30.608300
C -2.279100 -27.790600 -30.974100
H -1.924500 -30.266200 -32.170300
N -1.606000 -27.567700 -32.039400
C -1.010200 -29.971800 -32.167400
N -0.943300 -28.595200 -32.629400
H -0.706000 -26.283700 -33.855200
H -0.659400 -30.026900 -31.276200
H -0.492200 -30.530800 -32.750200
N -0.285100 -26.989600 -34.250200
C -0.232100 -28.258800 -33.744500
H 0.522300 -25.153300 -36.205800
N 0.540300 -29.078400 -34.414800
C 0.541300 -26.993800 -35.363400
C 0.878900 -26.010300 -36.266500
C 1.040800 -28.290000 -35.453200
C 1.768000 -26.348500 -37.263200
C 1.924500 -28.620100 -36.462900
H 2.028100 -25.705100 -37.882000
H 2.268500 -29.480700 -36.537600
C 2.280500 -27.633700 -37.356500
H 2.879300 -27.835000 -38.038000
