18
Fragment
N -12.007600 -7.350700 -23.265300
H -11.712200 -7.715400 -26.333600
C -11.158100 -7.857800 -23.868200
N -10.878800 -8.104500 -26.622000
H -10.768900 -8.235900 -27.443000
N -10.115400 -8.460800 -24.409200
C -10.028000 -8.553100 -25.727300
N -8.898700 -9.189600 -26.200900
N -8.722600 -9.413400 -27.580500
H -8.245900 -9.206500 -23.682000
C -7.776400 -9.637000 -25.521000
N -7.608900 -9.586400 -24.211500
C -7.519500 -9.961100 -27.599500
H -7.437500 -10.416200 -29.461100
N -6.906200 -10.127000 -26.396300
N -6.882300 -10.302900 -28.767000
H -6.864100 -9.930900 -23.879300
H -6.311000 -10.957700 -28.665200
18
Fragment
N -18.721800 -7.350700 -23.265300
H -18.426400 -7.715400 -26.333600
C -17.872300 -7.857800 -23.868200
N -17.593000 -8.104500 -26.622000
H -17.483100 -8.235900 -27.443000
N -16.829600 -8.460800 -24.409200
C -16.742200 -8.553100 -25.727300
N -15.612900 -9.189600 -26.200900
N -15.436800 -9.413400 -27.580500
H -14.960100 -9.206500 -23.682000
C -14.490600 -9.637000 -25.521000
N -14.323100 -9.586400 -24.211500
C -14.233700 -9.961100 -27.599500
H -14.151700 -10.416200 -29.461100
N -13.620400 -10.127000 -26.396300
N -13.596500 -10.302900 -28.767000
H -13.578300 -9.930900 -23.879300
H -13.025200 -10.957700 -28.665200
36
Fragment
N -12.007600 -7.350700 -23.265300
H -11.712200 -7.715400 -26.333600
C -11.158100 -7.857800 -23.868200
N -10.878800 -8.104500 -26.622000
H -10.768900 -8.235900 -27.443000
N -10.115400 -8.460800 -24.409200
C -10.028000 -8.553100 -25.727300
N -8.898700 -9.189600 -26.200900
N -8.722600 -9.413400 -27.580500
H -8.245900 -9.206500 -23.682000
C -7.776400 -9.637000 -25.521000
N -7.608900 -9.586400 -24.211500
C -7.519500 -9.961100 -27.599500
H -7.437500 -10.416200 -29.461100
N -6.906200 -10.127000 -26.396300
N -6.882300 -10.302900 -28.767000
H -6.864100 -9.930900 -23.879300
H -6.311000 -10.957700 -28.665200
N -18.721800 -7.350700 -23.265300
H -18.426400 -7.715400 -26.333600
C -17.872300 -7.857800 -23.868200
N -17.593000 -8.104500 -26.622000
H -17.483100 -8.235900 -27.443000
N -16.829600 -8.460800 -24.409200
C -16.742200 -8.553100 -25.727300
N -15.612900 -9.189600 -26.200900
N -15.436800 -9.413400 -27.580500
H -14.960100 -9.206500 -23.682000
C -14.490600 -9.637000 -25.521000
N -14.323100 -9.586400 -24.211500
C -14.233700 -9.961100 -27.599500
H -14.151700 -10.416200 -29.461100
N -13.620400 -10.127000 -26.396300
N -13.596500 -10.302900 -28.767000
H -13.578300 -9.930900 -23.879300
H -13.025200 -10.957700 -28.665200
