18
Fragment
N -12.007600 -7.350700 -23.265300
H -11.712200 -7.715400 -26.333600
C -11.158100 -7.857800 -23.868200
N -10.878800 -8.104500 -26.622000
H -10.768900 -8.235900 -27.443000
N -10.115400 -8.460800 -24.409200
C -10.028000 -8.553100 -25.727300
N -8.898700 -9.189600 -26.200900
N -8.722600 -9.413400 -27.580500
H -8.245900 -9.206500 -23.682000
C -7.776400 -9.637000 -25.521000
N -7.608900 -9.586400 -24.211500
C -7.519500 -9.961100 -27.599500
H -7.437500 -10.416200 -29.461100
N -6.906200 -10.127000 -26.396300
N -6.882300 -10.302900 -28.767000
H -6.864100 -9.930900 -23.879300
H -6.311000 -10.957700 -28.665200
18
Fragment
N -8.425100 -10.232300 -31.556700
H -8.129700 -9.867600 -34.625000
C -7.575700 -9.725200 -32.159700
N -7.296400 -9.478500 -34.913400
H -7.186400 -9.347100 -35.734400
N -6.533000 -9.122200 -32.700600
C -6.445600 -9.029900 -34.018800
N -5.316200 -8.393400 -34.492400
N -5.140100 -8.169600 -35.871900
H -4.663400 -8.376500 -31.973400
C -4.193900 -7.946000 -33.812500
N -4.026400 -7.996600 -32.502900
C -3.937000 -7.621900 -35.891000
H -3.855100 -7.166800 -37.752600
N -3.323700 -7.456000 -34.687700
N -3.299900 -7.280100 -37.058400
H -3.281600 -7.652100 -32.170800
H -2.728600 -6.625300 -36.956600
36
Fragment
N -12.007600 -7.350700 -23.265300
H -11.712200 -7.715400 -26.333600
C -11.158100 -7.857800 -23.868200
N -10.878800 -8.104500 -26.622000
H -10.768900 -8.235900 -27.443000
N -10.115400 -8.460800 -24.409200
C -10.028000 -8.553100 -25.727300
N -8.898700 -9.189600 -26.200900
N -8.722600 -9.413400 -27.580500
H -8.245900 -9.206500 -23.682000
C -7.776400 -9.637000 -25.521000
N -7.608900 -9.586400 -24.211500
C -7.519500 -9.961100 -27.599500
H -7.437500 -10.416200 -29.461100
N -6.906200 -10.127000 -26.396300
N -6.882300 -10.302900 -28.767000
H -6.864100 -9.930900 -23.879300
H -6.311000 -10.957700 -28.665200
N -8.425100 -10.232300 -31.556700
H -8.129700 -9.867600 -34.625000
C -7.575700 -9.725200 -32.159700
N -7.296400 -9.478500 -34.913400
H -7.186400 -9.347100 -35.734400
N -6.533000 -9.122200 -32.700600
C -6.445600 -9.029900 -34.018800
N -5.316200 -8.393400 -34.492400
N -5.140100 -8.169600 -35.871900
H -4.663400 -8.376500 -31.973400
C -4.193900 -7.946000 -33.812500
N -4.026400 -7.996600 -32.502900
C -3.937000 -7.621900 -35.891000
H -3.855100 -7.166800 -37.752600
N -3.323700 -7.456000 -34.687700
N -3.299900 -7.280100 -37.058400
H -3.281600 -7.652100 -32.170800
H -2.728600 -6.625300 -36.956600
