18
Fragment
N -12.007600 -7.350700 -23.265300
H -11.712200 -7.715400 -26.333600
C -11.158100 -7.857800 -23.868200
N -10.878800 -8.104500 -26.622000
H -10.768900 -8.235900 -27.443000
N -10.115400 -8.460800 -24.409200
C -10.028000 -8.553100 -25.727300
N -8.898700 -9.189600 -26.200900
N -8.722600 -9.413400 -27.580500
H -8.245900 -9.206500 -23.682000
C -7.776400 -9.637000 -25.521000
N -7.608900 -9.586400 -24.211500
C -7.519500 -9.961100 -27.599500
H -7.437500 -10.416200 -29.461100
N -6.906200 -10.127000 -26.396300
N -6.882300 -10.302900 -28.767000
H -6.864100 -9.930900 -23.879300
H -6.311000 -10.957700 -28.665200
18
Fragment
H -8.896900 -14.474300 -29.374900
H -8.343800 -13.447500 -34.160700
N -8.325600 -13.819500 -29.273100
N -8.301700 -13.643600 -31.643800
H -7.770400 -13.932800 -28.578900
C -7.688400 -13.477700 -30.440500
N -7.599000 -13.103000 -33.828600
C -7.431500 -13.153600 -32.519000
H -6.962000 -12.723100 -34.358100
N -6.485300 -12.930000 -30.459600
N -6.309200 -12.706200 -31.839100
C -5.179800 -12.069700 -32.312700
N -5.092500 -11.977400 -33.630900
H -4.439000 -11.752500 -30.597100
N -4.329000 -11.621100 -31.418100
C -4.049700 -11.374400 -34.171800
H -3.495700 -11.232000 -31.706500
N -3.200300 -10.867300 -34.774800
36
Fragment
N -12.007600 -7.350700 -23.265300
H -11.712200 -7.715400 -26.333600
C -11.158100 -7.857800 -23.868200
N -10.878800 -8.104500 -26.622000
H -10.768900 -8.235900 -27.443000
N -10.115400 -8.460800 -24.409200
C -10.028000 -8.553100 -25.727300
N -8.898700 -9.189600 -26.200900
N -8.722600 -9.413400 -27.580500
H -8.245900 -9.206500 -23.682000
C -7.776400 -9.637000 -25.521000
N -7.608900 -9.586400 -24.211500
C -7.519500 -9.961100 -27.599500
H -7.437500 -10.416200 -29.461100
N -6.906200 -10.127000 -26.396300
N -6.882300 -10.302900 -28.767000
H -6.864100 -9.930900 -23.879300
H -6.311000 -10.957700 -28.665200
H -8.896900 -14.474300 -29.374900
H -8.343800 -13.447500 -34.160700
N -8.325600 -13.819500 -29.273100
N -8.301700 -13.643600 -31.643800
H -7.770400 -13.932800 -28.578900
C -7.688400 -13.477700 -30.440500
N -7.599000 -13.103000 -33.828600
C -7.431500 -13.153600 -32.519000
H -6.962000 -12.723100 -34.358100
N -6.485300 -12.930000 -30.459600
N -6.309200 -12.706200 -31.839100
C -5.179800 -12.069700 -32.312700
N -5.092500 -11.977400 -33.630900
H -4.439000 -11.752500 -30.597100
N -4.329000 -11.621100 -31.418100
C -4.049700 -11.374400 -34.171800
H -3.495700 -11.232000 -31.706500
N -3.200300 -10.867300 -34.774800
