18
Fragment
N -12.007600 -7.350700 -23.265300
H -11.712200 -7.715400 -26.333600
C -11.158100 -7.857800 -23.868200
N -10.878800 -8.104500 -26.622000
H -10.768900 -8.235900 -27.443000
N -10.115400 -8.460800 -24.409200
C -10.028000 -8.553100 -25.727300
N -8.898700 -9.189600 -26.200900
N -8.722600 -9.413400 -27.580500
H -8.245900 -9.206500 -23.682000
C -7.776400 -9.637000 -25.521000
N -7.608900 -9.586400 -24.211500
C -7.519500 -9.961100 -27.599500
H -7.437500 -10.416200 -29.461100
N -6.906200 -10.127000 -26.396300
N -6.882300 -10.302900 -28.767000
H -6.864100 -9.930900 -23.879300
H -6.311000 -10.957700 -28.665200
18
Fragment
H -12.479300 -10.141900 -21.083500
H -11.926200 -11.168700 -25.869300
N -11.908000 -10.796700 -20.981600
N -11.884100 -10.972600 -23.352300
H -11.352800 -10.683400 -20.287500
C -11.270900 -11.138500 -22.149100
N -11.181500 -11.513200 -25.537100
C -11.014000 -11.462600 -24.227600
H -10.544500 -11.893100 -26.066600
N -10.067800 -11.686200 -22.168200
N -9.891700 -11.910000 -23.547700
C -8.762300 -12.546500 -24.021300
N -8.674900 -12.638800 -25.339500
H -8.021400 -12.863700 -22.305600
N -7.911500 -12.995100 -23.126600
C -7.632200 -13.241800 -25.880400
H -7.078200 -13.384200 -23.415000
N -6.782800 -13.748900 -26.483300
36
Fragment
N -12.007600 -7.350700 -23.265300
H -11.712200 -7.715400 -26.333600
C -11.158100 -7.857800 -23.868200
N -10.878800 -8.104500 -26.622000
H -10.768900 -8.235900 -27.443000
N -10.115400 -8.460800 -24.409200
C -10.028000 -8.553100 -25.727300
N -8.898700 -9.189600 -26.200900
N -8.722600 -9.413400 -27.580500
H -8.245900 -9.206500 -23.682000
C -7.776400 -9.637000 -25.521000
N -7.608900 -9.586400 -24.211500
C -7.519500 -9.961100 -27.599500
H -7.437500 -10.416200 -29.461100
N -6.906200 -10.127000 -26.396300
N -6.882300 -10.302900 -28.767000
H -6.864100 -9.930900 -23.879300
H -6.311000 -10.957700 -28.665200
H -12.479300 -10.141900 -21.083500
H -11.926200 -11.168700 -25.869300
N -11.908000 -10.796700 -20.981600
N -11.884100 -10.972600 -23.352300
H -11.352800 -10.683400 -20.287500
C -11.270900 -11.138500 -22.149100
N -11.181500 -11.513200 -25.537100
C -11.014000 -11.462600 -24.227600
H -10.544500 -11.893100 -26.066600
N -10.067800 -11.686200 -22.168200
N -9.891700 -11.910000 -23.547700
C -8.762300 -12.546500 -24.021300
N -8.674900 -12.638800 -25.339500
H -8.021400 -12.863700 -22.305600
N -7.911500 -12.995100 -23.126600
C -7.632200 -13.241800 -25.880400
H -7.078200 -13.384200 -23.415000
N -6.782800 -13.748900 -26.483300
