13
Fragment
H -12.498700 -12.910900 -36.245700
C -11.562900 -12.762800 -36.179300
H -11.457200 -11.235400 -37.538700
F -11.401400 -14.437000 -34.537500
C -10.944000 -11.780600 -36.954900
C -10.799200 -13.506300 -35.327000
C -9.557100 -11.609200 -36.859400
C -9.430900 -13.351700 -35.180200
O -8.987300 -10.642600 -37.623200
H -8.927300 -13.885800 -34.578000
C -8.832200 -12.368200 -35.967400
H -8.174700 -10.822300 -37.742700
H -7.898100 -12.217800 -35.884300
13
Fragment
H -17.599300 -15.357400 -36.217100
C -16.658000 -15.475000 -36.172300
H -16.533000 -16.981000 -37.560400
F -16.497300 -13.772900 -34.516500
C -16.025200 -16.443200 -36.964200
C -15.891200 -14.690100 -35.327000
C -14.655500 -16.609600 -36.868700
C -14.531100 -14.871200 -35.208200
O -14.065600 -17.595300 -37.620900
H -14.023800 -14.333900 -34.611300
C -13.909400 -15.847500 -35.972100
H -13.245700 -17.431300 -37.702900
H -12.975600 -15.996800 -35.885200
26
Fragment
H -12.498700 -12.910900 -36.245700
C -11.562900 -12.762800 -36.179300
H -11.457200 -11.235400 -37.538700
F -11.401400 -14.437000 -34.537500
C -10.944000 -11.780600 -36.954900
C -10.799200 -13.506300 -35.327000
C -9.557100 -11.609200 -36.859400
C -9.430900 -13.351700 -35.180200
O -8.987300 -10.642600 -37.623200
H -8.927300 -13.885800 -34.578000
C -8.832200 -12.368200 -35.967400
H -8.174700 -10.822300 -37.742700
H -7.898100 -12.217800 -35.884300
H -17.599300 -15.357400 -36.217100
C -16.658000 -15.475000 -36.172300
H -16.533000 -16.981000 -37.560400
F -16.497300 -13.772900 -34.516500
C -16.025200 -16.443200 -36.964200
C -15.891200 -14.690100 -35.327000
C -14.655500 -16.609600 -36.868700
C -14.531100 -14.871200 -35.208200
O -14.065600 -17.595300 -37.620900
H -14.023800 -14.333900 -34.611300
C -13.909400 -15.847500 -35.972100
H -13.245700 -17.431300 -37.702900
H -12.975600 -15.996800 -35.885200
