13
Fragment
H -12.498700 -12.910900 -36.245700
C -11.562900 -12.762800 -36.179300
H -11.457200 -11.235400 -37.538700
F -11.401400 -14.437000 -34.537500
C -10.944000 -11.780600 -36.954900
C -10.799200 -13.506300 -35.327000
C -9.557100 -11.609200 -36.859400
C -9.430900 -13.351700 -35.180200
O -8.987300 -10.642600 -37.623200
H -8.927300 -13.885800 -34.578000
C -8.832200 -12.368200 -35.967400
H -8.174700 -10.822300 -37.742700
H -7.898100 -12.217800 -35.884300
22
Fragment
H -12.464500 -10.681000 -42.704400
H -12.108800 -13.055300 -42.848100
H -11.690300 -9.817700 -41.602200
C -11.609000 -10.590900 -42.215800
N -11.383200 -11.775600 -41.445000
C -11.257400 -12.930900 -42.357900
H -11.230100 -11.584500 -44.602200
H -11.087300 -13.749700 -41.828800
N -10.506000 -10.319900 -43.200900
C -10.394000 -11.491100 -44.078900
H -10.169600 -10.883100 -40.096300
N -10.150800 -12.737200 -43.336000
C -10.114400 -11.650300 -40.720700
H -9.962800 -12.468200 -40.183400
H -9.652300 -11.346300 -44.719100
H -9.321100 -9.457800 -41.807600
C -9.261400 -10.232100 -42.420800
N -8.978600 -11.451800 -41.628900
C -8.894200 -12.568800 -42.546500
H -8.715900 -13.397800 -42.036300
H -8.505400 -10.069500 -43.039500
H -8.136800 -12.423900 -43.167400
35
Fragment
H -12.498700 -12.910900 -36.245700
C -11.562900 -12.762800 -36.179300
H -11.457200 -11.235400 -37.538700
F -11.401400 -14.437000 -34.537500
C -10.944000 -11.780600 -36.954900
C -10.799200 -13.506300 -35.327000
C -9.557100 -11.609200 -36.859400
C -9.430900 -13.351700 -35.180200
O -8.987300 -10.642600 -37.623200
H -8.927300 -13.885800 -34.578000
C -8.832200 -12.368200 -35.967400
H -8.174700 -10.822300 -37.742700
H -7.898100 -12.217800 -35.884300
H -12.464500 -10.681000 -42.704400
H -12.108800 -13.055300 -42.848100
H -11.690300 -9.817700 -41.602200
C -11.609000 -10.590900 -42.215800
N -11.383200 -11.775600 -41.445000
C -11.257400 -12.930900 -42.357900
H -11.230100 -11.584500 -44.602200
H -11.087300 -13.749700 -41.828800
N -10.506000 -10.319900 -43.200900
C -10.394000 -11.491100 -44.078900
H -10.169600 -10.883100 -40.096300
N -10.150800 -12.737200 -43.336000
C -10.114400 -11.650300 -40.720700
H -9.962800 -12.468200 -40.183400
H -9.652300 -11.346300 -44.719100
H -9.321100 -9.457800 -41.807600
C -9.261400 -10.232100 -42.420800
N -8.978600 -11.451800 -41.628900
C -8.894200 -12.568800 -42.546500
H -8.715900 -13.397800 -42.036300
H -8.505400 -10.069500 -43.039500
H -8.136800 -12.423900 -43.167400
