13
Fragment
H -12.498700 -12.910900 -36.245700
C -11.562900 -12.762800 -36.179300
H -11.457200 -11.235400 -37.538700
F -11.401400 -14.437000 -34.537500
C -10.944000 -11.780600 -36.954900
C -10.799200 -13.506300 -35.327000
C -9.557100 -11.609200 -36.859400
C -9.430900 -13.351700 -35.180200
O -8.987300 -10.642600 -37.623200
H -8.927300 -13.885800 -34.578000
C -8.832200 -12.368200 -35.967400
H -8.174700 -10.822300 -37.742700
H -7.898100 -12.217800 -35.884300
22
Fragment
H -17.506300 -12.540500 -39.700400
H -17.118700 -10.136900 -39.900400
H -16.878600 -13.320500 -38.449300
C -16.724900 -12.584800 -39.095100
N -16.595600 -11.291000 -38.352200
C -16.344800 -10.224200 -39.288400
H -16.248100 -9.371100 -38.795800
H -16.072700 -11.649400 -41.383000
H -15.548800 -12.137200 -36.800900
N -15.515800 -12.864500 -39.875300
C -15.395600 -11.407800 -37.453200
C -15.295800 -11.730200 -40.774200
H -15.286200 -10.564900 -36.946000
N -15.109100 -10.474000 -40.089500
H -14.528800 -13.665900 -38.285600
H -14.496900 -11.912800 -41.329700
C -14.374000 -12.930100 -38.929800
N -14.186000 -11.678600 -38.191500
C -14.016200 -10.620500 -39.132400
H -13.915000 -9.769200 -38.637500
H -13.547600 -13.136400 -39.433500
H -13.176800 -10.775600 -39.634500
35
Fragment
H -12.498700 -12.910900 -36.245700
C -11.562900 -12.762800 -36.179300
H -11.457200 -11.235400 -37.538700
F -11.401400 -14.437000 -34.537500
C -10.944000 -11.780600 -36.954900
C -10.799200 -13.506300 -35.327000
C -9.557100 -11.609200 -36.859400
C -9.430900 -13.351700 -35.180200
O -8.987300 -10.642600 -37.623200
H -8.927300 -13.885800 -34.578000
C -8.832200 -12.368200 -35.967400
H -8.174700 -10.822300 -37.742700
H -7.898100 -12.217800 -35.884300
H -17.506300 -12.540500 -39.700400
H -17.118700 -10.136900 -39.900400
H -16.878600 -13.320500 -38.449300
C -16.724900 -12.584800 -39.095100
N -16.595600 -11.291000 -38.352200
C -16.344800 -10.224200 -39.288400
H -16.248100 -9.371100 -38.795800
H -16.072700 -11.649400 -41.383000
H -15.548800 -12.137200 -36.800900
N -15.515800 -12.864500 -39.875300
C -15.395600 -11.407800 -37.453200
C -15.295800 -11.730200 -40.774200
H -15.286200 -10.564900 -36.946000
N -15.109100 -10.474000 -40.089500
H -14.528800 -13.665900 -38.285600
H -14.496900 -11.912800 -41.329700
C -14.374000 -12.930100 -38.929800
N -14.186000 -11.678600 -38.191500
C -14.016200 -10.620500 -39.132400
H -13.915000 -9.769200 -38.637500
H -13.547600 -13.136400 -39.433500
H -13.176800 -10.775600 -39.634500
