13
Fragment
H -12.498700 -12.910900 -36.245700
C -11.562900 -12.762800 -36.179300
H -11.457200 -11.235400 -37.538700
F -11.401400 -14.437000 -34.537500
C -10.944000 -11.780600 -36.954900
C -10.799200 -13.506300 -35.327000
C -9.557100 -11.609200 -36.859400
C -9.430900 -13.351700 -35.180200
O -8.987300 -10.642600 -37.623200
H -8.927300 -13.885800 -34.578000
C -8.832200 -12.368200 -35.967400
H -8.174700 -10.822300 -37.742700
H -7.898100 -12.217800 -35.884300
22
Fragment
H -12.405300 -5.593400 -39.714800
H -11.998100 -7.960700 -39.873900
H -11.794800 -4.757900 -38.496800
C -11.626400 -5.517600 -39.109100
N -11.528000 -6.743400 -38.317300
C -11.229000 -7.846400 -39.260500
H -11.124700 -8.687400 -38.748800
H -10.953100 -6.461800 -41.418600
H -10.480500 -5.849300 -36.797000
N -10.431100 -5.222500 -39.910200
C -10.328900 -6.596900 -37.427600
H -10.212800 -7.424600 -36.897300
C -10.192400 -6.370700 -40.792900
N -10.029900 -7.624200 -40.047600
H -9.439400 -4.351400 -38.376200
H -9.376400 -6.203700 -41.327600
C -9.293700 -5.117500 -38.985600
N -9.112000 -6.341500 -38.191500
C -8.914500 -7.464600 -39.099800
H -8.817200 -8.295900 -38.570600
H -8.468600 -4.939800 -39.505000
H -8.074800 -7.328300 -39.606800
35
Fragment
H -12.498700 -12.910900 -36.245700
C -11.562900 -12.762800 -36.179300
H -11.457200 -11.235400 -37.538700
F -11.401400 -14.437000 -34.537500
C -10.944000 -11.780600 -36.954900
C -10.799200 -13.506300 -35.327000
C -9.557100 -11.609200 -36.859400
C -9.430900 -13.351700 -35.180200
O -8.987300 -10.642600 -37.623200
H -8.927300 -13.885800 -34.578000
C -8.832200 -12.368200 -35.967400
H -8.174700 -10.822300 -37.742700
H -7.898100 -12.217800 -35.884300
H -12.405300 -5.593400 -39.714800
H -11.998100 -7.960700 -39.873900
H -11.794800 -4.757900 -38.496800
C -11.626400 -5.517600 -39.109100
N -11.528000 -6.743400 -38.317300
C -11.229000 -7.846400 -39.260500
H -11.124700 -8.687400 -38.748800
H -10.953100 -6.461800 -41.418600
H -10.480500 -5.849300 -36.797000
N -10.431100 -5.222500 -39.910200
C -10.328900 -6.596900 -37.427600
H -10.212800 -7.424600 -36.897300
C -10.192400 -6.370700 -40.792900
N -10.029900 -7.624200 -40.047600
H -9.439400 -4.351400 -38.376200
H -9.376400 -6.203700 -41.327600
C -9.293700 -5.117500 -38.985600
N -9.112000 -6.341500 -38.191500
C -8.914500 -7.464600 -39.099800
H -8.817200 -8.295900 -38.570600
H -8.468600 -4.939800 -39.505000
H -8.074800 -7.328300 -39.606800
