13
Fragment
H -12.498700 -12.910900 -36.245700
C -11.562900 -12.762800 -36.179300
H -11.457200 -11.235400 -37.538700
F -11.401400 -14.437000 -34.537500
C -10.944000 -11.780600 -36.954900
C -10.799200 -13.506300 -35.327000
C -9.557100 -11.609200 -36.859400
C -9.430900 -13.351700 -35.180200
O -8.987300 -10.642600 -37.623200
H -8.927300 -13.885800 -34.578000
C -8.832200 -12.368200 -35.967400
H -8.174700 -10.822300 -37.742700
H -7.898100 -12.217800 -35.884300
13
Fragment
H -10.001500 -17.329200 -33.981600
H -9.731400 -15.894800 -32.163900
C -9.067700 -17.478600 -33.894700
H -8.953200 -18.992200 -35.255500
O -8.911500 -15.730800 -32.245800
C -8.446000 -18.454900 -34.658600
C -8.321500 -16.716500 -32.998100
C -7.085900 -18.636000 -34.539800
C -6.951900 -16.882900 -32.902600
F -6.479800 -19.553200 -35.350200
H -6.444100 -16.345000 -32.306400
C -6.319100 -17.851100 -33.694400
H -5.377800 -17.968600 -33.649700
26
Fragment
H -12.498700 -12.910900 -36.245700
C -11.562900 -12.762800 -36.179300
H -11.457200 -11.235400 -37.538700
F -11.401400 -14.437000 -34.537500
C -10.944000 -11.780600 -36.954900
C -10.799200 -13.506300 -35.327000
C -9.557100 -11.609200 -36.859400
C -9.430900 -13.351700 -35.180200
O -8.987300 -10.642600 -37.623200
H -8.927300 -13.885800 -34.578000
C -8.832200 -12.368200 -35.967400
H -8.174700 -10.822300 -37.742700
H -7.898100 -12.217800 -35.884300
H -10.001500 -17.329200 -33.981600
H -9.731400 -15.894800 -32.163900
C -9.067700 -17.478600 -33.894700
H -8.953200 -18.992200 -35.255500
O -8.911500 -15.730800 -32.245800
C -8.446000 -18.454900 -34.658600
C -8.321500 -16.716500 -32.998100
C -7.085900 -18.636000 -34.539800
C -6.951900 -16.882900 -32.902600
F -6.479800 -19.553200 -35.350200
H -6.444100 -16.345000 -32.306400
C -6.319100 -17.851100 -33.694400
H -5.377800 -17.968600 -33.649700
