18
Fragment
H -9.255400 -34.704500 -11.067800
O -8.978700 -35.443000 -13.226800
O -8.900900 -35.493100 -11.043000
H -8.727000 -36.312100 -14.444100
C -8.716100 -36.030800 -12.131900
O -8.545200 -36.853200 -15.097600
C -8.201600 -38.028600 -14.705600
C -8.168700 -37.451100 -12.128000
O -8.043300 -38.922800 -15.528200
H -8.009000 -37.381500 -10.126400
C -7.968100 -38.313900 -13.237900
C -7.877900 -37.938500 -10.858300
C -7.486700 -39.600200 -12.982600
C -7.405200 -39.211500 -10.640200
H -7.350300 -40.176000 -13.699000
H -7.222900 -39.501500 -9.775600
C -7.205200 -40.048400 -11.710500
H -6.881800 -40.909300 -11.577800
16
Fragment
H -6.894100 -45.457200 -10.908700
C -5.982200 -45.171400 -11.001900
H -5.876900 -44.700400 -11.832300
N -5.728800 -44.793200 -8.633100
H -5.692200 -45.372500 -6.273600
C -5.630400 -44.275200 -9.881100
N -5.439100 -44.556800 -6.365900
H -5.404100 -45.936600 -10.992500
C -5.379200 -44.019500 -7.561200
H -5.225900 -44.091600 -5.674400
N -5.225200 -43.054700 -10.104900
N -4.991400 -42.758500 -7.724300
C -4.920600 -42.323500 -8.990100
N -4.523200 -41.085100 -9.181800
H -4.465900 -40.770700 -9.980500
H -4.320800 -40.589700 -8.508900
34
Fragment
H -9.255400 -34.704500 -11.067800
O -8.978700 -35.443000 -13.226800
O -8.900900 -35.493100 -11.043000
H -8.727000 -36.312100 -14.444100
C -8.716100 -36.030800 -12.131900
O -8.545200 -36.853200 -15.097600
C -8.201600 -38.028600 -14.705600
C -8.168700 -37.451100 -12.128000
O -8.043300 -38.922800 -15.528200
H -8.009000 -37.381500 -10.126400
C -7.968100 -38.313900 -13.237900
C -7.877900 -37.938500 -10.858300
C -7.486700 -39.600200 -12.982600
C -7.405200 -39.211500 -10.640200
H -7.350300 -40.176000 -13.699000
H -7.222900 -39.501500 -9.775600
C -7.205200 -40.048400 -11.710500
H -6.881800 -40.909300 -11.577800
H -6.894100 -45.457200 -10.908700
C -5.982200 -45.171400 -11.001900
H -5.876900 -44.700400 -11.832300
N -5.728800 -44.793200 -8.633100
H -5.692200 -45.372500 -6.273600
C -5.630400 -44.275200 -9.881100
N -5.439100 -44.556800 -6.365900
H -5.404100 -45.936600 -10.992500
C -5.379200 -44.019500 -7.561200
H -5.225900 -44.091600 -5.674400
N -5.225200 -43.054700 -10.104900
N -4.991400 -42.758500 -7.724300
C -4.920600 -42.323500 -8.990100
N -4.523200 -41.085100 -9.181800
H -4.465900 -40.770700 -9.980500
H -4.320800 -40.589700 -8.508900
