18
Fragment
H -9.255400 -34.704500 -11.067800
O -8.978700 -35.443000 -13.226800
O -8.900900 -35.493100 -11.043000
H -8.727000 -36.312100 -14.444100
C -8.716100 -36.030800 -12.131900
O -8.545200 -36.853200 -15.097600
C -8.201600 -38.028600 -14.705600
C -8.168700 -37.451100 -12.128000
O -8.043300 -38.922800 -15.528200
H -8.009000 -37.381500 -10.126400
C -7.968100 -38.313900 -13.237900
C -7.877900 -37.938500 -10.858300
C -7.486700 -39.600200 -12.982600
C -7.405200 -39.211500 -10.640200
H -7.350300 -40.176000 -13.699000
H -7.222900 -39.501500 -9.775600
C -7.205200 -40.048400 -11.710500
H -6.881800 -40.909300 -11.577800
16
Fragment
H -5.699300 -36.803300 -14.789400
C -4.787300 -37.089100 -14.882600
H -4.682100 -37.560100 -15.713100
N -4.534000 -37.467300 -12.513800
H -4.497300 -36.888000 -10.154300
C -4.435500 -37.985300 -13.761800
N -4.244300 -37.703700 -10.246700
H -4.209200 -36.323900 -14.873300
C -4.184400 -38.241000 -11.441900
H -4.031000 -38.168900 -9.555100
N -4.030400 -39.205800 -13.985700
N -3.796600 -39.502000 -11.605000
C -3.725800 -39.937000 -12.870800
N -3.328400 -41.175400 -13.062500
H -3.271100 -41.489800 -13.861200
H -3.125900 -41.670800 -12.389600
34
Fragment
H -9.255400 -34.704500 -11.067800
O -8.978700 -35.443000 -13.226800
O -8.900900 -35.493100 -11.043000
H -8.727000 -36.312100 -14.444100
C -8.716100 -36.030800 -12.131900
O -8.545200 -36.853200 -15.097600
C -8.201600 -38.028600 -14.705600
C -8.168700 -37.451100 -12.128000
O -8.043300 -38.922800 -15.528200
H -8.009000 -37.381500 -10.126400
C -7.968100 -38.313900 -13.237900
C -7.877900 -37.938500 -10.858300
C -7.486700 -39.600200 -12.982600
C -7.405200 -39.211500 -10.640200
H -7.350300 -40.176000 -13.699000
H -7.222900 -39.501500 -9.775600
C -7.205200 -40.048400 -11.710500
H -6.881800 -40.909300 -11.577800
H -5.699300 -36.803300 -14.789400
C -4.787300 -37.089100 -14.882600
H -4.682100 -37.560100 -15.713100
N -4.534000 -37.467300 -12.513800
H -4.497300 -36.888000 -10.154300
C -4.435500 -37.985300 -13.761800
N -4.244300 -37.703700 -10.246700
H -4.209200 -36.323900 -14.873300
C -4.184400 -38.241000 -11.441900
H -4.031000 -38.168900 -9.555100
N -4.030400 -39.205800 -13.985700
N -3.796600 -39.502000 -11.605000
C -3.725800 -39.937000 -12.870800
N -3.328400 -41.175400 -13.062500
H -3.271100 -41.489800 -13.861200
H -3.125900 -41.670800 -12.389600
