24
Fragment
H -10.896800 -12.771600 -13.790400
H -10.647700 -14.091900 -11.914800
C -10.122000 -13.275400 -13.682600
C -9.980300 -14.053300 -12.560500
H -9.265300 -12.688800 -15.417500
C -9.130500 -13.221700 -14.667700
C -8.799200 -14.784100 -12.422800
N -8.395700 -15.659800 -11.424100
C -7.960200 -13.937800 -14.555000
C -7.814100 -14.713400 -13.411000
H -7.301200 -13.904200 -15.210400
C -7.223300 -16.083800 -11.809800
N -6.811100 -15.563500 -12.988700
H -6.716800 -16.689400 -11.318500
H -5.674300 -15.916600 -14.598700
C -5.526100 -15.791900 -13.648300
H -5.129800 -16.605500 -13.299100
H -4.885200 -13.224700 -14.900200
C -4.576900 -14.656800 -13.444600
C -4.425100 -13.491400 -14.137500
N -3.702600 -14.639700 -12.408700
N -3.477200 -12.817400 -13.486900
H -3.081900 -11.989300 -13.654600
N -3.028400 -13.505200 -12.441900
24
Fragment
H -21.460500 -12.771600 -13.790400
H -21.211400 -14.091900 -11.914800
C -20.685700 -13.275400 -13.682600
C -20.544000 -14.053300 -12.560500
H -19.829000 -12.688800 -15.417500
C -19.694200 -13.221700 -14.667700
C -19.362900 -14.784100 -12.422800
N -18.959400 -15.659800 -11.424100
C -18.523900 -13.937800 -14.555000
C -18.377800 -14.713400 -13.411000
H -17.864900 -13.904200 -15.210400
C -17.787000 -16.083800 -11.809800
N -17.374800 -15.563500 -12.988700
H -17.280500 -16.689400 -11.318500
H -16.238000 -15.916600 -14.598700
C -16.089800 -15.791900 -13.648300
H -15.693500 -16.605500 -13.299100
H -15.448900 -13.224700 -14.900200
C -15.140600 -14.656800 -13.444600
C -14.988800 -13.491400 -14.137500
N -14.266300 -14.639700 -12.408700
N -14.040900 -12.817400 -13.486900
H -13.645600 -11.989300 -13.654600
N -13.592100 -13.505200 -12.441900
48
Fragment
H -10.896800 -12.771600 -13.790400
H -10.647700 -14.091900 -11.914800
C -10.122000 -13.275400 -13.682600
C -9.980300 -14.053300 -12.560500
H -9.265300 -12.688800 -15.417500
C -9.130500 -13.221700 -14.667700
C -8.799200 -14.784100 -12.422800
N -8.395700 -15.659800 -11.424100
C -7.960200 -13.937800 -14.555000
C -7.814100 -14.713400 -13.411000
H -7.301200 -13.904200 -15.210400
C -7.223300 -16.083800 -11.809800
N -6.811100 -15.563500 -12.988700
H -6.716800 -16.689400 -11.318500
H -5.674300 -15.916600 -14.598700
C -5.526100 -15.791900 -13.648300
H -5.129800 -16.605500 -13.299100
H -4.885200 -13.224700 -14.900200
C -4.576900 -14.656800 -13.444600
C -4.425100 -13.491400 -14.137500
N -3.702600 -14.639700 -12.408700
N -3.477200 -12.817400 -13.486900
H -3.081900 -11.989300 -13.654600
N -3.028400 -13.505200 -12.441900
H -21.460500 -12.771600 -13.790400
H -21.211400 -14.091900 -11.914800
C -20.685700 -13.275400 -13.682600
C -20.544000 -14.053300 -12.560500
H -19.829000 -12.688800 -15.417500
C -19.694200 -13.221700 -14.667700
C -19.362900 -14.784100 -12.422800
N -18.959400 -15.659800 -11.424100
C -18.523900 -13.937800 -14.555000
C -18.377800 -14.713400 -13.411000
H -17.864900 -13.904200 -15.210400
C -17.787000 -16.083800 -11.809800
N -17.374800 -15.563500 -12.988700
H -17.280500 -16.689400 -11.318500
H -16.238000 -15.916600 -14.598700
C -16.089800 -15.791900 -13.648300
H -15.693500 -16.605500 -13.299100
H -15.448900 -13.224700 -14.900200
C -15.140600 -14.656800 -13.444600
C -14.988800 -13.491400 -14.137500
N -14.266300 -14.639700 -12.408700
N -14.040900 -12.817400 -13.486900
H -13.645600 -11.989300 -13.654600
N -13.592100 -13.505200 -12.441900
