24
Fragment
H -10.896800 -12.771600 -13.790400
H -10.647700 -14.091900 -11.914800
C -10.122000 -13.275400 -13.682600
C -9.980300 -14.053300 -12.560500
H -9.265300 -12.688800 -15.417500
C -9.130500 -13.221700 -14.667700
C -8.799200 -14.784100 -12.422800
N -8.395700 -15.659800 -11.424100
C -7.960200 -13.937800 -14.555000
C -7.814100 -14.713400 -13.411000
H -7.301200 -13.904200 -15.210400
C -7.223300 -16.083800 -11.809800
N -6.811100 -15.563500 -12.988700
H -6.716800 -16.689400 -11.318500
H -5.674300 -15.916600 -14.598700
C -5.526100 -15.791900 -13.648300
H -5.129800 -16.605500 -13.299100
H -4.885200 -13.224700 -14.900200
C -4.576900 -14.656800 -13.444600
C -4.425100 -13.491400 -14.137500
N -3.702600 -14.639700 -12.408700
N -3.477200 -12.817400 -13.486900
H -3.081900 -11.989300 -13.654600
N -3.028400 -13.505200 -12.441900
24
Fragment
N -11.740300 -18.748500 -11.642000
H -11.686800 -17.232600 -10.429300
N -11.291500 -18.060700 -10.597000
N -11.066100 -19.883000 -11.675200
C -10.343600 -18.734700 -9.946400
C -10.191800 -19.900100 -10.639300
H -9.883500 -18.468000 -9.183700
H -9.638900 -21.848800 -10.784800
C -9.242600 -21.035200 -10.435500
H -9.094400 -21.159900 -9.485200
H -8.052000 -21.932700 -12.765400
N -7.957600 -20.806800 -11.095200
C -7.545400 -21.327100 -12.274100
H -7.467500 -19.147500 -8.873500
C -6.954600 -19.956700 -10.672900
C -6.808500 -19.181100 -9.528900
N -6.373000 -20.903100 -12.659700
C -5.969500 -20.027400 -11.661100
C -5.638300 -18.465000 -9.416200
H -5.503500 -17.932100 -8.666300
C -4.788400 -19.296600 -11.523400
C -4.646800 -18.518700 -10.401300
H -4.121000 -19.335200 -12.169100
H -3.871900 -18.014900 -10.293500
48
Fragment
H -10.896800 -12.771600 -13.790400
H -10.647700 -14.091900 -11.914800
C -10.122000 -13.275400 -13.682600
C -9.980300 -14.053300 -12.560500
H -9.265300 -12.688800 -15.417500
C -9.130500 -13.221700 -14.667700
C -8.799200 -14.784100 -12.422800
N -8.395700 -15.659800 -11.424100
C -7.960200 -13.937800 -14.555000
C -7.814100 -14.713400 -13.411000
H -7.301200 -13.904200 -15.210400
C -7.223300 -16.083800 -11.809800
N -6.811100 -15.563500 -12.988700
H -6.716800 -16.689400 -11.318500
H -5.674300 -15.916600 -14.598700
C -5.526100 -15.791900 -13.648300
H -5.129800 -16.605500 -13.299100
H -4.885200 -13.224700 -14.900200
C -4.576900 -14.656800 -13.444600
C -4.425100 -13.491400 -14.137500
N -3.702600 -14.639700 -12.408700
N -3.477200 -12.817400 -13.486900
H -3.081900 -11.989300 -13.654600
N -3.028400 -13.505200 -12.441900
N -11.740300 -18.748500 -11.642000
H -11.686800 -17.232600 -10.429300
N -11.291500 -18.060700 -10.597000
N -11.066100 -19.883000 -11.675200
C -10.343600 -18.734700 -9.946400
C -10.191800 -19.900100 -10.639300
H -9.883500 -18.468000 -9.183700
H -9.638900 -21.848800 -10.784800
C -9.242600 -21.035200 -10.435500
H -9.094400 -21.159900 -9.485200
H -8.052000 -21.932700 -12.765400
N -7.957600 -20.806800 -11.095200
C -7.545400 -21.327100 -12.274100
H -7.467500 -19.147500 -8.873500
C -6.954600 -19.956700 -10.672900
C -6.808500 -19.181100 -9.528900
N -6.373000 -20.903100 -12.659700
C -5.969500 -20.027400 -11.661100
C -5.638300 -18.465000 -9.416200
H -5.503500 -17.932100 -8.666300
C -4.788400 -19.296600 -11.523400
C -4.646800 -18.518700 -10.401300
H -4.121000 -19.335200 -12.169100
H -3.871900 -18.014900 -10.293500
