24
Fragment
H -10.896800 -12.771600 -13.790400
H -10.647700 -14.091900 -11.914800
C -10.122000 -13.275400 -13.682600
C -9.980300 -14.053300 -12.560500
H -9.265300 -12.688800 -15.417500
C -9.130500 -13.221700 -14.667700
C -8.799200 -14.784100 -12.422800
N -8.395700 -15.659800 -11.424100
C -7.960200 -13.937800 -14.555000
C -7.814100 -14.713400 -13.411000
H -7.301200 -13.904200 -15.210400
C -7.223300 -16.083800 -11.809800
N -6.811100 -15.563500 -12.988700
H -6.716800 -16.689400 -11.318500
H -5.674300 -15.916600 -14.598700
C -5.526100 -15.791900 -13.648300
H -5.129800 -16.605500 -13.299100
H -4.885200 -13.224700 -14.900200
C -4.576900 -14.656800 -13.444600
C -4.425100 -13.491400 -14.137500
N -3.702600 -14.639700 -12.408700
N -3.477200 -12.817400 -13.486900
H -3.081900 -11.989300 -13.654600
N -3.028400 -13.505200 -12.441900
24
Fragment
N -4.130400 -17.954600 -16.458700
H -4.076800 -19.470500 -15.246100
N -3.681500 -18.642400 -15.413800
N -3.456200 -16.820100 -16.492000
C -2.733600 -17.968400 -14.763100
C -2.581900 -16.803000 -15.456100
H -2.273500 -18.235100 -14.000400
H -2.028900 -14.854300 -15.601500
C -1.632700 -15.667900 -15.252300
H -1.484500 -15.543200 -14.302000
H -0.442000 -14.770400 -17.582200
N -0.347700 -15.896300 -15.911900
C 0.064500 -15.376000 -17.090900
H 0.142500 -17.555600 -13.690200
C 0.655300 -16.746400 -15.489700
C 0.801400 -17.522000 -14.345700
N 1.236900 -15.800000 -17.476500
C 1.640500 -16.675700 -16.477900
C 1.971700 -18.238100 -14.233000
H 2.106500 -18.771000 -13.483100
C 2.821600 -17.406500 -16.340100
C 2.963200 -18.184400 -15.218000
H 3.488900 -17.367900 -16.985900
H 3.738000 -18.688200 -15.110200
48
Fragment
H -10.896800 -12.771600 -13.790400
H -10.647700 -14.091900 -11.914800
C -10.122000 -13.275400 -13.682600
C -9.980300 -14.053300 -12.560500
H -9.265300 -12.688800 -15.417500
C -9.130500 -13.221700 -14.667700
C -8.799200 -14.784100 -12.422800
N -8.395700 -15.659800 -11.424100
C -7.960200 -13.937800 -14.555000
C -7.814100 -14.713400 -13.411000
H -7.301200 -13.904200 -15.210400
C -7.223300 -16.083800 -11.809800
N -6.811100 -15.563500 -12.988700
H -6.716800 -16.689400 -11.318500
H -5.674300 -15.916600 -14.598700
C -5.526100 -15.791900 -13.648300
H -5.129800 -16.605500 -13.299100
H -4.885200 -13.224700 -14.900200
C -4.576900 -14.656800 -13.444600
C -4.425100 -13.491400 -14.137500
N -3.702600 -14.639700 -12.408700
N -3.477200 -12.817400 -13.486900
H -3.081900 -11.989300 -13.654600
N -3.028400 -13.505200 -12.441900
N -4.130400 -17.954600 -16.458700
H -4.076800 -19.470500 -15.246100
N -3.681500 -18.642400 -15.413800
N -3.456200 -16.820100 -16.492000
C -2.733600 -17.968400 -14.763100
C -2.581900 -16.803000 -15.456100
H -2.273500 -18.235100 -14.000400
H -2.028900 -14.854300 -15.601500
C -1.632700 -15.667900 -15.252300
H -1.484500 -15.543200 -14.302000
H -0.442000 -14.770400 -17.582200
N -0.347700 -15.896300 -15.911900
C 0.064500 -15.376000 -17.090900
H 0.142500 -17.555600 -13.690200
C 0.655300 -16.746400 -15.489700
C 0.801400 -17.522000 -14.345700
N 1.236900 -15.800000 -17.476500
C 1.640500 -16.675700 -16.477900
C 1.971700 -18.238100 -14.233000
H 2.106500 -18.771000 -13.483100
C 2.821600 -17.406500 -16.340100
C 2.963200 -18.184400 -15.218000
H 3.488900 -17.367900 -16.985900
H 3.738000 -18.688200 -15.110200
