24
Fragment
H -10.896800 -12.771600 -13.790400
H -10.647700 -14.091900 -11.914800
C -10.122000 -13.275400 -13.682600
C -9.980300 -14.053300 -12.560500
H -9.265300 -12.688800 -15.417500
C -9.130500 -13.221700 -14.667700
C -8.799200 -14.784100 -12.422800
N -8.395700 -15.659800 -11.424100
C -7.960200 -13.937800 -14.555000
C -7.814100 -14.713400 -13.411000
H -7.301200 -13.904200 -15.210400
C -7.223300 -16.083800 -11.809800
N -6.811100 -15.563500 -12.988700
H -6.716800 -16.689400 -11.318500
H -5.674300 -15.916600 -14.598700
C -5.526100 -15.791900 -13.648300
H -5.129800 -16.605500 -13.299100
H -4.885200 -13.224700 -14.900200
C -4.576900 -14.656800 -13.444600
C -4.425100 -13.491400 -14.137500
N -3.702600 -14.639700 -12.408700
N -3.477200 -12.817400 -13.486900
H -3.081900 -11.989300 -13.654600
N -3.028400 -13.505200 -12.441900
24
Fragment
H -13.850500 -13.444900 -18.607200
H -13.601400 -12.124600 -16.731600
C -13.075700 -12.941100 -18.499400
C -12.934100 -12.163200 -17.377300
H -12.219000 -13.527700 -20.234300
C -12.084200 -12.994800 -19.484400
C -11.753000 -11.432400 -17.239500
N -11.349400 -10.556700 -16.240900
C -10.913900 -12.278700 -19.371700
C -10.767800 -11.503100 -18.227700
H -10.255000 -12.312300 -20.027200
C -10.177000 -10.132700 -16.626600
N -9.764800 -10.653000 -17.805500
H -9.670500 -9.527100 -16.135200
H -8.628000 -10.299900 -19.415500
C -8.479800 -10.424600 -18.465100
H -8.083600 -9.611000 -18.115900
H -7.839000 -12.991800 -19.717000
C -7.530600 -11.559700 -18.261400
C -7.378900 -12.725100 -18.954300
N -6.656300 -11.576800 -17.225500
N -6.431000 -13.399100 -18.303700
H -6.035700 -14.227200 -18.471400
N -5.982100 -12.711300 -17.258700
48
Fragment
H -10.896800 -12.771600 -13.790400
H -10.647700 -14.091900 -11.914800
C -10.122000 -13.275400 -13.682600
C -9.980300 -14.053300 -12.560500
H -9.265300 -12.688800 -15.417500
C -9.130500 -13.221700 -14.667700
C -8.799200 -14.784100 -12.422800
N -8.395700 -15.659800 -11.424100
C -7.960200 -13.937800 -14.555000
C -7.814100 -14.713400 -13.411000
H -7.301200 -13.904200 -15.210400
C -7.223300 -16.083800 -11.809800
N -6.811100 -15.563500 -12.988700
H -6.716800 -16.689400 -11.318500
H -5.674300 -15.916600 -14.598700
C -5.526100 -15.791900 -13.648300
H -5.129800 -16.605500 -13.299100
H -4.885200 -13.224700 -14.900200
C -4.576900 -14.656800 -13.444600
C -4.425100 -13.491400 -14.137500
N -3.702600 -14.639700 -12.408700
N -3.477200 -12.817400 -13.486900
H -3.081900 -11.989300 -13.654600
N -3.028400 -13.505200 -12.441900
H -13.850500 -13.444900 -18.607200
H -13.601400 -12.124600 -16.731600
C -13.075700 -12.941100 -18.499400
C -12.934100 -12.163200 -17.377300
H -12.219000 -13.527700 -20.234300
C -12.084200 -12.994800 -19.484400
C -11.753000 -11.432400 -17.239500
N -11.349400 -10.556700 -16.240900
C -10.913900 -12.278700 -19.371700
C -10.767800 -11.503100 -18.227700
H -10.255000 -12.312300 -20.027200
C -10.177000 -10.132700 -16.626600
N -9.764800 -10.653000 -17.805500
H -9.670500 -9.527100 -16.135200
H -8.628000 -10.299900 -19.415500
C -8.479800 -10.424600 -18.465100
H -8.083600 -9.611000 -18.115900
H -7.839000 -12.991800 -19.717000
C -7.530600 -11.559700 -18.261400
C -7.378900 -12.725100 -18.954300
N -6.656300 -11.576800 -17.225500
N -6.431000 -13.399100 -18.303700
H -6.035700 -14.227200 -18.471400
N -5.982100 -12.711300 -17.258700
