24
Fragment
H -10.896800 -12.771600 -13.790400
H -10.647700 -14.091900 -11.914800
C -10.122000 -13.275400 -13.682600
C -9.980300 -14.053300 -12.560500
H -9.265300 -12.688800 -15.417500
C -9.130500 -13.221700 -14.667700
C -8.799200 -14.784100 -12.422800
N -8.395700 -15.659800 -11.424100
C -7.960200 -13.937800 -14.555000
C -7.814100 -14.713400 -13.411000
H -7.301200 -13.904200 -15.210400
C -7.223300 -16.083800 -11.809800
N -6.811100 -15.563500 -12.988700
H -6.716800 -16.689400 -11.318500
H -5.674300 -15.916600 -14.598700
C -5.526100 -15.791900 -13.648300
H -5.129800 -16.605500 -13.299100
H -4.885200 -13.224700 -14.900200
C -4.576900 -14.656800 -13.444600
C -4.425100 -13.491400 -14.137500
N -3.702600 -14.639700 -12.408700
N -3.477200 -12.817400 -13.486900
H -3.081900 -11.989300 -13.654600
N -3.028400 -13.505200 -12.441900
24
Fragment
H -7.943000 -13.444900 -8.973700
H -7.693900 -12.124600 -7.098000
C -7.168200 -12.941100 -8.865900
C -7.026600 -12.163200 -7.743700
H -6.311500 -13.527700 -10.600800
C -6.176700 -12.994800 -9.850900
C -5.845500 -11.432400 -7.606000
N -5.442000 -10.556700 -6.607400
C -5.006400 -12.278700 -9.738200
C -4.860400 -11.503100 -8.594200
H -4.347500 -12.312300 -10.393600
C -4.269500 -10.132700 -6.993000
N -3.857300 -10.653000 -8.172000
H -3.763000 -9.527100 -6.501700
H -2.720500 -10.299900 -9.781900
C -2.572400 -10.424600 -8.831600
H -2.176100 -9.611000 -8.482300
H -1.931500 -12.991800 -10.083400
C -1.623100 -11.559700 -8.627800
C -1.471400 -12.725100 -9.320800
N -0.748800 -11.576800 -7.591900
N -0.523500 -13.399100 -8.670100
H -0.128200 -14.227200 -8.837800
N -0.074700 -12.711300 -7.625200
48
Fragment
H -10.896800 -12.771600 -13.790400
H -10.647700 -14.091900 -11.914800
C -10.122000 -13.275400 -13.682600
C -9.980300 -14.053300 -12.560500
H -9.265300 -12.688800 -15.417500
C -9.130500 -13.221700 -14.667700
C -8.799200 -14.784100 -12.422800
N -8.395700 -15.659800 -11.424100
C -7.960200 -13.937800 -14.555000
C -7.814100 -14.713400 -13.411000
H -7.301200 -13.904200 -15.210400
C -7.223300 -16.083800 -11.809800
N -6.811100 -15.563500 -12.988700
H -6.716800 -16.689400 -11.318500
H -5.674300 -15.916600 -14.598700
C -5.526100 -15.791900 -13.648300
H -5.129800 -16.605500 -13.299100
H -4.885200 -13.224700 -14.900200
C -4.576900 -14.656800 -13.444600
C -4.425100 -13.491400 -14.137500
N -3.702600 -14.639700 -12.408700
N -3.477200 -12.817400 -13.486900
H -3.081900 -11.989300 -13.654600
N -3.028400 -13.505200 -12.441900
H -7.943000 -13.444900 -8.973700
H -7.693900 -12.124600 -7.098000
C -7.168200 -12.941100 -8.865900
C -7.026600 -12.163200 -7.743700
H -6.311500 -13.527700 -10.600800
C -6.176700 -12.994800 -9.850900
C -5.845500 -11.432400 -7.606000
N -5.442000 -10.556700 -6.607400
C -5.006400 -12.278700 -9.738200
C -4.860400 -11.503100 -8.594200
H -4.347500 -12.312300 -10.393600
C -4.269500 -10.132700 -6.993000
N -3.857300 -10.653000 -8.172000
H -3.763000 -9.527100 -6.501700
H -2.720500 -10.299900 -9.781900
C -2.572400 -10.424600 -8.831600
H -2.176100 -9.611000 -8.482300
H -1.931500 -12.991800 -10.083400
C -1.623100 -11.559700 -8.627800
C -1.471400 -12.725100 -9.320800
N -0.748800 -11.576800 -7.591900
N -0.523500 -13.399100 -8.670100
H -0.128200 -14.227200 -8.837800
N -0.074700 -12.711300 -7.625200
