22
Fragment
O -22.409600 -19.814500 -12.364700
N -21.562300 -17.109500 -12.383200
C -21.432600 -19.499400 -11.717100
H -21.234900 -15.126000 -12.391900
C -21.038600 -15.968400 -11.999400
C -21.019800 -18.087100 -11.578400
H -20.900200 -21.164300 -11.305700
O -20.659300 -20.341100 -11.064300
N -20.174100 -16.156600 -10.960300
C -20.138300 -17.515200 -10.691500
C -19.331900 -15.247000 -10.323200
N -19.326700 -18.023700 -9.709900
O -19.312800 -14.067100 -10.570100
N -18.547700 -17.239600 -9.090300
N -18.522700 -15.888700 -9.414600
H -17.733300 -14.196300 -8.650900
C -17.456000 -15.142200 -8.745800
H -17.321900 -15.511500 -7.837200
H -16.291100 -14.896900 -10.434100
C -16.143900 -15.201600 -9.503700
H -15.494700 -14.585200 -9.080700
Cl -15.457400 -16.855200 -9.526900
22
Fragment
Cl -18.703200 -16.666200 -5.527400
H -18.666000 -18.936200 -5.973500
C -18.016800 -18.319800 -5.550500
H -17.869500 -18.624500 -4.620100
H -16.838800 -18.009900 -7.217000
C -16.704700 -18.379200 -6.308400
H -16.427400 -19.325100 -6.403300
N -15.638000 -17.632700 -5.639700
N -15.613000 -16.281800 -5.964000
O -14.847900 -19.454300 -4.484100
N -14.834000 -15.497700 -5.344300
C -14.828800 -18.274400 -4.731000
C -14.022400 -16.006200 -4.362800
N -13.986500 -17.364800 -4.093900
O -13.501400 -13.180300 -3.989900
H -13.260500 -12.357100 -3.748500
C -13.140900 -15.434300 -3.475800
C -13.122100 -17.553000 -3.054800
H -12.925800 -18.395400 -2.662300
C -12.728000 -14.022000 -3.337200
N -12.598400 -16.411900 -2.671100
O -11.751100 -13.706900 -2.689500
44
Fragment
O -22.409600 -19.814500 -12.364700
N -21.562300 -17.109500 -12.383200
C -21.432600 -19.499400 -11.717100
H -21.234900 -15.126000 -12.391900
C -21.038600 -15.968400 -11.999400
C -21.019800 -18.087100 -11.578400
H -20.900200 -21.164300 -11.305700
O -20.659300 -20.341100 -11.064300
N -20.174100 -16.156600 -10.960300
C -20.138300 -17.515200 -10.691500
C -19.331900 -15.247000 -10.323200
N -19.326700 -18.023700 -9.709900
O -19.312800 -14.067100 -10.570100
N -18.547700 -17.239600 -9.090300
N -18.522700 -15.888700 -9.414600
H -17.733300 -14.196300 -8.650900
C -17.456000 -15.142200 -8.745800
H -17.321900 -15.511500 -7.837200
H -16.291100 -14.896900 -10.434100
C -16.143900 -15.201600 -9.503700
H -15.494700 -14.585200 -9.080700
Cl -15.457400 -16.855200 -9.526900
Cl -18.703200 -16.666200 -5.527400
H -18.666000 -18.936200 -5.973500
C -18.016800 -18.319800 -5.550500
H -17.869500 -18.624500 -4.620100
H -16.838800 -18.009900 -7.217000
C -16.704700 -18.379200 -6.308400
H -16.427400 -19.325100 -6.403300
N -15.638000 -17.632700 -5.639700
N -15.613000 -16.281800 -5.964000
O -14.847900 -19.454300 -4.484100
N -14.834000 -15.497700 -5.344300
C -14.828800 -18.274400 -4.731000
C -14.022400 -16.006200 -4.362800
N -13.986500 -17.364800 -4.093900
O -13.501400 -13.180300 -3.989900
H -13.260500 -12.357100 -3.748500
C -13.140900 -15.434300 -3.475800
C -13.122100 -17.553000 -3.054800
H -12.925800 -18.395400 -2.662300
C -12.728000 -14.022000 -3.337200
N -12.598400 -16.411900 -2.671100
O -11.751100 -13.706900 -2.689500
