22
Fragment
O -22.409600 -19.814500 -12.364700
N -21.562300 -17.109500 -12.383200
C -21.432600 -19.499400 -11.717100
H -21.234900 -15.126000 -12.391900
C -21.038600 -15.968400 -11.999400
C -21.019800 -18.087100 -11.578400
H -20.900200 -21.164300 -11.305700
O -20.659300 -20.341100 -11.064300
N -20.174100 -16.156600 -10.960300
C -20.138300 -17.515200 -10.691500
C -19.331900 -15.247000 -10.323200
N -19.326700 -18.023700 -9.709900
O -19.312800 -14.067100 -10.570100
N -18.547700 -17.239600 -9.090300
N -18.522700 -15.888700 -9.414600
H -17.733300 -14.196300 -8.650900
C -17.456000 -15.142200 -8.745800
H -17.321900 -15.511500 -7.837200
H -16.291100 -14.896900 -10.434100
C -16.143900 -15.201600 -9.503700
H -15.494700 -14.585200 -9.080700
Cl -15.457400 -16.855200 -9.526900
22
Fragment
Cl -18.240900 -22.442100 -9.291000
H -18.203700 -20.172100 -9.737100
C -17.554500 -20.788500 -9.314100
H -17.407200 -20.483800 -8.383700
H -16.376400 -21.098400 -10.980600
C -16.242300 -20.729100 -10.072000
H -15.965100 -19.783200 -10.166900
N -15.175700 -21.475600 -9.403300
N -15.150700 -22.826500 -9.727500
O -14.385500 -19.654000 -8.247700
N -14.371700 -23.610600 -9.107900
C -14.366500 -20.833900 -8.494600
C -13.560100 -23.102100 -8.126400
N -13.524200 -21.743500 -7.857500
O -13.039100 -25.928000 -7.753500
H -12.798200 -26.751200 -7.512100
C -12.678500 -23.674000 -7.239400
C -12.659800 -21.555300 -6.818400
H -12.463500 -20.712900 -6.425900
C -12.265700 -25.086300 -7.100700
N -12.136100 -22.696400 -6.434600
O -11.288800 -25.401400 -6.453100
44
Fragment
O -22.409600 -19.814500 -12.364700
N -21.562300 -17.109500 -12.383200
C -21.432600 -19.499400 -11.717100
H -21.234900 -15.126000 -12.391900
C -21.038600 -15.968400 -11.999400
C -21.019800 -18.087100 -11.578400
H -20.900200 -21.164300 -11.305700
O -20.659300 -20.341100 -11.064300
N -20.174100 -16.156600 -10.960300
C -20.138300 -17.515200 -10.691500
C -19.331900 -15.247000 -10.323200
N -19.326700 -18.023700 -9.709900
O -19.312800 -14.067100 -10.570100
N -18.547700 -17.239600 -9.090300
N -18.522700 -15.888700 -9.414600
H -17.733300 -14.196300 -8.650900
C -17.456000 -15.142200 -8.745800
H -17.321900 -15.511500 -7.837200
H -16.291100 -14.896900 -10.434100
C -16.143900 -15.201600 -9.503700
H -15.494700 -14.585200 -9.080700
Cl -15.457400 -16.855200 -9.526900
Cl -18.240900 -22.442100 -9.291000
H -18.203700 -20.172100 -9.737100
C -17.554500 -20.788500 -9.314100
H -17.407200 -20.483800 -8.383700
H -16.376400 -21.098400 -10.980600
C -16.242300 -20.729100 -10.072000
H -15.965100 -19.783200 -10.166900
N -15.175700 -21.475600 -9.403300
N -15.150700 -22.826500 -9.727500
O -14.385500 -19.654000 -8.247700
N -14.371700 -23.610600 -9.107900
C -14.366500 -20.833900 -8.494600
C -13.560100 -23.102100 -8.126400
N -13.524200 -21.743500 -7.857500
O -13.039100 -25.928000 -7.753500
H -12.798200 -26.751200 -7.512100
C -12.678500 -23.674000 -7.239400
C -12.659800 -21.555300 -6.818400
H -12.463500 -20.712900 -6.425900
C -12.265700 -25.086300 -7.100700
N -12.136100 -22.696400 -6.434600
O -11.288800 -25.401400 -6.453100
