22
Fragment
O -22.409600 -19.814500 -12.364700
N -21.562300 -17.109500 -12.383200
C -21.432600 -19.499400 -11.717100
H -21.234900 -15.126000 -12.391900
C -21.038600 -15.968400 -11.999400
C -21.019800 -18.087100 -11.578400
H -20.900200 -21.164300 -11.305700
O -20.659300 -20.341100 -11.064300
N -20.174100 -16.156600 -10.960300
C -20.138300 -17.515200 -10.691500
C -19.331900 -15.247000 -10.323200
N -19.326700 -18.023700 -9.709900
O -19.312800 -14.067100 -10.570100
N -18.547700 -17.239600 -9.090300
N -18.522700 -15.888700 -9.414600
H -17.733300 -14.196300 -8.650900
C -17.456000 -15.142200 -8.745800
H -17.321900 -15.511500 -7.837200
H -16.291100 -14.896900 -10.434100
C -16.143900 -15.201600 -9.503700
H -15.494700 -14.585200 -9.080700
Cl -15.457400 -16.855200 -9.526900
22
Fragment
Cl -18.240900 -11.268300 -9.291000
H -18.203700 -8.998300 -9.737100
C -17.554500 -9.614700 -9.314100
H -17.407200 -9.310000 -8.383700
H -16.376400 -9.924600 -10.980600
C -16.242300 -9.555300 -10.072000
H -15.965100 -8.609400 -10.166900
N -15.175700 -10.301800 -9.403300
N -15.150700 -11.652700 -9.727500
O -14.385500 -8.480200 -8.247700
N -14.371700 -12.436800 -9.107900
C -14.366500 -9.660100 -8.494600
C -13.560100 -11.928300 -8.126400
N -13.524200 -10.569700 -7.857500
O -13.039100 -14.754200 -7.753500
H -12.798200 -15.577400 -7.512100
C -12.678500 -12.500200 -7.239400
C -12.659800 -10.381500 -6.818400
H -12.463500 -9.539100 -6.425900
C -12.265700 -13.912500 -7.100700
N -12.136100 -11.522600 -6.434600
O -11.288800 -14.227600 -6.453100
44
Fragment
O -22.409600 -19.814500 -12.364700
N -21.562300 -17.109500 -12.383200
C -21.432600 -19.499400 -11.717100
H -21.234900 -15.126000 -12.391900
C -21.038600 -15.968400 -11.999400
C -21.019800 -18.087100 -11.578400
H -20.900200 -21.164300 -11.305700
O -20.659300 -20.341100 -11.064300
N -20.174100 -16.156600 -10.960300
C -20.138300 -17.515200 -10.691500
C -19.331900 -15.247000 -10.323200
N -19.326700 -18.023700 -9.709900
O -19.312800 -14.067100 -10.570100
N -18.547700 -17.239600 -9.090300
N -18.522700 -15.888700 -9.414600
H -17.733300 -14.196300 -8.650900
C -17.456000 -15.142200 -8.745800
H -17.321900 -15.511500 -7.837200
H -16.291100 -14.896900 -10.434100
C -16.143900 -15.201600 -9.503700
H -15.494700 -14.585200 -9.080700
Cl -15.457400 -16.855200 -9.526900
Cl -18.240900 -11.268300 -9.291000
H -18.203700 -8.998300 -9.737100
C -17.554500 -9.614700 -9.314100
H -17.407200 -9.310000 -8.383700
H -16.376400 -9.924600 -10.980600
C -16.242300 -9.555300 -10.072000
H -15.965100 -8.609400 -10.166900
N -15.175700 -10.301800 -9.403300
N -15.150700 -11.652700 -9.727500
O -14.385500 -8.480200 -8.247700
N -14.371700 -12.436800 -9.107900
C -14.366500 -9.660100 -8.494600
C -13.560100 -11.928300 -8.126400
N -13.524200 -10.569700 -7.857500
O -13.039100 -14.754200 -7.753500
H -12.798200 -15.577400 -7.512100
C -12.678500 -12.500200 -7.239400
C -12.659800 -10.381500 -6.818400
H -12.463500 -9.539100 -6.425900
C -12.265700 -13.912500 -7.100700
N -12.136100 -11.522600 -6.434600
O -11.288800 -14.227600 -6.453100
