24
Fragment
N -16.647900 -12.765300 -10.659800
C -16.095900 -12.276900 -11.536600
H -15.492500 -10.813100 -12.529200
N -15.490000 -11.653500 -12.553600
O -15.110800 -13.567300 -13.755400
C -15.072200 -12.349500 -13.671700
N -14.639900 -10.090700 -14.581000
C -14.573000 -11.460400 -14.727400
C -14.116300 -9.570300 -15.662200
H -14.026800 -8.639000 -15.825700
C -13.996500 -11.775000 -15.937900
N -13.716300 -10.554000 -16.524000
N -13.705800 -12.958600 -16.574400
N -13.195200 -12.915300 -17.746500
C -13.135000 -10.448900 -17.792600
N -12.957400 -11.702700 -18.349900
O -12.866300 -9.403000 -18.314400
H -12.712000 -11.067000 -20.267300
H -12.625600 -12.660700 -20.114300
C -12.367300 -11.800300 -19.698000
C -10.856300 -11.710000 -19.606500
H -10.596900 -10.873500 -19.144600
H -10.504200 -12.474700 -19.085700
Cl -10.172700 -11.731900 -21.258600
24
Fragment
Cl -11.286100 -15.132900 -20.842100
H -10.954600 -14.390100 -23.015100
H -10.861800 -15.991300 -22.956100
C -10.602400 -15.154800 -22.494300
C -9.091400 -15.064500 -22.402800
H -8.833200 -14.204100 -21.986400
H -8.746800 -15.797800 -21.833500
O -8.592500 -17.461800 -23.786400
N -8.501400 -15.162100 -23.750900
C -8.323800 -16.415900 -24.308100
N -8.263500 -13.949500 -24.354300
N -7.753000 -13.906200 -25.526400
N -7.742500 -16.310800 -25.576800
C -7.462300 -15.089800 -26.162800
H -7.432000 -18.225800 -26.275100
C -7.342500 -17.294500 -26.438600
C -6.885800 -15.404400 -27.373400
N -6.818900 -16.774100 -27.519700
C -6.386600 -14.515300 -28.429100
O -6.348000 -13.297500 -28.345300
N -5.968800 -15.211300 -29.547200
H -5.966300 -16.051700 -29.571600
C -5.362800 -14.587900 -30.564200
N -4.810900 -14.099500 -31.441000
48
Fragment
N -16.647900 -12.765300 -10.659800
C -16.095900 -12.276900 -11.536600
H -15.492500 -10.813100 -12.529200
N -15.490000 -11.653500 -12.553600
O -15.110800 -13.567300 -13.755400
C -15.072200 -12.349500 -13.671700
N -14.639900 -10.090700 -14.581000
C -14.573000 -11.460400 -14.727400
C -14.116300 -9.570300 -15.662200
H -14.026800 -8.639000 -15.825700
C -13.996500 -11.775000 -15.937900
N -13.716300 -10.554000 -16.524000
N -13.705800 -12.958600 -16.574400
N -13.195200 -12.915300 -17.746500
C -13.135000 -10.448900 -17.792600
N -12.957400 -11.702700 -18.349900
O -12.866300 -9.403000 -18.314400
H -12.712000 -11.067000 -20.267300
H -12.625600 -12.660700 -20.114300
C -12.367300 -11.800300 -19.698000
C -10.856300 -11.710000 -19.606500
H -10.596900 -10.873500 -19.144600
H -10.504200 -12.474700 -19.085700
Cl -10.172700 -11.731900 -21.258600
Cl -11.286100 -15.132900 -20.842100
H -10.954600 -14.390100 -23.015100
H -10.861800 -15.991300 -22.956100
C -10.602400 -15.154800 -22.494300
C -9.091400 -15.064500 -22.402800
H -8.833200 -14.204100 -21.986400
H -8.746800 -15.797800 -21.833500
O -8.592500 -17.461800 -23.786400
N -8.501400 -15.162100 -23.750900
C -8.323800 -16.415900 -24.308100
N -8.263500 -13.949500 -24.354300
N -7.753000 -13.906200 -25.526400
N -7.742500 -16.310800 -25.576800
C -7.462300 -15.089800 -26.162800
H -7.432000 -18.225800 -26.275100
C -7.342500 -17.294500 -26.438600
C -6.885800 -15.404400 -27.373400
N -6.818900 -16.774100 -27.519700
C -6.386600 -14.515300 -28.429100
O -6.348000 -13.297500 -28.345300
N -5.968800 -15.211300 -29.547200
H -5.966300 -16.051700 -29.571600
C -5.362800 -14.587900 -30.564200
N -4.810900 -14.099500 -31.441000
