22
Fragment
O -22.409600 -19.814500 -12.364700
N -21.562300 -17.109500 -12.383200
C -21.432600 -19.499400 -11.717100
H -21.234900 -15.126000 -12.391900
C -21.038600 -15.968400 -11.999400
C -21.019800 -18.087100 -11.578400
H -20.900200 -21.164300 -11.305700
O -20.659300 -20.341100 -11.064300
N -20.174100 -16.156600 -10.960300
C -20.138300 -17.515200 -10.691500
C -19.331900 -15.247000 -10.323200
N -19.326700 -18.023700 -9.709900
O -19.312800 -14.067100 -10.570100
N -18.547700 -17.239600 -9.090300
N -18.522700 -15.888700 -9.414600
H -17.733300 -14.196300 -8.650900
C -17.456000 -15.142200 -8.745800
H -17.321900 -15.511500 -7.837200
H -16.291100 -14.896900 -10.434100
C -16.143900 -15.201600 -9.503700
H -15.494700 -14.585200 -9.080700
Cl -15.457400 -16.855200 -9.526900
22
Fragment
O -21.947300 -8.120000 -16.128300
N -21.100000 -10.825000 -16.146700
C -20.970300 -8.435100 -15.480700
H -20.772600 -12.808500 -16.155500
C -20.576300 -11.966100 -15.763000
C -20.557500 -9.847400 -15.342000
H -20.437800 -6.770200 -15.069300
O -20.196900 -7.593400 -14.827900
N -19.711800 -11.777900 -14.723900
C -19.676000 -10.419300 -14.455000
C -18.869600 -12.687500 -14.086800
N -18.864400 -9.910800 -13.473500
O -18.850500 -13.867400 -14.333700
N -18.085300 -10.694900 -12.853800
N -18.060400 -12.045800 -13.178100
H -17.271000 -13.738200 -12.414500
C -16.993700 -12.792300 -12.509400
H -16.859600 -12.423000 -11.600800
H -15.828800 -13.037600 -14.197700
C -15.681600 -12.732900 -13.267300
H -15.032400 -13.349300 -12.844300
Cl -14.995100 -11.079300 -13.290400
44
Fragment
O -22.409600 -19.814500 -12.364700
N -21.562300 -17.109500 -12.383200
C -21.432600 -19.499400 -11.717100
H -21.234900 -15.126000 -12.391900
C -21.038600 -15.968400 -11.999400
C -21.019800 -18.087100 -11.578400
H -20.900200 -21.164300 -11.305700
O -20.659300 -20.341100 -11.064300
N -20.174100 -16.156600 -10.960300
C -20.138300 -17.515200 -10.691500
C -19.331900 -15.247000 -10.323200
N -19.326700 -18.023700 -9.709900
O -19.312800 -14.067100 -10.570100
N -18.547700 -17.239600 -9.090300
N -18.522700 -15.888700 -9.414600
H -17.733300 -14.196300 -8.650900
C -17.456000 -15.142200 -8.745800
H -17.321900 -15.511500 -7.837200
H -16.291100 -14.896900 -10.434100
C -16.143900 -15.201600 -9.503700
H -15.494700 -14.585200 -9.080700
Cl -15.457400 -16.855200 -9.526900
O -21.947300 -8.120000 -16.128300
N -21.100000 -10.825000 -16.146700
C -20.970300 -8.435100 -15.480700
H -20.772600 -12.808500 -16.155500
C -20.576300 -11.966100 -15.763000
C -20.557500 -9.847400 -15.342000
H -20.437800 -6.770200 -15.069300
O -20.196900 -7.593400 -14.827900
N -19.711800 -11.777900 -14.723900
C -19.676000 -10.419300 -14.455000
C -18.869600 -12.687500 -14.086800
N -18.864400 -9.910800 -13.473500
O -18.850500 -13.867400 -14.333700
N -18.085300 -10.694900 -12.853800
N -18.060400 -12.045800 -13.178100
H -17.271000 -13.738200 -12.414500
C -16.993700 -12.792300 -12.509400
H -16.859600 -12.423000 -11.600800
H -15.828800 -13.037600 -14.197700
C -15.681600 -12.732900 -13.267300
H -15.032400 -13.349300 -12.844300
Cl -14.995100 -11.079300 -13.290400
