24
Fragment
N -16.647900 -12.765300 -10.659800
C -16.095900 -12.276900 -11.536600
H -15.492500 -10.813100 -12.529200
N -15.490000 -11.653500 -12.553600
O -15.110800 -13.567300 -13.755400
C -15.072200 -12.349500 -13.671700
N -14.639900 -10.090700 -14.581000
C -14.573000 -11.460400 -14.727400
C -14.116300 -9.570300 -15.662200
H -14.026800 -8.639000 -15.825700
C -13.996500 -11.775000 -15.937900
N -13.716300 -10.554000 -16.524000
N -13.705800 -12.958600 -16.574400
N -13.195200 -12.915300 -17.746500
C -13.135000 -10.448900 -17.792600
N -12.957400 -11.702700 -18.349900
O -12.866300 -9.403000 -18.314400
H -12.712000 -11.067000 -20.267300
H -12.625600 -12.660700 -20.114300
C -12.367300 -11.800300 -19.698000
C -10.856300 -11.710000 -19.606500
H -10.596900 -10.873500 -19.144600
H -10.504200 -12.474700 -19.085700
Cl -10.172700 -11.731900 -21.258600
24
Fragment
N -11.747400 -12.765300 -24.693400
C -11.195500 -12.276900 -25.570200
H -10.592000 -10.813100 -26.562800
N -10.589500 -11.653500 -26.587200
O -10.210300 -13.567300 -27.789000
C -10.171700 -12.349500 -27.705300
N -9.739400 -10.090700 -28.614600
C -9.672500 -11.460400 -28.761000
C -9.215800 -9.570300 -29.695800
H -9.126300 -8.639000 -29.859300
C -9.096000 -11.775000 -29.971500
N -8.815800 -10.554000 -30.557600
N -8.805300 -12.958600 -30.608000
N -8.294800 -12.915300 -31.780000
C -8.234500 -10.448900 -31.826200
N -8.056900 -11.702700 -32.383500
O -7.965800 -9.403000 -32.348000
H -7.811500 -11.067000 -34.300900
H -7.725100 -12.660700 -34.147900
C -7.466900 -11.800300 -33.731600
C -5.955900 -11.710000 -33.640100
H -5.696500 -10.873500 -33.178200
H -5.603700 -12.474700 -33.119300
Cl -5.272200 -11.731900 -35.292200
48
Fragment
N -16.647900 -12.765300 -10.659800
C -16.095900 -12.276900 -11.536600
H -15.492500 -10.813100 -12.529200
N -15.490000 -11.653500 -12.553600
O -15.110800 -13.567300 -13.755400
C -15.072200 -12.349500 -13.671700
N -14.639900 -10.090700 -14.581000
C -14.573000 -11.460400 -14.727400
C -14.116300 -9.570300 -15.662200
H -14.026800 -8.639000 -15.825700
C -13.996500 -11.775000 -15.937900
N -13.716300 -10.554000 -16.524000
N -13.705800 -12.958600 -16.574400
N -13.195200 -12.915300 -17.746500
C -13.135000 -10.448900 -17.792600
N -12.957400 -11.702700 -18.349900
O -12.866300 -9.403000 -18.314400
H -12.712000 -11.067000 -20.267300
H -12.625600 -12.660700 -20.114300
C -12.367300 -11.800300 -19.698000
C -10.856300 -11.710000 -19.606500
H -10.596900 -10.873500 -19.144600
H -10.504200 -12.474700 -19.085700
Cl -10.172700 -11.731900 -21.258600
N -11.747400 -12.765300 -24.693400
C -11.195500 -12.276900 -25.570200
H -10.592000 -10.813100 -26.562800
N -10.589500 -11.653500 -26.587200
O -10.210300 -13.567300 -27.789000
C -10.171700 -12.349500 -27.705300
N -9.739400 -10.090700 -28.614600
C -9.672500 -11.460400 -28.761000
C -9.215800 -9.570300 -29.695800
H -9.126300 -8.639000 -29.859300
C -9.096000 -11.775000 -29.971500
N -8.815800 -10.554000 -30.557600
N -8.805300 -12.958600 -30.608000
N -8.294800 -12.915300 -31.780000
C -8.234500 -10.448900 -31.826200
N -8.056900 -11.702700 -32.383500
O -7.965800 -9.403000 -32.348000
H -7.811500 -11.067000 -34.300900
H -7.725100 -12.660700 -34.147900
C -7.466900 -11.800300 -33.731600
C -5.955900 -11.710000 -33.640100
H -5.696500 -10.873500 -33.178200
H -5.603700 -12.474700 -33.119300
Cl -5.272200 -11.731900 -35.292200
