24
Fragment
N -16.647900 -12.765300 -10.659800
C -16.095900 -12.276900 -11.536600
H -15.492500 -10.813100 -12.529200
N -15.490000 -11.653500 -12.553600
O -15.110800 -13.567300 -13.755400
C -15.072200 -12.349500 -13.671700
N -14.639900 -10.090700 -14.581000
C -14.573000 -11.460400 -14.727400
C -14.116300 -9.570300 -15.662200
H -14.026800 -8.639000 -15.825700
C -13.996500 -11.775000 -15.937900
N -13.716300 -10.554000 -16.524000
N -13.705800 -12.958600 -16.574400
N -13.195200 -12.915300 -17.746500
C -13.135000 -10.448900 -17.792600
N -12.957400 -11.702700 -18.349900
O -12.866300 -9.403000 -18.314400
H -12.712000 -11.067000 -20.267300
H -12.625600 -12.660700 -20.114300
C -12.367300 -11.800300 -19.698000
C -10.856300 -11.710000 -19.606500
H -10.596900 -10.873500 -19.144600
H -10.504200 -12.474700 -19.085700
Cl -10.172700 -11.731900 -21.258600
24
Fragment
N -21.548400 -12.765300 3.373800
C -20.996400 -12.276900 2.497000
H -20.393000 -10.813100 1.504400
N -20.390400 -11.653500 1.480000
O -20.011300 -13.567300 0.278100
C -19.972700 -12.349500 0.361900
N -19.540400 -10.090700 -0.547500
C -19.473500 -11.460400 -0.693800
C -19.016700 -9.570300 -1.628600
H -18.927200 -8.639000 -1.792100
C -18.897000 -11.775000 -1.904400
N -18.616700 -10.554000 -2.490400
N -18.606300 -12.958600 -2.540800
N -18.095700 -12.915300 -3.712900
C -18.035500 -10.448900 -3.759000
N -17.857900 -11.702700 -4.316300
O -17.766700 -9.403000 -4.280800
H -17.612500 -11.067000 -6.233700
H -17.526100 -12.660700 -6.080800
C -17.267800 -11.800300 -5.664400
C -15.756800 -11.710000 -5.572900
H -15.497400 -10.873500 -5.111000
H -15.404700 -12.474700 -5.052100
Cl -15.073200 -11.731900 -7.225100
48
Fragment
N -16.647900 -12.765300 -10.659800
C -16.095900 -12.276900 -11.536600
H -15.492500 -10.813100 -12.529200
N -15.490000 -11.653500 -12.553600
O -15.110800 -13.567300 -13.755400
C -15.072200 -12.349500 -13.671700
N -14.639900 -10.090700 -14.581000
C -14.573000 -11.460400 -14.727400
C -14.116300 -9.570300 -15.662200
H -14.026800 -8.639000 -15.825700
C -13.996500 -11.775000 -15.937900
N -13.716300 -10.554000 -16.524000
N -13.705800 -12.958600 -16.574400
N -13.195200 -12.915300 -17.746500
C -13.135000 -10.448900 -17.792600
N -12.957400 -11.702700 -18.349900
O -12.866300 -9.403000 -18.314400
H -12.712000 -11.067000 -20.267300
H -12.625600 -12.660700 -20.114300
C -12.367300 -11.800300 -19.698000
C -10.856300 -11.710000 -19.606500
H -10.596900 -10.873500 -19.144600
H -10.504200 -12.474700 -19.085700
Cl -10.172700 -11.731900 -21.258600
N -21.548400 -12.765300 3.373800
C -20.996400 -12.276900 2.497000
H -20.393000 -10.813100 1.504400
N -20.390400 -11.653500 1.480000
O -20.011300 -13.567300 0.278100
C -19.972700 -12.349500 0.361900
N -19.540400 -10.090700 -0.547500
C -19.473500 -11.460400 -0.693800
C -19.016700 -9.570300 -1.628600
H -18.927200 -8.639000 -1.792100
C -18.897000 -11.775000 -1.904400
N -18.616700 -10.554000 -2.490400
N -18.606300 -12.958600 -2.540800
N -18.095700 -12.915300 -3.712900
C -18.035500 -10.448900 -3.759000
N -17.857900 -11.702700 -4.316300
O -17.766700 -9.403000 -4.280800
H -17.612500 -11.067000 -6.233700
H -17.526100 -12.660700 -6.080800
C -17.267800 -11.800300 -5.664400
C -15.756800 -11.710000 -5.572900
H -15.497400 -10.873500 -5.111000
H -15.404700 -12.474700 -5.052100
Cl -15.073200 -11.731900 -7.225100
