22
Fragment
O -22.409600 -19.814500 -12.364700
N -21.562300 -17.109500 -12.383200
C -21.432600 -19.499400 -11.717100
H -21.234900 -15.126000 -12.391900
C -21.038600 -15.968400 -11.999400
C -21.019800 -18.087100 -11.578400
H -20.900200 -21.164300 -11.305700
O -20.659300 -20.341100 -11.064300
N -20.174100 -16.156600 -10.960300
C -20.138300 -17.515200 -10.691500
C -19.331900 -15.247000 -10.323200
N -19.326700 -18.023700 -9.709900
O -19.312800 -14.067100 -10.570100
N -18.547700 -17.239600 -9.090300
N -18.522700 -15.888700 -9.414600
H -17.733300 -14.196300 -8.650900
C -17.456000 -15.142200 -8.745800
H -17.321900 -15.511500 -7.837200
H -16.291100 -14.896900 -10.434100
C -16.143900 -15.201600 -9.503700
H -15.494700 -14.585200 -9.080700
Cl -15.457400 -16.855200 -9.526900
3
Fragment
H -22.221100 -16.248900 -8.701400
H -21.656700 -15.666800 -7.677700
O -21.580900 -16.307200 -8.170500
25
Fragment
O -22.409600 -19.814500 -12.364700
N -21.562300 -17.109500 -12.383200
C -21.432600 -19.499400 -11.717100
H -21.234900 -15.126000 -12.391900
C -21.038600 -15.968400 -11.999400
C -21.019800 -18.087100 -11.578400
H -20.900200 -21.164300 -11.305700
O -20.659300 -20.341100 -11.064300
N -20.174100 -16.156600 -10.960300
C -20.138300 -17.515200 -10.691500
C -19.331900 -15.247000 -10.323200
N -19.326700 -18.023700 -9.709900
O -19.312800 -14.067100 -10.570100
N -18.547700 -17.239600 -9.090300
N -18.522700 -15.888700 -9.414600
H -17.733300 -14.196300 -8.650900
C -17.456000 -15.142200 -8.745800
H -17.321900 -15.511500 -7.837200
H -16.291100 -14.896900 -10.434100
C -16.143900 -15.201600 -9.503700
H -15.494700 -14.585200 -9.080700
Cl -15.457400 -16.855200 -9.526900
H -22.221100 -16.248900 -8.701400
H -21.656700 -15.666800 -7.677700
O -21.580900 -16.307200 -8.170500
