24
Fragment
N -16.647900 -12.765300 -10.659800
C -16.095900 -12.276900 -11.536600
H -15.492500 -10.813100 -12.529200
N -15.490000 -11.653500 -12.553600
O -15.110800 -13.567300 -13.755400
C -15.072200 -12.349500 -13.671700
N -14.639900 -10.090700 -14.581000
C -14.573000 -11.460400 -14.727400
C -14.116300 -9.570300 -15.662200
H -14.026800 -8.639000 -15.825700
C -13.996500 -11.775000 -15.937900
N -13.716300 -10.554000 -16.524000
N -13.705800 -12.958600 -16.574400
N -13.195200 -12.915300 -17.746500
C -13.135000 -10.448900 -17.792600
N -12.957400 -11.702700 -18.349900
O -12.866300 -9.403000 -18.314400
H -12.712000 -11.067000 -20.267300
H -12.625600 -12.660700 -20.114300
C -12.367300 -11.800300 -19.698000
C -10.856300 -11.710000 -19.606500
H -10.596900 -10.873500 -19.144600
H -10.504200 -12.474700 -19.085700
Cl -10.172700 -11.731900 -21.258600
24
Fragment
N -16.647900 -19.481500 -10.659800
C -16.095900 -18.993100 -11.536600
H -15.492500 -17.529300 -12.529200
N -15.490000 -18.369700 -12.553600
O -15.110800 -20.283500 -13.755400
C -15.072200 -19.065700 -13.671700
N -14.639900 -16.806900 -14.581000
C -14.573000 -18.176600 -14.727400
C -14.116300 -16.286500 -15.662200
H -14.026800 -15.355200 -15.825700
C -13.996500 -18.491200 -15.937900
N -13.716300 -17.270200 -16.524000
N -13.705800 -19.674800 -16.574400
N -13.195200 -19.631500 -17.746500
C -13.135000 -17.165100 -17.792600
N -12.957400 -18.418900 -18.349900
O -12.866300 -16.119200 -18.314400
H -12.712000 -17.783200 -20.267300
H -12.625600 -19.376900 -20.114300
C -12.367300 -18.516500 -19.698000
C -10.856300 -18.426200 -19.606500
H -10.596900 -17.589700 -19.144600
H -10.504200 -19.190900 -19.085700
Cl -10.172700 -18.448100 -21.258600
48
Fragment
N -16.647900 -12.765300 -10.659800
C -16.095900 -12.276900 -11.536600
H -15.492500 -10.813100 -12.529200
N -15.490000 -11.653500 -12.553600
O -15.110800 -13.567300 -13.755400
C -15.072200 -12.349500 -13.671700
N -14.639900 -10.090700 -14.581000
C -14.573000 -11.460400 -14.727400
C -14.116300 -9.570300 -15.662200
H -14.026800 -8.639000 -15.825700
C -13.996500 -11.775000 -15.937900
N -13.716300 -10.554000 -16.524000
N -13.705800 -12.958600 -16.574400
N -13.195200 -12.915300 -17.746500
C -13.135000 -10.448900 -17.792600
N -12.957400 -11.702700 -18.349900
O -12.866300 -9.403000 -18.314400
H -12.712000 -11.067000 -20.267300
H -12.625600 -12.660700 -20.114300
C -12.367300 -11.800300 -19.698000
C -10.856300 -11.710000 -19.606500
H -10.596900 -10.873500 -19.144600
H -10.504200 -12.474700 -19.085700
Cl -10.172700 -11.731900 -21.258600
N -16.647900 -19.481500 -10.659800
C -16.095900 -18.993100 -11.536600
H -15.492500 -17.529300 -12.529200
N -15.490000 -18.369700 -12.553600
O -15.110800 -20.283500 -13.755400
C -15.072200 -19.065700 -13.671700
N -14.639900 -16.806900 -14.581000
C -14.573000 -18.176600 -14.727400
C -14.116300 -16.286500 -15.662200
H -14.026800 -15.355200 -15.825700
C -13.996500 -18.491200 -15.937900
N -13.716300 -17.270200 -16.524000
N -13.705800 -19.674800 -16.574400
N -13.195200 -19.631500 -17.746500
C -13.135000 -17.165100 -17.792600
N -12.957400 -18.418900 -18.349900
O -12.866300 -16.119200 -18.314400
H -12.712000 -17.783200 -20.267300
H -12.625600 -19.376900 -20.114300
C -12.367300 -18.516500 -19.698000
C -10.856300 -18.426200 -19.606500
H -10.596900 -17.589700 -19.144600
H -10.504200 -19.190900 -19.085700
Cl -10.172700 -18.448100 -21.258600
