24
Fragment
N -16.647900 -12.765300 -10.659800
C -16.095900 -12.276900 -11.536600
H -15.492500 -10.813100 -12.529200
N -15.490000 -11.653500 -12.553600
O -15.110800 -13.567300 -13.755400
C -15.072200 -12.349500 -13.671700
N -14.639900 -10.090700 -14.581000
C -14.573000 -11.460400 -14.727400
C -14.116300 -9.570300 -15.662200
H -14.026800 -8.639000 -15.825700
C -13.996500 -11.775000 -15.937900
N -13.716300 -10.554000 -16.524000
N -13.705800 -12.958600 -16.574400
N -13.195200 -12.915300 -17.746500
C -13.135000 -10.448900 -17.792600
N -12.957400 -11.702700 -18.349900
O -12.866300 -9.403000 -18.314400
H -12.712000 -11.067000 -20.267300
H -12.625600 -12.660700 -20.114300
C -12.367300 -11.800300 -19.698000
C -10.856300 -11.710000 -19.606500
H -10.596900 -10.873500 -19.144600
H -10.504200 -12.474700 -19.085700
Cl -10.172700 -11.731900 -21.258600
24
Fragment
Cl -19.763000 -8.373800 -13.825300
H -19.431500 -9.116600 -15.998300
H -19.338800 -7.515400 -15.939400
C -19.079400 -8.351900 -15.477500
C -17.568400 -8.442200 -15.386000
H -17.310100 -9.302600 -14.969600
H -17.223700 -7.708900 -14.816700
O -17.069500 -6.044900 -16.769600
N -16.978300 -8.344600 -16.734100
C -16.800700 -7.090800 -17.291300
N -16.740500 -9.557200 -17.337500
N -16.229900 -9.600500 -18.509600
N -16.219500 -7.195900 -18.560000
C -15.939200 -8.416900 -19.146000
H -15.909000 -5.280900 -19.258300
C -15.819400 -6.212200 -19.421800
C -15.362700 -8.102300 -20.356600
N -15.295800 -6.732600 -20.502900
C -14.863500 -8.991400 -21.412300
O -14.824900 -10.209200 -21.328500
N -14.445700 -8.295400 -22.530400
H -14.443200 -7.455000 -22.554800
C -13.839800 -8.918800 -23.547400
N -13.287800 -9.407200 -24.424200
48
Fragment
N -16.647900 -12.765300 -10.659800
C -16.095900 -12.276900 -11.536600
H -15.492500 -10.813100 -12.529200
N -15.490000 -11.653500 -12.553600
O -15.110800 -13.567300 -13.755400
C -15.072200 -12.349500 -13.671700
N -14.639900 -10.090700 -14.581000
C -14.573000 -11.460400 -14.727400
C -14.116300 -9.570300 -15.662200
H -14.026800 -8.639000 -15.825700
C -13.996500 -11.775000 -15.937900
N -13.716300 -10.554000 -16.524000
N -13.705800 -12.958600 -16.574400
N -13.195200 -12.915300 -17.746500
C -13.135000 -10.448900 -17.792600
N -12.957400 -11.702700 -18.349900
O -12.866300 -9.403000 -18.314400
H -12.712000 -11.067000 -20.267300
H -12.625600 -12.660700 -20.114300
C -12.367300 -11.800300 -19.698000
C -10.856300 -11.710000 -19.606500
H -10.596900 -10.873500 -19.144600
H -10.504200 -12.474700 -19.085700
Cl -10.172700 -11.731900 -21.258600
Cl -19.763000 -8.373800 -13.825300
H -19.431500 -9.116600 -15.998300
H -19.338800 -7.515400 -15.939400
C -19.079400 -8.351900 -15.477500
C -17.568400 -8.442200 -15.386000
H -17.310100 -9.302600 -14.969600
H -17.223700 -7.708900 -14.816700
O -17.069500 -6.044900 -16.769600
N -16.978300 -8.344600 -16.734100
C -16.800700 -7.090800 -17.291300
N -16.740500 -9.557200 -17.337500
N -16.229900 -9.600500 -18.509600
N -16.219500 -7.195900 -18.560000
C -15.939200 -8.416900 -19.146000
H -15.909000 -5.280900 -19.258300
C -15.819400 -6.212200 -19.421800
C -15.362700 -8.102300 -20.356600
N -15.295800 -6.732600 -20.502900
C -14.863500 -8.991400 -21.412300
O -14.824900 -10.209200 -21.328500
N -14.445700 -8.295400 -22.530400
H -14.443200 -7.455000 -22.554800
C -13.839800 -8.918800 -23.547400
N -13.287800 -9.407200 -24.424200
