16
Fragment
H -13.813600 -17.387100 -24.873600
H -13.476900 -15.319800 -23.836100
C -13.386900 -17.341600 -24.025400
C -13.189200 -16.116900 -23.408100
H -13.088800 -19.335200 -23.822200
C -12.959800 -18.493800 -23.400900
C -12.571000 -16.048800 -22.165600
H -12.437300 -15.206000 -21.748600
C -12.345300 -18.432400 -22.163200
C -12.150000 -17.207100 -21.534500
H -12.054400 -19.232100 -21.740300
H -11.759600 -18.946900 -19.754000
C -11.467900 -17.096900 -20.205000
N -11.403600 -18.197300 -19.461400
H -11.004700 -18.175700 -18.677700
O -10.977600 -16.018600 -19.828500
21
Fragment
H -14.440500 -11.254900 -28.765900
H -13.659200 -12.497400 -28.127300
O -13.570500 -8.849900 -28.571700
C -13.567700 -11.579600 -28.459400
H -13.428600 -6.724000 -26.654900
C -13.114700 -9.350800 -27.556800
N -13.077800 -10.716200 -27.380000
H -12.931900 -11.562800 -29.205000
N -12.602500 -8.558600 -26.524800
C -12.563800 -11.238000 -26.214700
C -12.544100 -7.121300 -26.801500
N -12.435000 -12.552000 -25.900800
H -12.272300 -6.978400 -27.732600
C -12.113400 -10.419400 -25.209200
C -12.086700 -9.015800 -25.311300
C -11.903900 -12.506400 -24.669300
H -11.893500 -6.699900 -26.202000
N -11.698200 -11.277200 -24.210300
H -11.693300 -13.286000 -24.168500
O -11.662900 -8.220100 -24.460100
H -11.364000 -11.054000 -23.427400
37
Fragment
H -13.813600 -17.387100 -24.873600
H -13.476900 -15.319800 -23.836100
C -13.386900 -17.341600 -24.025400
C -13.189200 -16.116900 -23.408100
H -13.088800 -19.335200 -23.822200
C -12.959800 -18.493800 -23.400900
C -12.571000 -16.048800 -22.165600
H -12.437300 -15.206000 -21.748600
C -12.345300 -18.432400 -22.163200
C -12.150000 -17.207100 -21.534500
H -12.054400 -19.232100 -21.740300
H -11.759600 -18.946900 -19.754000
C -11.467900 -17.096900 -20.205000
N -11.403600 -18.197300 -19.461400
H -11.004700 -18.175700 -18.677700
O -10.977600 -16.018600 -19.828500
H -14.440500 -11.254900 -28.765900
H -13.659200 -12.497400 -28.127300
O -13.570500 -8.849900 -28.571700
C -13.567700 -11.579600 -28.459400
H -13.428600 -6.724000 -26.654900
C -13.114700 -9.350800 -27.556800
N -13.077800 -10.716200 -27.380000
H -12.931900 -11.562800 -29.205000
N -12.602500 -8.558600 -26.524800
C -12.563800 -11.238000 -26.214700
C -12.544100 -7.121300 -26.801500
N -12.435000 -12.552000 -25.900800
H -12.272300 -6.978400 -27.732600
C -12.113400 -10.419400 -25.209200
C -12.086700 -9.015800 -25.311300
C -11.903900 -12.506400 -24.669300
H -11.893500 -6.699900 -26.202000
N -11.698200 -11.277200 -24.210300
H -11.693300 -13.286000 -24.168500
O -11.662900 -8.220100 -24.460100
H -11.364000 -11.054000 -23.427400
