21
Fragment
H -9.742600 -11.692800 -14.259100
O -9.673400 -13.080100 -17.403200
H -9.651600 -13.054700 -15.094100
C -9.162500 -12.252800 -14.815800
C -9.062700 -12.023900 -17.271600
H -9.044100 -11.972300 -20.129400
N -8.744500 -11.494500 -16.007000
N -8.645600 -11.327200 -19.682800
C -8.563800 -11.206400 -18.314300
H -8.370700 -12.514800 -14.301100
C -8.008700 -10.338600 -15.758200
C -8.005600 -10.280700 -20.200100
H -7.925300 -10.124300 -21.133500
C -7.844300 -10.069300 -18.107600
O -7.778100 -9.982700 -14.601000
N -7.539100 -9.630200 -16.833100
N -7.483400 -9.463000 -19.259400
H -7.195600 -7.645400 -16.825000
C -6.688600 -8.458800 -16.619200
H -6.396100 -8.434100 -15.684800
H -5.905400 -8.512800 -17.205400
21
Fragment
H -7.791200 -14.490500 -9.644500
H -7.300600 -14.569100 -11.165100
C -7.008100 -14.544500 -10.230700
H -6.501100 -15.357900 -10.024900
N -6.213300 -13.540200 -7.590500
N -6.157500 -13.373000 -10.016800
O -5.918600 -13.020600 -12.248900
C -5.852300 -12.933900 -8.742300
H -5.771400 -12.878900 -5.716300
C -5.691000 -12.722600 -6.649800
C -5.687900 -12.664700 -11.091700
H -5.325900 -10.488400 -12.548700
C -5.132900 -11.796800 -8.535600
N -5.051100 -11.676100 -7.167100
N -4.952200 -11.508800 -10.842900
H -4.652600 -11.030900 -6.720500
C -4.633900 -10.979400 -9.578300
C -4.534100 -10.750500 -12.034100
H -4.045000 -9.948600 -11.755800
O -4.023300 -9.923100 -9.446700
H -3.954000 -11.310500 -12.590800
42
Fragment
H -9.742600 -11.692800 -14.259100
O -9.673400 -13.080100 -17.403200
H -9.651600 -13.054700 -15.094100
C -9.162500 -12.252800 -14.815800
C -9.062700 -12.023900 -17.271600
H -9.044100 -11.972300 -20.129400
N -8.744500 -11.494500 -16.007000
N -8.645600 -11.327200 -19.682800
C -8.563800 -11.206400 -18.314300
H -8.370700 -12.514800 -14.301100
C -8.008700 -10.338600 -15.758200
C -8.005600 -10.280700 -20.200100
H -7.925300 -10.124300 -21.133500
C -7.844300 -10.069300 -18.107600
O -7.778100 -9.982700 -14.601000
N -7.539100 -9.630200 -16.833100
N -7.483400 -9.463000 -19.259400
H -7.195600 -7.645400 -16.825000
C -6.688600 -8.458800 -16.619200
H -6.396100 -8.434100 -15.684800
H -5.905400 -8.512800 -17.205400
H -7.791200 -14.490500 -9.644500
H -7.300600 -14.569100 -11.165100
C -7.008100 -14.544500 -10.230700
H -6.501100 -15.357900 -10.024900
N -6.213300 -13.540200 -7.590500
N -6.157500 -13.373000 -10.016800
O -5.918600 -13.020600 -12.248900
C -5.852300 -12.933900 -8.742300
H -5.771400 -12.878900 -5.716300
C -5.691000 -12.722600 -6.649800
C -5.687900 -12.664700 -11.091700
H -5.325900 -10.488400 -12.548700
C -5.132900 -11.796800 -8.535600
N -5.051100 -11.676100 -7.167100
N -4.952200 -11.508800 -10.842900
H -4.652600 -11.030900 -6.720500
C -4.633900 -10.979400 -9.578300
C -4.534100 -10.750500 -12.034100
H -4.045000 -9.948600 -11.755800
O -4.023300 -9.923100 -9.446700
H -3.954000 -11.310500 -12.590800
