21
Fragment
H -9.383400 -20.746300 -34.046100
O -8.875300 -17.777500 -33.629600
N -8.825900 -20.841400 -33.384100
H -8.734200 -22.831000 -33.120300
C -8.431700 -21.989500 -32.829800
C -8.212600 -18.428100 -32.820400
C -8.174700 -19.837200 -32.700300
H -8.169100 -15.965500 -31.645600
N -7.565500 -21.832100 -31.823600
C -7.425400 -20.489400 -31.765400
N -7.372800 -17.792500 -31.899400
C -7.321400 -16.328500 -31.946900
H -7.151400 -16.040300 -32.857500
N -6.642100 -19.793200 -30.866700
H -6.610400 -16.011500 -31.369200
C -6.595600 -18.415000 -30.921400
H -6.252800 -20.363600 -28.984100
O -5.901500 -17.775100 -30.150000
C -5.846000 -20.485900 -29.857200
H -5.809600 -21.432600 -30.068400
H -4.947000 -20.121900 -29.848100
12
Fragment
O -7.517400 -13.294200 -32.171300
H -7.373300 -11.459400 -32.484400
C -7.103400 -12.160500 -31.919100
H -6.525100 -13.024700 -29.301100
N -6.307800 -11.863100 -30.909400
H -6.245500 -9.915700 -31.332500
H -6.185500 -10.225000 -29.780500
C -5.875800 -10.504200 -30.655600
C -5.861100 -12.898100 -29.997300
H -5.740600 -13.728300 -30.484000
H -5.018600 -12.633400 -29.594900
H -4.907300 -10.462400 -30.685000
33
Fragment
H -9.383400 -20.746300 -34.046100
O -8.875300 -17.777500 -33.629600
N -8.825900 -20.841400 -33.384100
H -8.734200 -22.831000 -33.120300
C -8.431700 -21.989500 -32.829800
C -8.212600 -18.428100 -32.820400
C -8.174700 -19.837200 -32.700300
H -8.169100 -15.965500 -31.645600
N -7.565500 -21.832100 -31.823600
C -7.425400 -20.489400 -31.765400
N -7.372800 -17.792500 -31.899400
C -7.321400 -16.328500 -31.946900
H -7.151400 -16.040300 -32.857500
N -6.642100 -19.793200 -30.866700
H -6.610400 -16.011500 -31.369200
C -6.595600 -18.415000 -30.921400
H -6.252800 -20.363600 -28.984100
O -5.901500 -17.775100 -30.150000
C -5.846000 -20.485900 -29.857200
H -5.809600 -21.432600 -30.068400
H -4.947000 -20.121900 -29.848100
O -7.517400 -13.294200 -32.171300
H -7.373300 -11.459400 -32.484400
C -7.103400 -12.160500 -31.919100
H -6.525100 -13.024700 -29.301100
N -6.307800 -11.863100 -30.909400
H -6.245500 -9.915700 -31.332500
H -6.185500 -10.225000 -29.780500
C -5.875800 -10.504200 -30.655600
C -5.861100 -12.898100 -29.997300
H -5.740600 -13.728300 -30.484000
H -5.018600 -12.633400 -29.594900
H -4.907300 -10.462400 -30.685000
