21
Fragment
H -9.742600 -11.692800 -14.259100
O -9.673400 -13.080100 -17.403200
H -9.651600 -13.054700 -15.094100
C -9.162500 -12.252800 -14.815800
C -9.062700 -12.023900 -17.271600
H -9.044100 -11.972300 -20.129400
N -8.744500 -11.494500 -16.007000
N -8.645600 -11.327200 -19.682800
C -8.563800 -11.206400 -18.314300
H -8.370700 -12.514800 -14.301100
C -8.008700 -10.338600 -15.758200
C -8.005600 -10.280700 -20.200100
H -7.925300 -10.124300 -21.133500
C -7.844300 -10.069300 -18.107600
O -7.778100 -9.982700 -14.601000
N -7.539100 -9.630200 -16.833100
N -7.483400 -9.463000 -19.259400
H -7.195600 -7.645400 -16.825000
C -6.688600 -8.458800 -16.619200
H -6.396100 -8.434100 -15.684800
H -5.905400 -8.512800 -17.205400
21
Fragment
H -7.582000 -14.321700 -18.594400
H -7.091300 -14.400400 -20.115000
C -6.798800 -14.375700 -19.180700
H -6.291800 -15.189100 -18.974800
N -6.004000 -13.371400 -16.540400
N -5.948300 -13.204200 -18.966800
O -5.709300 -12.851800 -21.198900
C -5.643100 -12.765100 -17.692300
H -5.562100 -12.710100 -14.666300
C -5.481800 -12.553800 -15.599800
C -5.478700 -12.495900 -20.041700
H -5.116700 -10.319600 -21.498700
C -4.923600 -11.628000 -17.485500
N -4.841800 -11.507300 -16.117100
N -4.742900 -11.340000 -19.792800
H -4.443300 -10.862100 -15.670500
C -4.424700 -10.810600 -18.528200
C -4.324900 -10.581700 -20.984100
H -3.835800 -9.779800 -20.705700
O -3.814100 -9.754300 -18.396600
H -3.744800 -11.141700 -21.540800
42
Fragment
H -9.742600 -11.692800 -14.259100
O -9.673400 -13.080100 -17.403200
H -9.651600 -13.054700 -15.094100
C -9.162500 -12.252800 -14.815800
C -9.062700 -12.023900 -17.271600
H -9.044100 -11.972300 -20.129400
N -8.744500 -11.494500 -16.007000
N -8.645600 -11.327200 -19.682800
C -8.563800 -11.206400 -18.314300
H -8.370700 -12.514800 -14.301100
C -8.008700 -10.338600 -15.758200
C -8.005600 -10.280700 -20.200100
H -7.925300 -10.124300 -21.133500
C -7.844300 -10.069300 -18.107600
O -7.778100 -9.982700 -14.601000
N -7.539100 -9.630200 -16.833100
N -7.483400 -9.463000 -19.259400
H -7.195600 -7.645400 -16.825000
C -6.688600 -8.458800 -16.619200
H -6.396100 -8.434100 -15.684800
H -5.905400 -8.512800 -17.205400
H -7.582000 -14.321700 -18.594400
H -7.091300 -14.400400 -20.115000
C -6.798800 -14.375700 -19.180700
H -6.291800 -15.189100 -18.974800
N -6.004000 -13.371400 -16.540400
N -5.948300 -13.204200 -18.966800
O -5.709300 -12.851800 -21.198900
C -5.643100 -12.765100 -17.692300
H -5.562100 -12.710100 -14.666300
C -5.481800 -12.553800 -15.599800
C -5.478700 -12.495900 -20.041700
H -5.116700 -10.319600 -21.498700
C -4.923600 -11.628000 -17.485500
N -4.841800 -11.507300 -16.117100
N -4.742900 -11.340000 -19.792800
H -4.443300 -10.862100 -15.670500
C -4.424700 -10.810600 -18.528200
C -4.324900 -10.581700 -20.984100
H -3.835800 -9.779800 -20.705700
O -3.814100 -9.754300 -18.396600
H -3.744800 -11.141700 -21.540800
