16
Fragment
H -13.813600 -17.387100 -24.873600
H -13.476900 -15.319800 -23.836100
C -13.386900 -17.341600 -24.025400
C -13.189200 -16.116900 -23.408100
H -13.088800 -19.335200 -23.822200
C -12.959800 -18.493800 -23.400900
C -12.571000 -16.048800 -22.165600
H -12.437300 -15.206000 -21.748600
C -12.345300 -18.432400 -22.163200
C -12.150000 -17.207100 -21.534500
H -12.054400 -19.232100 -21.740300
H -11.759600 -18.946900 -19.754000
C -11.467900 -17.096900 -20.205000
N -11.403600 -18.197300 -19.461400
H -11.004700 -18.175700 -18.677700
O -10.977600 -16.018600 -19.828500
21
Fragment
H -14.620200 -22.217900 -21.840000
H -13.838800 -20.975400 -21.201500
O -13.750200 -24.622800 -21.645800
C -13.747400 -21.893200 -21.533500
H -13.608300 -26.748700 -19.729000
C -13.294300 -24.121900 -20.630900
N -13.257500 -22.756500 -20.454200
H -13.111600 -21.909900 -22.279100
N -12.782100 -24.914200 -19.599000
C -12.743500 -22.234700 -19.288800
C -12.723800 -26.351500 -19.875600
N -12.614600 -20.920700 -18.974900
H -12.452000 -26.494400 -20.806700
C -12.293100 -23.053400 -18.283300
C -12.266400 -24.456900 -18.385400
C -12.083500 -20.966400 -17.743400
H -12.073100 -26.772800 -19.276100
N -11.877900 -22.195500 -17.284500
H -11.873000 -20.186700 -17.242600
O -11.842600 -25.252600 -17.534200
H -11.543700 -22.418700 -16.501600
37
Fragment
H -13.813600 -17.387100 -24.873600
H -13.476900 -15.319800 -23.836100
C -13.386900 -17.341600 -24.025400
C -13.189200 -16.116900 -23.408100
H -13.088800 -19.335200 -23.822200
C -12.959800 -18.493800 -23.400900
C -12.571000 -16.048800 -22.165600
H -12.437300 -15.206000 -21.748600
C -12.345300 -18.432400 -22.163200
C -12.150000 -17.207100 -21.534500
H -12.054400 -19.232100 -21.740300
H -11.759600 -18.946900 -19.754000
C -11.467900 -17.096900 -20.205000
N -11.403600 -18.197300 -19.461400
H -11.004700 -18.175700 -18.677700
O -10.977600 -16.018600 -19.828500
H -14.620200 -22.217900 -21.840000
H -13.838800 -20.975400 -21.201500
O -13.750200 -24.622800 -21.645800
C -13.747400 -21.893200 -21.533500
H -13.608300 -26.748700 -19.729000
C -13.294300 -24.121900 -20.630900
N -13.257500 -22.756500 -20.454200
H -13.111600 -21.909900 -22.279100
N -12.782100 -24.914200 -19.599000
C -12.743500 -22.234700 -19.288800
C -12.723800 -26.351500 -19.875600
N -12.614600 -20.920700 -18.974900
H -12.452000 -26.494400 -20.806700
C -12.293100 -23.053400 -18.283300
C -12.266400 -24.456900 -18.385400
C -12.083500 -20.966400 -17.743400
H -12.073100 -26.772800 -19.276100
N -11.877900 -22.195500 -17.284500
H -11.873000 -20.186700 -17.242600
O -11.842600 -25.252600 -17.534200
H -11.543700 -22.418700 -16.501600
