16
Fragment
H -13.813600 -17.387100 -24.873600
H -13.476900 -15.319800 -23.836100
C -13.386900 -17.341600 -24.025400
C -13.189200 -16.116900 -23.408100
H -13.088800 -19.335200 -23.822200
C -12.959800 -18.493800 -23.400900
C -12.571000 -16.048800 -22.165600
H -12.437300 -15.206000 -21.748600
C -12.345300 -18.432400 -22.163200
C -12.150000 -17.207100 -21.534500
H -12.054400 -19.232100 -21.740300
H -11.759600 -18.946900 -19.754000
C -11.467900 -17.096900 -20.205000
N -11.403600 -18.197300 -19.461400
H -11.004700 -18.175700 -18.677700
O -10.977600 -16.018600 -19.828500
21
Fragment
H -17.488300 -17.748600 -25.053600
O -17.189400 -14.914700 -24.021000
H -17.159000 -19.980600 -24.312600
N -17.154100 -17.971800 -24.270700
H -16.958900 -13.394500 -22.279100
C -16.948500 -19.200900 -23.811800
C -16.765600 -15.710400 -23.169800
C -16.738900 -17.113900 -23.271900
H -16.580000 -13.672900 -20.748500
N -16.417400 -19.246600 -22.580300
C -16.308200 -13.815800 -21.679600
C -16.288500 -17.932600 -22.266400
N -16.249900 -15.253100 -21.956300
H -15.920400 -18.257400 -19.276100
N -15.774500 -17.410800 -21.101000
C -15.737700 -16.045400 -20.924300
H -15.423700 -13.418600 -21.826200
C -15.284600 -18.274100 -20.021700
O -15.281800 -15.544500 -19.909400
H -15.193200 -19.191900 -20.353700
H -14.411800 -17.949400 -19.715200
37
Fragment
H -13.813600 -17.387100 -24.873600
H -13.476900 -15.319800 -23.836100
C -13.386900 -17.341600 -24.025400
C -13.189200 -16.116900 -23.408100
H -13.088800 -19.335200 -23.822200
C -12.959800 -18.493800 -23.400900
C -12.571000 -16.048800 -22.165600
H -12.437300 -15.206000 -21.748600
C -12.345300 -18.432400 -22.163200
C -12.150000 -17.207100 -21.534500
H -12.054400 -19.232100 -21.740300
H -11.759600 -18.946900 -19.754000
C -11.467900 -17.096900 -20.205000
N -11.403600 -18.197300 -19.461400
H -11.004700 -18.175700 -18.677700
O -10.977600 -16.018600 -19.828500
H -17.488300 -17.748600 -25.053600
O -17.189400 -14.914700 -24.021000
H -17.159000 -19.980600 -24.312600
N -17.154100 -17.971800 -24.270700
H -16.958900 -13.394500 -22.279100
C -16.948500 -19.200900 -23.811800
C -16.765600 -15.710400 -23.169800
C -16.738900 -17.113900 -23.271900
H -16.580000 -13.672900 -20.748500
N -16.417400 -19.246600 -22.580300
C -16.308200 -13.815800 -21.679600
C -16.288500 -17.932600 -22.266400
N -16.249900 -15.253100 -21.956300
H -15.920400 -18.257400 -19.276100
N -15.774500 -17.410800 -21.101000
C -15.737700 -16.045400 -20.924300
H -15.423700 -13.418600 -21.826200
C -15.284600 -18.274100 -20.021700
O -15.281800 -15.544500 -19.909400
H -15.193200 -19.191900 -20.353700
H -14.411800 -17.949400 -19.715200
