21
Fragment
H -9.383400 -20.746300 -34.046100
O -8.875300 -17.777500 -33.629600
N -8.825900 -20.841400 -33.384100
H -8.734200 -22.831000 -33.120300
C -8.431700 -21.989500 -32.829800
C -8.212600 -18.428100 -32.820400
C -8.174700 -19.837200 -32.700300
H -8.169100 -15.965500 -31.645600
N -7.565500 -21.832100 -31.823600
C -7.425400 -20.489400 -31.765400
N -7.372800 -17.792500 -31.899400
C -7.321400 -16.328500 -31.946900
H -7.151400 -16.040300 -32.857500
N -6.642100 -19.793200 -30.866700
H -6.610400 -16.011500 -31.369200
C -6.595600 -18.415000 -30.921400
H -6.252800 -20.363600 -28.984100
O -5.901500 -17.775100 -30.150000
C -5.846000 -20.485900 -29.857200
H -5.809600 -21.432600 -30.068400
H -4.947000 -20.121900 -29.848100
21
Fragment
H -13.113600 -27.315500 -37.799600
H -12.251100 -28.626200 -37.579300
C -12.214600 -27.679500 -37.790500
O -12.159200 -24.968700 -37.497700
H -11.807800 -27.557200 -38.663600
C -11.465100 -25.608600 -36.726300
H -11.450200 -23.205100 -36.278500
N -11.418500 -26.986800 -36.781000
H -10.909300 -23.233900 -34.790300
C -10.739300 -23.522100 -35.700800
N -10.687800 -24.986100 -35.748300
C -10.635200 -27.683000 -35.882300
N -10.495100 -29.025700 -35.824100
H -9.891500 -23.159100 -36.002100
C -9.885900 -27.030800 -34.947400
C -9.848000 -25.621700 -34.827400
C -9.629000 -29.183100 -34.817900
H -9.326400 -30.024600 -34.527400
N -9.234800 -28.035000 -34.263600
O -9.185300 -24.971100 -34.018100
H -8.677300 -27.939900 -33.601600
42
Fragment
H -9.383400 -20.746300 -34.046100
O -8.875300 -17.777500 -33.629600
N -8.825900 -20.841400 -33.384100
H -8.734200 -22.831000 -33.120300
C -8.431700 -21.989500 -32.829800
C -8.212600 -18.428100 -32.820400
C -8.174700 -19.837200 -32.700300
H -8.169100 -15.965500 -31.645600
N -7.565500 -21.832100 -31.823600
C -7.425400 -20.489400 -31.765400
N -7.372800 -17.792500 -31.899400
C -7.321400 -16.328500 -31.946900
H -7.151400 -16.040300 -32.857500
N -6.642100 -19.793200 -30.866700
H -6.610400 -16.011500 -31.369200
C -6.595600 -18.415000 -30.921400
H -6.252800 -20.363600 -28.984100
O -5.901500 -17.775100 -30.150000
C -5.846000 -20.485900 -29.857200
H -5.809600 -21.432600 -30.068400
H -4.947000 -20.121900 -29.848100
H -13.113600 -27.315500 -37.799600
H -12.251100 -28.626200 -37.579300
C -12.214600 -27.679500 -37.790500
O -12.159200 -24.968700 -37.497700
H -11.807800 -27.557200 -38.663600
C -11.465100 -25.608600 -36.726300
H -11.450200 -23.205100 -36.278500
N -11.418500 -26.986800 -36.781000
H -10.909300 -23.233900 -34.790300
C -10.739300 -23.522100 -35.700800
N -10.687800 -24.986100 -35.748300
C -10.635200 -27.683000 -35.882300
N -10.495100 -29.025700 -35.824100
H -9.891500 -23.159100 -36.002100
C -9.885900 -27.030800 -34.947400
C -9.848000 -25.621700 -34.827400
C -9.629000 -29.183100 -34.817900
H -9.326400 -30.024600 -34.527400
N -9.234800 -28.035000 -34.263600
O -9.185300 -24.971100 -34.018100
H -8.677300 -27.939900 -33.601600
