21
Fragment
H -9.383400 -20.746300 -34.046100
O -8.875300 -17.777500 -33.629600
N -8.825900 -20.841400 -33.384100
H -8.734200 -22.831000 -33.120300
C -8.431700 -21.989500 -32.829800
C -8.212600 -18.428100 -32.820400
C -8.174700 -19.837200 -32.700300
H -8.169100 -15.965500 -31.645600
N -7.565500 -21.832100 -31.823600
C -7.425400 -20.489400 -31.765400
N -7.372800 -17.792500 -31.899400
C -7.321400 -16.328500 -31.946900
H -7.151400 -16.040300 -32.857500
N -6.642100 -19.793200 -30.866700
H -6.610400 -16.011500 -31.369200
C -6.595600 -18.415000 -30.921400
H -6.252800 -20.363600 -28.984100
O -5.901500 -17.775100 -30.150000
C -5.846000 -20.485900 -29.857200
H -5.809600 -21.432600 -30.068400
H -4.947000 -20.121900 -29.848100
12
Fragment
H -8.735000 -17.656000 -36.962700
H -8.623700 -19.827000 -38.052800
H -7.901700 -20.921900 -37.163700
C -7.781200 -20.091700 -37.650400
C -7.766600 -17.697800 -36.992100
H -7.456800 -17.418600 -37.867300
H -7.396900 -17.109300 -36.315200
N -7.334600 -19.056700 -36.738300
H -7.117200 -20.218300 -38.346600
C -6.538900 -19.354100 -35.728600
H -6.269000 -18.653000 -35.163300
O -6.124900 -20.487800 -35.476400
33
Fragment
H -9.383400 -20.746300 -34.046100
O -8.875300 -17.777500 -33.629600
N -8.825900 -20.841400 -33.384100
H -8.734200 -22.831000 -33.120300
C -8.431700 -21.989500 -32.829800
C -8.212600 -18.428100 -32.820400
C -8.174700 -19.837200 -32.700300
H -8.169100 -15.965500 -31.645600
N -7.565500 -21.832100 -31.823600
C -7.425400 -20.489400 -31.765400
N -7.372800 -17.792500 -31.899400
C -7.321400 -16.328500 -31.946900
H -7.151400 -16.040300 -32.857500
N -6.642100 -19.793200 -30.866700
H -6.610400 -16.011500 -31.369200
C -6.595600 -18.415000 -30.921400
H -6.252800 -20.363600 -28.984100
O -5.901500 -17.775100 -30.150000
C -5.846000 -20.485900 -29.857200
H -5.809600 -21.432600 -30.068400
H -4.947000 -20.121900 -29.848100
H -8.735000 -17.656000 -36.962700
H -8.623700 -19.827000 -38.052800
H -7.901700 -20.921900 -37.163700
C -7.781200 -20.091700 -37.650400
C -7.766600 -17.697800 -36.992100
H -7.456800 -17.418600 -37.867300
H -7.396900 -17.109300 -36.315200
N -7.334600 -19.056700 -36.738300
H -7.117200 -20.218300 -38.346600
C -6.538900 -19.354100 -35.728600
H -6.269000 -18.653000 -35.163300
O -6.124900 -20.487800 -35.476400
