16
Fragment
H -13.813600 -17.387100 -24.873600
H -13.476900 -15.319800 -23.836100
C -13.386900 -17.341600 -24.025400
C -13.189200 -16.116900 -23.408100
H -13.088800 -19.335200 -23.822200
C -12.959800 -18.493800 -23.400900
C -12.571000 -16.048800 -22.165600
H -12.437300 -15.206000 -21.748600
C -12.345300 -18.432400 -22.163200
C -12.150000 -17.207100 -21.534500
H -12.054400 -19.232100 -21.740300
H -11.759600 -18.946900 -19.754000
C -11.467900 -17.096900 -20.205000
N -11.403600 -18.197300 -19.461400
H -11.004700 -18.175700 -18.677700
O -10.977600 -16.018600 -19.828500
21
Fragment
H -17.308700 -15.724200 -31.979500
O -17.009700 -18.558100 -30.946900
H -16.979400 -13.492200 -31.238400
N -16.974400 -15.501000 -31.196600
H -16.779200 -20.078300 -29.205000
C -16.768800 -14.271800 -30.737700
C -16.586000 -17.762400 -30.095700
C -16.559200 -16.358800 -30.197800
H -16.400400 -19.799800 -27.674400
N -16.237700 -14.226200 -29.506100
C -16.128600 -19.656900 -28.605500
C -16.108800 -15.540200 -29.192300
N -16.070200 -18.219600 -28.882100
H -15.740800 -15.215400 -26.202000
N -15.594800 -16.062000 -28.026900
C -15.558000 -17.427400 -27.850200
H -15.244000 -20.054200 -28.752100
C -15.104900 -15.198600 -26.947600
O -15.102100 -17.928300 -26.835300
H -15.013500 -14.280800 -27.279600
H -14.232200 -15.523300 -26.641100
37
Fragment
H -13.813600 -17.387100 -24.873600
H -13.476900 -15.319800 -23.836100
C -13.386900 -17.341600 -24.025400
C -13.189200 -16.116900 -23.408100
H -13.088800 -19.335200 -23.822200
C -12.959800 -18.493800 -23.400900
C -12.571000 -16.048800 -22.165600
H -12.437300 -15.206000 -21.748600
C -12.345300 -18.432400 -22.163200
C -12.150000 -17.207100 -21.534500
H -12.054400 -19.232100 -21.740300
H -11.759600 -18.946900 -19.754000
C -11.467900 -17.096900 -20.205000
N -11.403600 -18.197300 -19.461400
H -11.004700 -18.175700 -18.677700
O -10.977600 -16.018600 -19.828500
H -17.308700 -15.724200 -31.979500
O -17.009700 -18.558100 -30.946900
H -16.979400 -13.492200 -31.238400
N -16.974400 -15.501000 -31.196600
H -16.779200 -20.078300 -29.205000
C -16.768800 -14.271800 -30.737700
C -16.586000 -17.762400 -30.095700
C -16.559200 -16.358800 -30.197800
H -16.400400 -19.799800 -27.674400
N -16.237700 -14.226200 -29.506100
C -16.128600 -19.656900 -28.605500
C -16.108800 -15.540200 -29.192300
N -16.070200 -18.219600 -28.882100
H -15.740800 -15.215400 -26.202000
N -15.594800 -16.062000 -28.026900
C -15.558000 -17.427400 -27.850200
H -15.244000 -20.054200 -28.752100
C -15.104900 -15.198600 -26.947600
O -15.102100 -17.928300 -26.835300
H -15.013500 -14.280800 -27.279600
H -14.232200 -15.523300 -26.641100
