21
Fragment
H -9.383400 -20.746300 -34.046100
O -8.875300 -17.777500 -33.629600
N -8.825900 -20.841400 -33.384100
H -8.734200 -22.831000 -33.120300
C -8.431700 -21.989500 -32.829800
C -8.212600 -18.428100 -32.820400
C -8.174700 -19.837200 -32.700300
H -8.169100 -15.965500 -31.645600
N -7.565500 -21.832100 -31.823600
C -7.425400 -20.489400 -31.765400
N -7.372800 -17.792500 -31.899400
C -7.321400 -16.328500 -31.946900
H -7.151400 -16.040300 -32.857500
N -6.642100 -19.793200 -30.866700
H -6.610400 -16.011500 -31.369200
C -6.595600 -18.415000 -30.921400
H -6.252800 -20.363600 -28.984100
O -5.901500 -17.775100 -30.150000
C -5.846000 -20.485900 -29.857200
H -5.809600 -21.432600 -30.068400
H -4.947000 -20.121900 -29.848100
21
Fragment
H -13.801700 -20.746300 -34.046100
O -13.293600 -17.777500 -33.629600
N -13.244200 -20.841400 -33.384100
H -13.152500 -22.831000 -33.120300
C -12.850000 -21.989500 -32.829800
C -12.630900 -18.428100 -32.820400
C -12.593000 -19.837200 -32.700300
H -12.587400 -15.965500 -31.645600
N -11.983800 -21.832100 -31.823600
C -11.843700 -20.489400 -31.765400
N -11.791100 -17.792500 -31.899400
C -11.739700 -16.328500 -31.946900
H -11.569700 -16.040300 -32.857500
N -11.060400 -19.793200 -30.866700
H -11.028700 -16.011500 -31.369200
C -11.013900 -18.415000 -30.921400
H -10.671100 -20.363600 -28.984100
O -10.319800 -17.775100 -30.150000
C -10.264300 -20.485900 -29.857200
H -10.227900 -21.432600 -30.068400
H -9.365300 -20.121900 -29.848100
42
Fragment
H -9.383400 -20.746300 -34.046100
O -8.875300 -17.777500 -33.629600
N -8.825900 -20.841400 -33.384100
H -8.734200 -22.831000 -33.120300
C -8.431700 -21.989500 -32.829800
C -8.212600 -18.428100 -32.820400
C -8.174700 -19.837200 -32.700300
H -8.169100 -15.965500 -31.645600
N -7.565500 -21.832100 -31.823600
C -7.425400 -20.489400 -31.765400
N -7.372800 -17.792500 -31.899400
C -7.321400 -16.328500 -31.946900
H -7.151400 -16.040300 -32.857500
N -6.642100 -19.793200 -30.866700
H -6.610400 -16.011500 -31.369200
C -6.595600 -18.415000 -30.921400
H -6.252800 -20.363600 -28.984100
O -5.901500 -17.775100 -30.150000
C -5.846000 -20.485900 -29.857200
H -5.809600 -21.432600 -30.068400
H -4.947000 -20.121900 -29.848100
H -13.801700 -20.746300 -34.046100
O -13.293600 -17.777500 -33.629600
N -13.244200 -20.841400 -33.384100
H -13.152500 -22.831000 -33.120300
C -12.850000 -21.989500 -32.829800
C -12.630900 -18.428100 -32.820400
C -12.593000 -19.837200 -32.700300
H -12.587400 -15.965500 -31.645600
N -11.983800 -21.832100 -31.823600
C -11.843700 -20.489400 -31.765400
N -11.791100 -17.792500 -31.899400
C -11.739700 -16.328500 -31.946900
H -11.569700 -16.040300 -32.857500
N -11.060400 -19.793200 -30.866700
H -11.028700 -16.011500 -31.369200
C -11.013900 -18.415000 -30.921400
H -10.671100 -20.363600 -28.984100
O -10.319800 -17.775100 -30.150000
C -10.264300 -20.485900 -29.857200
H -10.227900 -21.432600 -30.068400
H -9.365300 -20.121900 -29.848100
