21
Fragment
H -9.383400 -20.746300 -34.046100
O -8.875300 -17.777500 -33.629600
N -8.825900 -20.841400 -33.384100
H -8.734200 -22.831000 -33.120300
C -8.431700 -21.989500 -32.829800
C -8.212600 -18.428100 -32.820400
C -8.174700 -19.837200 -32.700300
H -8.169100 -15.965500 -31.645600
N -7.565500 -21.832100 -31.823600
C -7.425400 -20.489400 -31.765400
N -7.372800 -17.792500 -31.899400
C -7.321400 -16.328500 -31.946900
H -7.151400 -16.040300 -32.857500
N -6.642100 -19.793200 -30.866700
H -6.610400 -16.011500 -31.369200
C -6.595600 -18.415000 -30.921400
H -6.252800 -20.363600 -28.984100
O -5.901500 -17.775100 -30.150000
C -5.846000 -20.485900 -29.857200
H -5.809600 -21.432600 -30.068400
H -4.947000 -20.121900 -29.848100
21
Fragment
H -9.271200 -23.039700 -28.135700
H -8.408600 -21.729000 -27.915300
C -8.372100 -22.675700 -28.126600
O -8.316700 -25.386500 -27.833700
H -7.965300 -22.798000 -28.999600
C -7.622600 -24.746600 -27.062400
H -7.607700 -27.150100 -26.614500
N -7.576000 -23.368400 -27.117100
H -7.066800 -27.121300 -25.126300
C -6.896800 -26.833100 -26.036800
N -6.845400 -25.369100 -26.084400
C -6.792800 -22.672200 -26.218300
N -6.652600 -21.329500 -26.160100
H -6.049100 -27.196100 -26.338200
C -6.043500 -23.324400 -25.283400
C -6.005500 -24.733500 -25.163400
C -5.786500 -21.172100 -25.153900
H -5.483900 -20.330600 -24.863400
N -5.392300 -22.320200 -24.599600
O -5.342900 -25.384100 -24.354100
H -4.834800 -22.415300 -23.937600
42
Fragment
H -9.383400 -20.746300 -34.046100
O -8.875300 -17.777500 -33.629600
N -8.825900 -20.841400 -33.384100
H -8.734200 -22.831000 -33.120300
C -8.431700 -21.989500 -32.829800
C -8.212600 -18.428100 -32.820400
C -8.174700 -19.837200 -32.700300
H -8.169100 -15.965500 -31.645600
N -7.565500 -21.832100 -31.823600
C -7.425400 -20.489400 -31.765400
N -7.372800 -17.792500 -31.899400
C -7.321400 -16.328500 -31.946900
H -7.151400 -16.040300 -32.857500
N -6.642100 -19.793200 -30.866700
H -6.610400 -16.011500 -31.369200
C -6.595600 -18.415000 -30.921400
H -6.252800 -20.363600 -28.984100
O -5.901500 -17.775100 -30.150000
C -5.846000 -20.485900 -29.857200
H -5.809600 -21.432600 -30.068400
H -4.947000 -20.121900 -29.848100
H -9.271200 -23.039700 -28.135700
H -8.408600 -21.729000 -27.915300
C -8.372100 -22.675700 -28.126600
O -8.316700 -25.386500 -27.833700
H -7.965300 -22.798000 -28.999600
C -7.622600 -24.746600 -27.062400
H -7.607700 -27.150100 -26.614500
N -7.576000 -23.368400 -27.117100
H -7.066800 -27.121300 -25.126300
C -6.896800 -26.833100 -26.036800
N -6.845400 -25.369100 -26.084400
C -6.792800 -22.672200 -26.218300
N -6.652600 -21.329500 -26.160100
H -6.049100 -27.196100 -26.338200
C -6.043500 -23.324400 -25.283400
C -6.005500 -24.733500 -25.163400
C -5.786500 -21.172100 -25.153900
H -5.483900 -20.330600 -24.863400
N -5.392300 -22.320200 -24.599600
O -5.342900 -25.384100 -24.354100
H -4.834800 -22.415300 -23.937600
