21
Fragment
H -9.383400 -20.746300 -34.046100
O -8.875300 -17.777500 -33.629600
N -8.825900 -20.841400 -33.384100
H -8.734200 -22.831000 -33.120300
C -8.431700 -21.989500 -32.829800
C -8.212600 -18.428100 -32.820400
C -8.174700 -19.837200 -32.700300
H -8.169100 -15.965500 -31.645600
N -7.565500 -21.832100 -31.823600
C -7.425400 -20.489400 -31.765400
N -7.372800 -17.792500 -31.899400
C -7.321400 -16.328500 -31.946900
H -7.151400 -16.040300 -32.857500
N -6.642100 -19.793200 -30.866700
H -6.610400 -16.011500 -31.369200
C -6.595600 -18.415000 -30.921400
H -6.252800 -20.363600 -28.984100
O -5.901500 -17.775100 -30.150000
C -5.846000 -20.485900 -29.857200
H -5.809600 -21.432600 -30.068400
H -4.947000 -20.121900 -29.848100
21
Fragment
H -4.965100 -20.746300 -34.046100
O -4.457000 -17.777500 -33.629600
N -4.407600 -20.841400 -33.384100
H -4.315900 -22.831000 -33.120300
C -4.013400 -21.989500 -32.829800
C -3.794300 -18.428100 -32.820400
C -3.756400 -19.837200 -32.700300
H -3.750800 -15.965500 -31.645600
N -3.147200 -21.832100 -31.823600
C -3.007100 -20.489400 -31.765400
N -2.954500 -17.792500 -31.899400
C -2.903100 -16.328500 -31.946900
H -2.733100 -16.040300 -32.857500
N -2.223800 -19.793200 -30.866700
H -2.192100 -16.011500 -31.369200
C -2.177300 -18.415000 -30.921400
H -1.834500 -20.363600 -28.984100
O -1.483200 -17.775100 -30.150000
C -1.427700 -20.485900 -29.857200
H -1.391300 -21.432600 -30.068400
H -0.528700 -20.121900 -29.848100
42
Fragment
H -9.383400 -20.746300 -34.046100
O -8.875300 -17.777500 -33.629600
N -8.825900 -20.841400 -33.384100
H -8.734200 -22.831000 -33.120300
C -8.431700 -21.989500 -32.829800
C -8.212600 -18.428100 -32.820400
C -8.174700 -19.837200 -32.700300
H -8.169100 -15.965500 -31.645600
N -7.565500 -21.832100 -31.823600
C -7.425400 -20.489400 -31.765400
N -7.372800 -17.792500 -31.899400
C -7.321400 -16.328500 -31.946900
H -7.151400 -16.040300 -32.857500
N -6.642100 -19.793200 -30.866700
H -6.610400 -16.011500 -31.369200
C -6.595600 -18.415000 -30.921400
H -6.252800 -20.363600 -28.984100
O -5.901500 -17.775100 -30.150000
C -5.846000 -20.485900 -29.857200
H -5.809600 -21.432600 -30.068400
H -4.947000 -20.121900 -29.848100
H -4.965100 -20.746300 -34.046100
O -4.457000 -17.777500 -33.629600
N -4.407600 -20.841400 -33.384100
H -4.315900 -22.831000 -33.120300
C -4.013400 -21.989500 -32.829800
C -3.794300 -18.428100 -32.820400
C -3.756400 -19.837200 -32.700300
H -3.750800 -15.965500 -31.645600
N -3.147200 -21.832100 -31.823600
C -3.007100 -20.489400 -31.765400
N -2.954500 -17.792500 -31.899400
C -2.903100 -16.328500 -31.946900
H -2.733100 -16.040300 -32.857500
N -2.223800 -19.793200 -30.866700
H -2.192100 -16.011500 -31.369200
C -2.177300 -18.415000 -30.921400
H -1.834500 -20.363600 -28.984100
O -1.483200 -17.775100 -30.150000
C -1.427700 -20.485900 -29.857200
H -1.391300 -21.432600 -30.068400
H -0.528700 -20.121900 -29.848100
