16
Fragment
H -13.813600 -17.387100 -24.873600
H -13.476900 -15.319800 -23.836100
C -13.386900 -17.341600 -24.025400
C -13.189200 -16.116900 -23.408100
H -13.088800 -19.335200 -23.822200
C -12.959800 -18.493800 -23.400900
C -12.571000 -16.048800 -22.165600
H -12.437300 -15.206000 -21.748600
C -12.345300 -18.432400 -22.163200
C -12.150000 -17.207100 -21.534500
H -12.054400 -19.232100 -21.740300
H -11.759600 -18.946900 -19.754000
C -11.467900 -17.096900 -20.205000
N -11.403600 -18.197300 -19.461400
H -11.004700 -18.175700 -18.677700
O -10.977600 -16.018600 -19.828500
16
Fragment
H -13.633900 -16.085700 -31.799400
H -13.297200 -18.152900 -30.761900
C -13.207300 -16.131200 -30.951300
C -13.009500 -17.355900 -30.333900
H -12.909200 -14.137600 -30.748100
C -12.780100 -14.978900 -30.326700
C -12.391400 -17.423900 -29.091400
H -12.257600 -18.266700 -28.674500
C -12.165600 -15.040400 -29.089100
C -11.970400 -16.265600 -28.460300
H -11.874700 -14.240600 -28.666200
H -11.580000 -14.525800 -26.679800
C -11.288200 -16.375800 -27.130800
N -11.224000 -15.275500 -26.387300
H -10.825000 -15.297000 -25.603600
O -10.798000 -17.454200 -26.754400
32
Fragment
H -13.813600 -17.387100 -24.873600
H -13.476900 -15.319800 -23.836100
C -13.386900 -17.341600 -24.025400
C -13.189200 -16.116900 -23.408100
H -13.088800 -19.335200 -23.822200
C -12.959800 -18.493800 -23.400900
C -12.571000 -16.048800 -22.165600
H -12.437300 -15.206000 -21.748600
C -12.345300 -18.432400 -22.163200
C -12.150000 -17.207100 -21.534500
H -12.054400 -19.232100 -21.740300
H -11.759600 -18.946900 -19.754000
C -11.467900 -17.096900 -20.205000
N -11.403600 -18.197300 -19.461400
H -11.004700 -18.175700 -18.677700
O -10.977600 -16.018600 -19.828500
H -13.633900 -16.085700 -31.799400
H -13.297200 -18.152900 -30.761900
C -13.207300 -16.131200 -30.951300
C -13.009500 -17.355900 -30.333900
H -12.909200 -14.137600 -30.748100
C -12.780100 -14.978900 -30.326700
C -12.391400 -17.423900 -29.091400
H -12.257600 -18.266700 -28.674500
C -12.165600 -15.040400 -29.089100
C -11.970400 -16.265600 -28.460300
H -11.874700 -14.240600 -28.666200
H -11.580000 -14.525800 -26.679800
C -11.288200 -16.375800 -27.130800
N -11.224000 -15.275500 -26.387300
H -10.825000 -15.297000 -25.603600
O -10.798000 -17.454200 -26.754400
