21
Fragment
H -9.742600 -11.692800 -14.259100
O -9.673400 -13.080100 -17.403200
H -9.651600 -13.054700 -15.094100
C -9.162500 -12.252800 -14.815800
C -9.062700 -12.023900 -17.271600
H -9.044100 -11.972300 -20.129400
N -8.744500 -11.494500 -16.007000
N -8.645600 -11.327200 -19.682800
C -8.563800 -11.206400 -18.314300
H -8.370700 -12.514800 -14.301100
C -8.008700 -10.338600 -15.758200
C -8.005600 -10.280700 -20.200100
H -7.925300 -10.124300 -21.133500
C -7.844300 -10.069300 -18.107600
O -7.778100 -9.982700 -14.601000
N -7.539100 -9.630200 -16.833100
N -7.483400 -9.463000 -19.259400
H -7.195600 -7.645400 -16.825000
C -6.688600 -8.458800 -16.619200
H -6.396100 -8.434100 -15.684800
H -5.905400 -8.512800 -17.205400
21
Fragment
H -9.951900 -11.861600 -5.309100
O -9.882600 -13.248900 -8.453200
H -9.860900 -13.223500 -6.144100
C -9.371800 -12.421600 -5.865800
C -9.272000 -12.192700 -8.321700
H -9.253300 -12.141100 -11.179400
N -8.953700 -11.663300 -7.057000
N -8.854800 -11.496000 -10.732800
C -8.773000 -11.375200 -9.364300
H -8.580000 -12.683600 -5.351200
C -8.218000 -10.507400 -6.808200
C -8.214800 -10.449400 -11.250100
H -8.134500 -10.293100 -12.183600
C -8.053600 -10.238100 -9.157600
O -7.987300 -10.151500 -5.651000
N -7.748300 -9.799000 -7.883100
N -7.692600 -9.631800 -10.309500
H -7.404800 -7.814200 -7.875100
C -6.897800 -8.627600 -7.669200
H -6.605300 -8.602900 -6.734800
H -6.114700 -8.681600 -8.255400
42
Fragment
H -9.742600 -11.692800 -14.259100
O -9.673400 -13.080100 -17.403200
H -9.651600 -13.054700 -15.094100
C -9.162500 -12.252800 -14.815800
C -9.062700 -12.023900 -17.271600
H -9.044100 -11.972300 -20.129400
N -8.744500 -11.494500 -16.007000
N -8.645600 -11.327200 -19.682800
C -8.563800 -11.206400 -18.314300
H -8.370700 -12.514800 -14.301100
C -8.008700 -10.338600 -15.758200
C -8.005600 -10.280700 -20.200100
H -7.925300 -10.124300 -21.133500
C -7.844300 -10.069300 -18.107600
O -7.778100 -9.982700 -14.601000
N -7.539100 -9.630200 -16.833100
N -7.483400 -9.463000 -19.259400
H -7.195600 -7.645400 -16.825000
C -6.688600 -8.458800 -16.619200
H -6.396100 -8.434100 -15.684800
H -5.905400 -8.512800 -17.205400
H -9.951900 -11.861600 -5.309100
O -9.882600 -13.248900 -8.453200
H -9.860900 -13.223500 -6.144100
C -9.371800 -12.421600 -5.865800
C -9.272000 -12.192700 -8.321700
H -9.253300 -12.141100 -11.179400
N -8.953700 -11.663300 -7.057000
N -8.854800 -11.496000 -10.732800
C -8.773000 -11.375200 -9.364300
H -8.580000 -12.683600 -5.351200
C -8.218000 -10.507400 -6.808200
C -8.214800 -10.449400 -11.250100
H -8.134500 -10.293100 -12.183600
C -8.053600 -10.238100 -9.157600
O -7.987300 -10.151500 -5.651000
N -7.748300 -9.799000 -7.883100
N -7.692600 -9.631800 -10.309500
H -7.404800 -7.814200 -7.875100
C -6.897800 -8.627600 -7.669200
H -6.605300 -8.602900 -6.734800
H -6.114700 -8.681600 -8.255400
