16
Fragment
H -13.813600 -17.387100 -24.873600
H -13.476900 -15.319800 -23.836100
C -13.386900 -17.341600 -24.025400
C -13.189200 -16.116900 -23.408100
H -13.088800 -19.335200 -23.822200
C -12.959800 -18.493800 -23.400900
C -12.571000 -16.048800 -22.165600
H -12.437300 -15.206000 -21.748600
C -12.345300 -18.432400 -22.163200
C -12.150000 -17.207100 -21.534500
H -12.054400 -19.232100 -21.740300
H -11.759600 -18.946900 -19.754000
C -11.467900 -17.096900 -20.205000
N -11.403600 -18.197300 -19.461400
H -11.004700 -18.175700 -18.677700
O -10.977600 -16.018600 -19.828500
21
Fragment
H -10.140500 -15.724200 -18.127800
O -9.841600 -18.558100 -17.095100
H -9.811200 -13.492200 -17.386700
N -9.806300 -15.501000 -17.344900
H -9.611000 -20.078300 -15.353300
C -9.600600 -14.271800 -16.886000
C -9.417800 -17.762400 -16.243900
C -9.391100 -16.358800 -16.346000
H -9.232200 -19.799800 -13.822700
N -9.069500 -14.226200 -15.654400
C -8.960400 -19.656900 -14.753800
C -8.940700 -15.540200 -15.340500
N -8.902000 -18.219600 -15.030400
H -8.572600 -15.215400 -12.350200
N -8.426700 -16.062000 -14.175200
C -8.389800 -17.427400 -13.998400
H -8.075900 -20.054200 -14.900300
C -7.936800 -15.198600 -13.095900
O -7.934000 -17.928300 -12.983500
H -7.845300 -14.280800 -13.427900
H -7.064000 -15.523300 -12.789300
37
Fragment
H -13.813600 -17.387100 -24.873600
H -13.476900 -15.319800 -23.836100
C -13.386900 -17.341600 -24.025400
C -13.189200 -16.116900 -23.408100
H -13.088800 -19.335200 -23.822200
C -12.959800 -18.493800 -23.400900
C -12.571000 -16.048800 -22.165600
H -12.437300 -15.206000 -21.748600
C -12.345300 -18.432400 -22.163200
C -12.150000 -17.207100 -21.534500
H -12.054400 -19.232100 -21.740300
H -11.759600 -18.946900 -19.754000
C -11.467900 -17.096900 -20.205000
N -11.403600 -18.197300 -19.461400
H -11.004700 -18.175700 -18.677700
O -10.977600 -16.018600 -19.828500
H -10.140500 -15.724200 -18.127800
O -9.841600 -18.558100 -17.095100
H -9.811200 -13.492200 -17.386700
N -9.806300 -15.501000 -17.344900
H -9.611000 -20.078300 -15.353300
C -9.600600 -14.271800 -16.886000
C -9.417800 -17.762400 -16.243900
C -9.391100 -16.358800 -16.346000
H -9.232200 -19.799800 -13.822700
N -9.069500 -14.226200 -15.654400
C -8.960400 -19.656900 -14.753800
C -8.940700 -15.540200 -15.340500
N -8.902000 -18.219600 -15.030400
H -8.572600 -15.215400 -12.350200
N -8.426700 -16.062000 -14.175200
C -8.389800 -17.427400 -13.998400
H -8.075900 -20.054200 -14.900300
C -7.936800 -15.198600 -13.095900
O -7.934000 -17.928300 -12.983500
H -7.845300 -14.280800 -13.427900
H -7.064000 -15.523300 -12.789300
