16
Fragment
H -13.813600 -17.387100 -24.873600
H -13.476900 -15.319800 -23.836100
C -13.386900 -17.341600 -24.025400
C -13.189200 -16.116900 -23.408100
H -13.088800 -19.335200 -23.822200
C -12.959800 -18.493800 -23.400900
C -12.571000 -16.048800 -22.165600
H -12.437300 -15.206000 -21.748600
C -12.345300 -18.432400 -22.163200
C -12.150000 -17.207100 -21.534500
H -12.054400 -19.232100 -21.740300
H -11.759600 -18.946900 -19.754000
C -11.467900 -17.096900 -20.205000
N -11.403600 -18.197300 -19.461400
H -11.004700 -18.175700 -18.677700
O -10.977600 -16.018600 -19.828500
21
Fragment
H -14.620200 -8.828800 -21.840000
H -13.838800 -7.586300 -21.201500
O -13.750200 -11.233700 -21.645800
C -13.747400 -8.504100 -21.533500
H -13.608300 -13.359600 -19.729000
C -13.294300 -10.732800 -20.630900
N -13.257500 -9.367400 -20.454200
H -13.111600 -8.520800 -22.279100
N -12.782100 -11.525100 -19.599000
C -12.743500 -8.845600 -19.288800
C -12.723800 -12.962400 -19.875600
N -12.614600 -7.531600 -18.974900
H -12.452000 -13.105300 -20.806700
C -12.293100 -9.664300 -18.283300
C -12.266400 -11.067800 -18.385400
C -12.083500 -7.577300 -17.743400
H -12.073100 -13.383700 -19.276100
N -11.877900 -8.806400 -17.284500
H -11.873000 -6.797600 -17.242600
O -11.842600 -11.863500 -17.534200
H -11.543700 -9.029600 -16.501600
37
Fragment
H -13.813600 -17.387100 -24.873600
H -13.476900 -15.319800 -23.836100
C -13.386900 -17.341600 -24.025400
C -13.189200 -16.116900 -23.408100
H -13.088800 -19.335200 -23.822200
C -12.959800 -18.493800 -23.400900
C -12.571000 -16.048800 -22.165600
H -12.437300 -15.206000 -21.748600
C -12.345300 -18.432400 -22.163200
C -12.150000 -17.207100 -21.534500
H -12.054400 -19.232100 -21.740300
H -11.759600 -18.946900 -19.754000
C -11.467900 -17.096900 -20.205000
N -11.403600 -18.197300 -19.461400
H -11.004700 -18.175700 -18.677700
O -10.977600 -16.018600 -19.828500
H -14.620200 -8.828800 -21.840000
H -13.838800 -7.586300 -21.201500
O -13.750200 -11.233700 -21.645800
C -13.747400 -8.504100 -21.533500
H -13.608300 -13.359600 -19.729000
C -13.294300 -10.732800 -20.630900
N -13.257500 -9.367400 -20.454200
H -13.111600 -8.520800 -22.279100
N -12.782100 -11.525100 -19.599000
C -12.743500 -8.845600 -19.288800
C -12.723800 -12.962400 -19.875600
N -12.614600 -7.531600 -18.974900
H -12.452000 -13.105300 -20.806700
C -12.293100 -9.664300 -18.283300
C -12.266400 -11.067800 -18.385400
C -12.083500 -7.577300 -17.743400
H -12.073100 -13.383700 -19.276100
N -11.877900 -8.806400 -17.284500
H -11.873000 -6.797600 -17.242600
O -11.842600 -11.863500 -17.534200
H -11.543700 -9.029600 -16.501600
