21
Fragment
H -9.742600 -11.692800 -14.259100
O -9.673400 -13.080100 -17.403200
H -9.651600 -13.054700 -15.094100
C -9.162500 -12.252800 -14.815800
C -9.062700 -12.023900 -17.271600
H -9.044100 -11.972300 -20.129400
N -8.744500 -11.494500 -16.007000
N -8.645600 -11.327200 -19.682800
C -8.563800 -11.206400 -18.314300
H -8.370700 -12.514800 -14.301100
C -8.008700 -10.338600 -15.758200
C -8.005600 -10.280700 -20.200100
H -7.925300 -10.124300 -21.133500
C -7.844300 -10.069300 -18.107600
O -7.778100 -9.982700 -14.601000
N -7.539100 -9.630200 -16.833100
N -7.483400 -9.463000 -19.259400
H -7.195600 -7.645400 -16.825000
C -6.688600 -8.458800 -16.619200
H -6.396100 -8.434100 -15.684800
H -5.905400 -8.512800 -17.205400
21
Fragment
H -14.517400 -19.529300 -14.259100
O -14.448100 -20.916600 -17.403200
H -14.426400 -20.891200 -15.094100
C -13.937300 -20.089300 -14.815800
C -13.837500 -19.860400 -17.271600
H -13.818800 -19.808900 -20.129400
N -13.519300 -19.331000 -16.007000
N -13.420400 -19.163700 -19.682800
C -13.338600 -19.043000 -18.314300
H -13.145500 -20.351400 -14.301100
C -12.783500 -18.175100 -15.758200
C -12.780400 -18.117200 -20.200100
H -12.700100 -17.960900 -21.133500
C -12.619100 -17.905900 -18.107600
O -12.552900 -17.819200 -14.601000
N -12.313900 -17.466800 -16.833100
N -12.258200 -17.299600 -19.259400
H -11.970400 -15.481900 -16.825000
C -11.463400 -16.295300 -16.619200
H -11.170800 -16.270600 -15.684800
H -10.680200 -16.349300 -17.205400
42
Fragment
H -9.742600 -11.692800 -14.259100
O -9.673400 -13.080100 -17.403200
H -9.651600 -13.054700 -15.094100
C -9.162500 -12.252800 -14.815800
C -9.062700 -12.023900 -17.271600
H -9.044100 -11.972300 -20.129400
N -8.744500 -11.494500 -16.007000
N -8.645600 -11.327200 -19.682800
C -8.563800 -11.206400 -18.314300
H -8.370700 -12.514800 -14.301100
C -8.008700 -10.338600 -15.758200
C -8.005600 -10.280700 -20.200100
H -7.925300 -10.124300 -21.133500
C -7.844300 -10.069300 -18.107600
O -7.778100 -9.982700 -14.601000
N -7.539100 -9.630200 -16.833100
N -7.483400 -9.463000 -19.259400
H -7.195600 -7.645400 -16.825000
C -6.688600 -8.458800 -16.619200
H -6.396100 -8.434100 -15.684800
H -5.905400 -8.512800 -17.205400
H -14.517400 -19.529300 -14.259100
O -14.448100 -20.916600 -17.403200
H -14.426400 -20.891200 -15.094100
C -13.937300 -20.089300 -14.815800
C -13.837500 -19.860400 -17.271600
H -13.818800 -19.808900 -20.129400
N -13.519300 -19.331000 -16.007000
N -13.420400 -19.163700 -19.682800
C -13.338600 -19.043000 -18.314300
H -13.145500 -20.351400 -14.301100
C -12.783500 -18.175100 -15.758200
C -12.780400 -18.117200 -20.200100
H -12.700100 -17.960900 -21.133500
C -12.619100 -17.905900 -18.107600
O -12.552900 -17.819200 -14.601000
N -12.313900 -17.466800 -16.833100
N -12.258200 -17.299600 -19.259400
H -11.970400 -15.481900 -16.825000
C -11.463400 -16.295300 -16.619200
H -11.170800 -16.270600 -15.684800
H -10.680200 -16.349300 -17.205400
