21
Fragment
H -9.742600 -11.692800 -14.259100
O -9.673400 -13.080100 -17.403200
H -9.651600 -13.054700 -15.094100
C -9.162500 -12.252800 -14.815800
C -9.062700 -12.023900 -17.271600
H -9.044100 -11.972300 -20.129400
N -8.744500 -11.494500 -16.007000
N -8.645600 -11.327200 -19.682800
C -8.563800 -11.206400 -18.314300
H -8.370700 -12.514800 -14.301100
C -8.008700 -10.338600 -15.758200
C -8.005600 -10.280700 -20.200100
H -7.925300 -10.124300 -21.133500
C -7.844300 -10.069300 -18.107600
O -7.778100 -9.982700 -14.601000
N -7.539100 -9.630200 -16.833100
N -7.483400 -9.463000 -19.259400
H -7.195600 -7.645400 -16.825000
C -6.688600 -8.458800 -16.619200
H -6.396100 -8.434100 -15.684800
H -5.905400 -8.512800 -17.205400
9
Fragment
H -6.920100 -7.858200 -21.666100
H -6.518600 -6.717000 -22.713200
H -6.371300 -7.600200 -19.514500
C -6.185700 -7.302500 -22.000800
N -5.895500 -6.872000 -19.647000
C -5.638600 -6.465600 -20.878500
H -5.590100 -6.414000 -18.960500
H -5.475900 -7.878100 -22.355200
O -4.977500 -5.453600 -21.142500
30
Fragment
H -9.742600 -11.692800 -14.259100
O -9.673400 -13.080100 -17.403200
H -9.651600 -13.054700 -15.094100
C -9.162500 -12.252800 -14.815800
C -9.062700 -12.023900 -17.271600
H -9.044100 -11.972300 -20.129400
N -8.744500 -11.494500 -16.007000
N -8.645600 -11.327200 -19.682800
C -8.563800 -11.206400 -18.314300
H -8.370700 -12.514800 -14.301100
C -8.008700 -10.338600 -15.758200
C -8.005600 -10.280700 -20.200100
H -7.925300 -10.124300 -21.133500
C -7.844300 -10.069300 -18.107600
O -7.778100 -9.982700 -14.601000
N -7.539100 -9.630200 -16.833100
N -7.483400 -9.463000 -19.259400
H -7.195600 -7.645400 -16.825000
C -6.688600 -8.458800 -16.619200
H -6.396100 -8.434100 -15.684800
H -5.905400 -8.512800 -17.205400
H -6.920100 -7.858200 -21.666100
H -6.518600 -6.717000 -22.713200
H -6.371300 -7.600200 -19.514500
C -6.185700 -7.302500 -22.000800
N -5.895500 -6.872000 -19.647000
C -5.638600 -6.465600 -20.878500
H -5.590100 -6.414000 -18.960500
H -5.475900 -7.878100 -22.355200
O -4.977500 -5.453600 -21.142500
