22
Fragment
O -19.548800 -12.849700 -20.709600
O -19.478800 -14.693700 -18.655400
N -19.005800 -13.857700 -17.914600
C -18.948200 -12.276100 -19.844800
H -18.779200 -9.598400 -23.507800
O -18.767100 -13.957500 -16.734800
N -18.716400 -12.616100 -18.506100
N -18.317300 -10.323700 -21.056900
N -18.299400 -11.042300 -19.884800
C -18.277000 -8.814700 -23.319000
N -18.044500 -7.880600 -24.176400
N -17.961500 -11.697400 -17.799400
C -17.729000 -10.763300 -18.656800
N -17.706600 -8.535700 -22.091000
N -17.688700 -9.254300 -20.918900
N -17.289600 -6.961900 -23.469600
O -17.238900 -5.620500 -25.241000
H -17.226800 -9.979600 -18.468000
C -17.057800 -7.301900 -22.131000
N -17.000200 -5.720300 -24.061200
O -16.527200 -4.884300 -23.320400
O -16.457200 -6.728300 -21.266200
6
Fragment
H -14.033600 -6.180100 -22.643100
N -14.001300 -5.658000 -25.664400
C -13.688400 -5.727900 -24.564800
C -13.296100 -5.806200 -23.169100
H -13.081500 -4.908900 -22.839000
H -12.508200 -6.383700 -23.082500
28
Fragment
O -19.548800 -12.849700 -20.709600
O -19.478800 -14.693700 -18.655400
N -19.005800 -13.857700 -17.914600
C -18.948200 -12.276100 -19.844800
H -18.779200 -9.598400 -23.507800
O -18.767100 -13.957500 -16.734800
N -18.716400 -12.616100 -18.506100
N -18.317300 -10.323700 -21.056900
N -18.299400 -11.042300 -19.884800
C -18.277000 -8.814700 -23.319000
N -18.044500 -7.880600 -24.176400
N -17.961500 -11.697400 -17.799400
C -17.729000 -10.763300 -18.656800
N -17.706600 -8.535700 -22.091000
N -17.688700 -9.254300 -20.918900
N -17.289600 -6.961900 -23.469600
O -17.238900 -5.620500 -25.241000
H -17.226800 -9.979600 -18.468000
C -17.057800 -7.301900 -22.131000
N -17.000200 -5.720300 -24.061200
O -16.527200 -4.884300 -23.320400
O -16.457200 -6.728300 -21.266200
H -14.033600 -6.180100 -22.643100
N -14.001300 -5.658000 -25.664400
C -13.688400 -5.727900 -24.564800
C -13.296100 -5.806200 -23.169100
H -13.081500 -4.908900 -22.839000
H -12.508200 -6.383700 -23.082500
