22
Fragment
O -19.548800 -12.849700 -20.709600
O -19.478800 -14.693700 -18.655400
N -19.005800 -13.857700 -17.914600
C -18.948200 -12.276100 -19.844800
H -18.779200 -9.598400 -23.507800
O -18.767100 -13.957500 -16.734800
N -18.716400 -12.616100 -18.506100
N -18.317300 -10.323700 -21.056900
N -18.299400 -11.042300 -19.884800
C -18.277000 -8.814700 -23.319000
N -18.044500 -7.880600 -24.176400
N -17.961500 -11.697400 -17.799400
C -17.729000 -10.763300 -18.656800
N -17.706600 -8.535700 -22.091000
N -17.688700 -9.254300 -20.918900
N -17.289600 -6.961900 -23.469600
O -17.238900 -5.620500 -25.241000
H -17.226800 -9.979600 -18.468000
C -17.057800 -7.301900 -22.131000
N -17.000200 -5.720300 -24.061200
O -16.527200 -4.884300 -23.320400
O -16.457200 -6.728300 -21.266200
22
Fragment
O -22.309600 -8.429600 -25.348500
N -21.310100 -8.949000 -25.792300
O -20.998000 -10.120900 -25.755100
N -20.638600 -6.728700 -26.417700
N -20.405600 -8.096500 -26.432900
C -19.579800 -6.232300 -26.957400
H -19.437700 -5.302400 -27.091200
C -19.157500 -8.475300 -26.955300
N -18.675400 -7.214600 -27.318400
O -18.649300 -9.549400 -27.078200
N -17.403600 -7.119700 -27.838300
N -17.141400 -5.932300 -28.129400
O -15.895700 -3.502600 -28.889600
N -15.869700 -5.837400 -28.649300
C -15.387600 -4.576700 -29.012400
H -15.107400 -7.749600 -28.876500
C -14.965200 -6.819700 -29.010300
N -14.139400 -4.955500 -29.534900
N -13.906400 -6.323300 -29.550000
O -13.547100 -2.931100 -30.212600
N -13.235000 -4.103000 -30.175400
O -12.235500 -4.622400 -30.619200
44
Fragment
O -19.548800 -12.849700 -20.709600
O -19.478800 -14.693700 -18.655400
N -19.005800 -13.857700 -17.914600
C -18.948200 -12.276100 -19.844800
H -18.779200 -9.598400 -23.507800
O -18.767100 -13.957500 -16.734800
N -18.716400 -12.616100 -18.506100
N -18.317300 -10.323700 -21.056900
N -18.299400 -11.042300 -19.884800
C -18.277000 -8.814700 -23.319000
N -18.044500 -7.880600 -24.176400
N -17.961500 -11.697400 -17.799400
C -17.729000 -10.763300 -18.656800
N -17.706600 -8.535700 -22.091000
N -17.688700 -9.254300 -20.918900
N -17.289600 -6.961900 -23.469600
O -17.238900 -5.620500 -25.241000
H -17.226800 -9.979600 -18.468000
C -17.057800 -7.301900 -22.131000
N -17.000200 -5.720300 -24.061200
O -16.527200 -4.884300 -23.320400
O -16.457200 -6.728300 -21.266200
O -22.309600 -8.429600 -25.348500
N -21.310100 -8.949000 -25.792300
O -20.998000 -10.120900 -25.755100
N -20.638600 -6.728700 -26.417700
N -20.405600 -8.096500 -26.432900
C -19.579800 -6.232300 -26.957400
H -19.437700 -5.302400 -27.091200
C -19.157500 -8.475300 -26.955300
N -18.675400 -7.214600 -27.318400
O -18.649300 -9.549400 -27.078200
N -17.403600 -7.119700 -27.838300
N -17.141400 -5.932300 -28.129400
O -15.895700 -3.502600 -28.889600
N -15.869700 -5.837400 -28.649300
C -15.387600 -4.576700 -29.012400
H -15.107400 -7.749600 -28.876500
C -14.965200 -6.819700 -29.010300
N -14.139400 -4.955500 -29.534900
N -13.906400 -6.323300 -29.550000
O -13.547100 -2.931100 -30.212600
N -13.235000 -4.103000 -30.175400
O -12.235500 -4.622400 -30.619200
