22
Fragment
O -19.548800 -12.849700 -20.709600
O -19.478800 -14.693700 -18.655400
N -19.005800 -13.857700 -17.914600
C -18.948200 -12.276100 -19.844800
H -18.779200 -9.598400 -23.507800
O -18.767100 -13.957500 -16.734800
N -18.716400 -12.616100 -18.506100
N -18.317300 -10.323700 -21.056900
N -18.299400 -11.042300 -19.884800
C -18.277000 -8.814700 -23.319000
N -18.044500 -7.880600 -24.176400
N -17.961500 -11.697400 -17.799400
C -17.729000 -10.763300 -18.656800
N -17.706600 -8.535700 -22.091000
N -17.688700 -9.254300 -20.918900
N -17.289600 -6.961900 -23.469600
O -17.238900 -5.620500 -25.241000
H -17.226800 -9.979600 -18.468000
C -17.057800 -7.301900 -22.131000
N -17.000200 -5.720300 -24.061200
O -16.527200 -4.884300 -23.320400
O -16.457200 -6.728300 -21.266200
22
Fragment
O -22.309600 -1.903600 -25.348500
N -21.310100 -2.423000 -25.792300
O -20.998000 -3.594900 -25.755100
N -20.638600 -0.202700 -26.417700
N -20.405600 -1.570500 -26.432900
C -19.579800 0.293700 -26.957400
H -19.437700 1.223600 -27.091200
C -19.157500 -1.949300 -26.955300
N -18.675400 -0.688600 -27.318400
O -18.649300 -3.023400 -27.078200
N -17.403600 -0.593700 -27.838300
N -17.141400 0.593700 -28.129400
O -15.895700 3.023400 -28.889600
N -15.869700 0.688600 -28.649300
C -15.387600 1.949300 -29.012400
H -15.107400 -1.223600 -28.876500
C -14.965200 -0.293700 -29.010300
N -14.139400 1.570500 -29.534900
N -13.906400 0.202700 -29.550000
O -13.547100 3.594900 -30.212600
N -13.235000 2.423000 -30.175400
O -12.235500 1.903600 -30.619200
44
Fragment
O -19.548800 -12.849700 -20.709600
O -19.478800 -14.693700 -18.655400
N -19.005800 -13.857700 -17.914600
C -18.948200 -12.276100 -19.844800
H -18.779200 -9.598400 -23.507800
O -18.767100 -13.957500 -16.734800
N -18.716400 -12.616100 -18.506100
N -18.317300 -10.323700 -21.056900
N -18.299400 -11.042300 -19.884800
C -18.277000 -8.814700 -23.319000
N -18.044500 -7.880600 -24.176400
N -17.961500 -11.697400 -17.799400
C -17.729000 -10.763300 -18.656800
N -17.706600 -8.535700 -22.091000
N -17.688700 -9.254300 -20.918900
N -17.289600 -6.961900 -23.469600
O -17.238900 -5.620500 -25.241000
H -17.226800 -9.979600 -18.468000
C -17.057800 -7.301900 -22.131000
N -17.000200 -5.720300 -24.061200
O -16.527200 -4.884300 -23.320400
O -16.457200 -6.728300 -21.266200
O -22.309600 -1.903600 -25.348500
N -21.310100 -2.423000 -25.792300
O -20.998000 -3.594900 -25.755100
N -20.638600 -0.202700 -26.417700
N -20.405600 -1.570500 -26.432900
C -19.579800 0.293700 -26.957400
H -19.437700 1.223600 -27.091200
C -19.157500 -1.949300 -26.955300
N -18.675400 -0.688600 -27.318400
O -18.649300 -3.023400 -27.078200
N -17.403600 -0.593700 -27.838300
N -17.141400 0.593700 -28.129400
O -15.895700 3.023400 -28.889600
N -15.869700 0.688600 -28.649300
C -15.387600 1.949300 -29.012400
H -15.107400 -1.223600 -28.876500
C -14.965200 -0.293700 -29.010300
N -14.139400 1.570500 -29.534900
N -13.906400 0.202700 -29.550000
O -13.547100 3.594900 -30.212600
N -13.235000 2.423000 -30.175400
O -12.235500 1.903600 -30.619200
