22
Fragment
O -19.548800 -12.849700 -20.709600
O -19.478800 -14.693700 -18.655400
N -19.005800 -13.857700 -17.914600
C -18.948200 -12.276100 -19.844800
H -18.779200 -9.598400 -23.507800
O -18.767100 -13.957500 -16.734800
N -18.716400 -12.616100 -18.506100
N -18.317300 -10.323700 -21.056900
N -18.299400 -11.042300 -19.884800
C -18.277000 -8.814700 -23.319000
N -18.044500 -7.880600 -24.176400
N -17.961500 -11.697400 -17.799400
C -17.729000 -10.763300 -18.656800
N -17.706600 -8.535700 -22.091000
N -17.688700 -9.254300 -20.918900
N -17.289600 -6.961900 -23.469600
O -17.238900 -5.620500 -25.241000
H -17.226800 -9.979600 -18.468000
C -17.057800 -7.301900 -22.131000
N -17.000200 -5.720300 -24.061200
O -16.527200 -4.884300 -23.320400
O -16.457200 -6.728300 -21.266200
22
Fragment
O -29.771600 -7.885400 -18.352500
N -28.772000 -7.366000 -18.796300
O -28.460000 -6.194100 -18.759100
N -28.100600 -9.586300 -19.421800
N -27.867600 -8.218500 -19.436900
C -27.041800 -10.082700 -19.961400
H -26.899700 -11.012600 -20.095200
C -26.619400 -7.839700 -19.959400
N -26.137400 -9.100400 -20.322400
O -26.111300 -6.765600 -20.082200
N -24.865600 -9.195300 -20.842400
N -24.603400 -10.382700 -21.133400
O -23.357700 -12.812400 -21.893600
N -23.331700 -10.477600 -21.653400
C -22.849600 -11.738300 -22.016400
H -22.569400 -8.565400 -21.880600
C -22.427200 -9.495300 -22.014300
N -21.601400 -11.359500 -22.538900
N -21.368400 -9.991700 -22.554000
O -21.009100 -13.383900 -23.216700
N -20.697000 -12.212000 -23.179500
O -19.697500 -11.692600 -23.623300
44
Fragment
O -19.548800 -12.849700 -20.709600
O -19.478800 -14.693700 -18.655400
N -19.005800 -13.857700 -17.914600
C -18.948200 -12.276100 -19.844800
H -18.779200 -9.598400 -23.507800
O -18.767100 -13.957500 -16.734800
N -18.716400 -12.616100 -18.506100
N -18.317300 -10.323700 -21.056900
N -18.299400 -11.042300 -19.884800
C -18.277000 -8.814700 -23.319000
N -18.044500 -7.880600 -24.176400
N -17.961500 -11.697400 -17.799400
C -17.729000 -10.763300 -18.656800
N -17.706600 -8.535700 -22.091000
N -17.688700 -9.254300 -20.918900
N -17.289600 -6.961900 -23.469600
O -17.238900 -5.620500 -25.241000
H -17.226800 -9.979600 -18.468000
C -17.057800 -7.301900 -22.131000
N -17.000200 -5.720300 -24.061200
O -16.527200 -4.884300 -23.320400
O -16.457200 -6.728300 -21.266200
O -29.771600 -7.885400 -18.352500
N -28.772000 -7.366000 -18.796300
O -28.460000 -6.194100 -18.759100
N -28.100600 -9.586300 -19.421800
N -27.867600 -8.218500 -19.436900
C -27.041800 -10.082700 -19.961400
H -26.899700 -11.012600 -20.095200
C -26.619400 -7.839700 -19.959400
N -26.137400 -9.100400 -20.322400
O -26.111300 -6.765600 -20.082200
N -24.865600 -9.195300 -20.842400
N -24.603400 -10.382700 -21.133400
O -23.357700 -12.812400 -21.893600
N -23.331700 -10.477600 -21.653400
C -22.849600 -11.738300 -22.016400
H -22.569400 -8.565400 -21.880600
C -22.427200 -9.495300 -22.014300
N -21.601400 -11.359500 -22.538900
N -21.368400 -9.991700 -22.554000
O -21.009100 -13.383900 -23.216700
N -20.697000 -12.212000 -23.179500
O -19.697500 -11.692600 -23.623300
