9
Fragment
H -7.949200 -12.733200 -12.565900
H -7.852800 -12.886800 -14.155200
H -7.481400 -10.548600 -12.775600
N -7.448500 -11.041000 -13.504200
C -7.441700 -12.479800 -13.364400
H -7.419200 -9.482400 -14.686500
C -7.408400 -10.432200 -14.674100
O -7.356600 -11.033200 -15.757900
H -6.517700 -12.794700 -13.278200
21
Fragment
H -8.126100 -13.134100 -17.606600
H -7.763100 -16.027600 -22.162900
H -7.475800 -13.907600 -16.364900
O -7.385200 -16.198400 -16.221300
C -7.361200 -13.669900 -17.308900
C -7.293900 -16.121900 -17.440000
N -7.278600 -14.896400 -18.116900
H -7.206100 -18.995900 -17.366300
C -7.178800 -17.214700 -18.352400
C -7.158600 -14.692800 -19.491800
O -7.151600 -13.561300 -19.963700
N -7.148700 -18.580100 -18.139900
C -7.066600 -17.055800 -19.709100
N -7.057200 -15.808000 -20.289300
C -7.013300 -19.144100 -19.347200
H -6.963300 -20.083300 -19.481200
N -6.956400 -18.255200 -20.349600
C -6.953100 -15.670500 -21.741600
H -6.855600 -14.723400 -21.974300
H -6.536800 -13.151000 -17.418000
H -6.171900 -16.167300 -22.062400
30
Fragment
H -7.949200 -12.733200 -12.565900
H -7.852800 -12.886800 -14.155200
H -7.481400 -10.548600 -12.775600
N -7.448500 -11.041000 -13.504200
C -7.441700 -12.479800 -13.364400
H -7.419200 -9.482400 -14.686500
C -7.408400 -10.432200 -14.674100
O -7.356600 -11.033200 -15.757900
H -6.517700 -12.794700 -13.278200
H -8.126100 -13.134100 -17.606600
H -7.763100 -16.027600 -22.162900
H -7.475800 -13.907600 -16.364900
O -7.385200 -16.198400 -16.221300
C -7.361200 -13.669900 -17.308900
C -7.293900 -16.121900 -17.440000
N -7.278600 -14.896400 -18.116900
H -7.206100 -18.995900 -17.366300
C -7.178800 -17.214700 -18.352400
C -7.158600 -14.692800 -19.491800
O -7.151600 -13.561300 -19.963700
N -7.148700 -18.580100 -18.139900
C -7.066600 -17.055800 -19.709100
N -7.057200 -15.808000 -20.289300
C -7.013300 -19.144100 -19.347200
H -6.963300 -20.083300 -19.481200
N -6.956400 -18.255200 -20.349600
C -6.953100 -15.670500 -21.741600
H -6.855600 -14.723400 -21.974300
H -6.536800 -13.151000 -17.418000
H -6.171900 -16.167300 -22.062400
