9
Fragment
H -7.949200 -12.733200 -12.565900
H -7.852800 -12.886800 -14.155200
H -7.481400 -10.548600 -12.775600
N -7.448500 -11.041000 -13.504200
C -7.441700 -12.479800 -13.364400
H -7.419200 -9.482400 -14.686500
C -7.408400 -10.432200 -14.674100
O -7.356600 -11.033200 -15.757900
H -6.517700 -12.794700 -13.278200
21
Fragment
H -8.709800 -4.758000 -8.032600
H -8.346800 -7.651500 -12.588900
H -8.059500 -5.531500 -6.790900
O -7.969000 -7.822300 -6.647200
C -7.945000 -5.293800 -7.734900
C -7.877600 -7.745900 -7.866000
N -7.862300 -6.520300 -8.542900
H -7.789900 -10.619900 -7.792300
C -7.762500 -8.838600 -8.778400
C -7.742400 -6.316700 -9.917700
O -7.735300 -5.185200 -10.389700
N -7.732400 -10.204000 -8.565900
C -7.650300 -8.679700 -10.135100
N -7.640900 -7.431900 -10.715200
C -7.597100 -10.768000 -9.773200
H -7.547000 -11.707200 -9.907200
N -7.540200 -9.879100 -10.775600
C -7.536800 -7.294400 -12.167600
H -7.439400 -6.347400 -12.400300
H -7.120500 -4.774900 -7.844000
H -6.755600 -7.791300 -12.488400
30
Fragment
H -7.949200 -12.733200 -12.565900
H -7.852800 -12.886800 -14.155200
H -7.481400 -10.548600 -12.775600
N -7.448500 -11.041000 -13.504200
C -7.441700 -12.479800 -13.364400
H -7.419200 -9.482400 -14.686500
C -7.408400 -10.432200 -14.674100
O -7.356600 -11.033200 -15.757900
H -6.517700 -12.794700 -13.278200
H -8.709800 -4.758000 -8.032600
H -8.346800 -7.651500 -12.588900
H -8.059500 -5.531500 -6.790900
O -7.969000 -7.822300 -6.647200
C -7.945000 -5.293800 -7.734900
C -7.877600 -7.745900 -7.866000
N -7.862300 -6.520300 -8.542900
H -7.789900 -10.619900 -7.792300
C -7.762500 -8.838600 -8.778400
C -7.742400 -6.316700 -9.917700
O -7.735300 -5.185200 -10.389700
N -7.732400 -10.204000 -8.565900
C -7.650300 -8.679700 -10.135100
N -7.640900 -7.431900 -10.715200
C -7.597100 -10.768000 -9.773200
H -7.547000 -11.707200 -9.907200
N -7.540200 -9.879100 -10.775600
C -7.536800 -7.294400 -12.167600
H -7.439400 -6.347400 -12.400300
H -7.120500 -4.774900 -7.844000
H -6.755600 -7.791300 -12.488400
