21
Fragment
H -18.110100 -10.176000 -18.323100
H -17.841000 -12.546700 -18.468500
C -17.651000 -10.716800 -17.692200
N -17.526500 -12.045400 -17.817900
N -17.068400 -10.224400 -16.596900
C -16.805100 -12.467600 -16.719700
O -16.604500 -14.829700 -16.870800
C -16.547600 -11.330500 -16.007200
C -16.404300 -13.753400 -16.295300
H -16.210700 -10.140800 -13.249000
N -15.865100 -11.362500 -14.811400
H -15.824000 -9.362000 -14.591700
H -15.766200 -15.152700 -13.650600
N -15.721200 -13.717200 -15.065600
C -15.628100 -10.145500 -14.036900
C -15.465800 -12.569800 -14.292500
H -15.449200 -15.714100 -15.115300
C -15.276700 -14.986200 -14.483000
O -14.913400 -12.659800 -13.207200
H -14.691700 -10.117800 -13.751600
H -14.316300 -14.939300 -14.292400
14
Fragment
H -13.831200 -16.366100 -12.275800
H -13.814900 -14.147200 -11.652400
C -13.426700 -16.126600 -11.450000
C -13.420400 -14.793200 -11.077600
N -12.888700 -17.092400 -10.698700
N -12.870400 -14.395300 -9.927400
C -12.338500 -16.684500 -9.548600
C -12.332300 -15.352700 -9.168200
H -12.263900 -13.126500 -8.047900
H -11.939900 -17.328300 -8.975500
N -11.827600 -13.680900 -7.522500
C -11.701500 -14.954600 -7.862400
H -11.476100 -13.389400 -6.770500
O -11.105800 -15.804300 -7.185100
35
Fragment
H -18.110100 -10.176000 -18.323100
H -17.841000 -12.546700 -18.468500
C -17.651000 -10.716800 -17.692200
N -17.526500 -12.045400 -17.817900
N -17.068400 -10.224400 -16.596900
C -16.805100 -12.467600 -16.719700
O -16.604500 -14.829700 -16.870800
C -16.547600 -11.330500 -16.007200
C -16.404300 -13.753400 -16.295300
H -16.210700 -10.140800 -13.249000
N -15.865100 -11.362500 -14.811400
H -15.824000 -9.362000 -14.591700
H -15.766200 -15.152700 -13.650600
N -15.721200 -13.717200 -15.065600
C -15.628100 -10.145500 -14.036900
C -15.465800 -12.569800 -14.292500
H -15.449200 -15.714100 -15.115300
C -15.276700 -14.986200 -14.483000
O -14.913400 -12.659800 -13.207200
H -14.691700 -10.117800 -13.751600
H -14.316300 -14.939300 -14.292400
H -13.831200 -16.366100 -12.275800
H -13.814900 -14.147200 -11.652400
C -13.426700 -16.126600 -11.450000
C -13.420400 -14.793200 -11.077600
N -12.888700 -17.092400 -10.698700
N -12.870400 -14.395300 -9.927400
C -12.338500 -16.684500 -9.548600
C -12.332300 -15.352700 -9.168200
H -12.263900 -13.126500 -8.047900
H -11.939900 -17.328300 -8.975500
N -11.827600 -13.680900 -7.522500
C -11.701500 -14.954600 -7.862400
H -11.476100 -13.389400 -6.770500
O -11.105800 -15.804300 -7.185100
