9
Fragment
H -7.949200 -12.733200 -12.565900
H -7.852800 -12.886800 -14.155200
H -7.481400 -10.548600 -12.775600
N -7.448500 -11.041000 -13.504200
C -7.441700 -12.479800 -13.364400
H -7.419200 -9.482400 -14.686500
C -7.408400 -10.432200 -14.674100
O -7.356600 -11.033200 -15.757900
H -6.517700 -12.794700 -13.278200
9
Fragment
H -4.994200 -12.333600 -15.443900
O -4.155300 -14.095100 -12.964200
C -4.103500 -14.696100 -14.048000
H -4.092800 -15.645900 -14.035500
C -4.070200 -12.648500 -15.357700
N -4.063500 -14.087300 -15.217900
H -4.030500 -14.579700 -15.946500
H -3.659200 -12.241400 -14.566900
H -3.562800 -12.395100 -16.156200
18
Fragment
H -7.949200 -12.733200 -12.565900
H -7.852800 -12.886800 -14.155200
H -7.481400 -10.548600 -12.775600
N -7.448500 -11.041000 -13.504200
C -7.441700 -12.479800 -13.364400
H -7.419200 -9.482400 -14.686500
C -7.408400 -10.432200 -14.674100
O -7.356600 -11.033200 -15.757900
H -6.517700 -12.794700 -13.278200
H -4.994200 -12.333600 -15.443900
O -4.155300 -14.095100 -12.964200
C -4.103500 -14.696100 -14.048000
H -4.092800 -15.645900 -14.035500
C -4.070200 -12.648500 -15.357700
N -4.063500 -14.087300 -15.217900
H -4.030500 -14.579700 -15.946500
H -3.659200 -12.241400 -14.566900
H -3.562800 -12.395100 -16.156200
