21
Fragment
H -18.110100 -10.176000 -18.323100
H -17.841000 -12.546700 -18.468500
C -17.651000 -10.716800 -17.692200
N -17.526500 -12.045400 -17.817900
N -17.068400 -10.224400 -16.596900
C -16.805100 -12.467600 -16.719700
O -16.604500 -14.829700 -16.870800
C -16.547600 -11.330500 -16.007200
C -16.404300 -13.753400 -16.295300
H -16.210700 -10.140800 -13.249000
N -15.865100 -11.362500 -14.811400
H -15.824000 -9.362000 -14.591700
H -15.766200 -15.152700 -13.650600
N -15.721200 -13.717200 -15.065600
C -15.628100 -10.145500 -14.036900
C -15.465800 -12.569800 -14.292500
H -15.449200 -15.714100 -15.115300
C -15.276700 -14.986200 -14.483000
O -14.913400 -12.659800 -13.207200
H -14.691700 -10.117800 -13.751600
H -14.316300 -14.939300 -14.292400
14
Fragment
O -13.584800 -12.407000 -17.452700
H -13.214500 -14.821900 -17.867300
C -12.989100 -13.256800 -16.775400
N -12.863000 -14.530500 -17.115300
H -12.750700 -10.883100 -15.662200
H -12.426800 -15.084900 -16.589900
C -12.358300 -12.858600 -15.469600
C -12.352100 -11.526800 -15.089200
N -11.820300 -13.816000 -14.710400
N -11.802000 -11.118900 -13.939100
C -11.270200 -13.418200 -13.560100
C -11.264000 -12.084800 -13.187700
H -10.875800 -14.064100 -12.985300
H -10.859500 -11.845200 -12.362000
35
Fragment
H -18.110100 -10.176000 -18.323100
H -17.841000 -12.546700 -18.468500
C -17.651000 -10.716800 -17.692200
N -17.526500 -12.045400 -17.817900
N -17.068400 -10.224400 -16.596900
C -16.805100 -12.467600 -16.719700
O -16.604500 -14.829700 -16.870800
C -16.547600 -11.330500 -16.007200
C -16.404300 -13.753400 -16.295300
H -16.210700 -10.140800 -13.249000
N -15.865100 -11.362500 -14.811400
H -15.824000 -9.362000 -14.591700
H -15.766200 -15.152700 -13.650600
N -15.721200 -13.717200 -15.065600
C -15.628100 -10.145500 -14.036900
C -15.465800 -12.569800 -14.292500
H -15.449200 -15.714100 -15.115300
C -15.276700 -14.986200 -14.483000
O -14.913400 -12.659800 -13.207200
H -14.691700 -10.117800 -13.751600
H -14.316300 -14.939300 -14.292400
O -13.584800 -12.407000 -17.452700
H -13.214500 -14.821900 -17.867300
C -12.989100 -13.256800 -16.775400
N -12.863000 -14.530500 -17.115300
H -12.750700 -10.883100 -15.662200
H -12.426800 -15.084900 -16.589900
C -12.358300 -12.858600 -15.469600
C -12.352100 -11.526800 -15.089200
N -11.820300 -13.816000 -14.710400
N -11.802000 -11.118900 -13.939100
C -11.270200 -13.418200 -13.560100
C -11.264000 -12.084800 -13.187700
H -10.875800 -14.064100 -12.985300
H -10.859500 -11.845200 -12.362000
