9
Fragment
H -7.949200 -12.733200 -12.565900
H -7.852800 -12.886800 -14.155200
H -7.481400 -10.548600 -12.775600
N -7.448500 -11.041000 -13.504200
C -7.441700 -12.479800 -13.364400
H -7.419200 -9.482400 -14.686500
C -7.408400 -10.432200 -14.674100
O -7.356600 -11.033200 -15.757900
H -6.517700 -12.794700 -13.278200
9
Fragment
H -11.625800 -12.333600 -15.443900
O -10.786900 -14.095100 -12.964200
C -10.735100 -14.696100 -14.048000
H -10.724400 -15.645900 -14.035500
C -10.701800 -12.648500 -15.357700
N -10.695100 -14.087300 -15.217900
H -10.662100 -14.579700 -15.946500
H -10.290800 -12.241400 -14.566900
H -10.194400 -12.395100 -16.156200
18
Fragment
H -7.949200 -12.733200 -12.565900
H -7.852800 -12.886800 -14.155200
H -7.481400 -10.548600 -12.775600
N -7.448500 -11.041000 -13.504200
C -7.441700 -12.479800 -13.364400
H -7.419200 -9.482400 -14.686500
C -7.408400 -10.432200 -14.674100
O -7.356600 -11.033200 -15.757900
H -6.517700 -12.794700 -13.278200
H -11.625800 -12.333600 -15.443900
O -10.786900 -14.095100 -12.964200
C -10.735100 -14.696100 -14.048000
H -10.724400 -15.645900 -14.035500
C -10.701800 -12.648500 -15.357700
N -10.695100 -14.087300 -15.217900
H -10.662100 -14.579700 -15.946500
H -10.290800 -12.241400 -14.566900
H -10.194400 -12.395100 -16.156200
