44
Fragment
H -18.099300 -18.081500 -19.188000
O -17.470500 -17.399000 -21.537300
C -17.218500 -18.314400 -19.373100
O -16.956800 -15.902100 -24.736400
H -16.950500 -17.311200 -22.322300
H -16.827000 -19.154200 -17.574500
C -16.671400 -18.013800 -20.631200
C -16.460900 -18.953800 -18.406600
C -15.765900 -16.100400 -24.986100
N -15.430600 -17.438300 -23.091900
C -15.319400 -18.356400 -20.914300
H -15.299800 -14.810500 -26.389400
C -15.138600 -19.293500 -18.699200
N -14.974200 -15.478500 -25.883900
N -14.956100 -17.065600 -24.317900
O -14.879900 -20.246100 -16.599200
C -14.695900 -18.025900 -22.202100
C -14.564300 -19.012300 -19.931700
N -14.346400 -20.001500 -17.684500
H -14.241900 -20.091900 -23.898400
H -13.804700 -18.231500 -22.373500
H -13.798400 -20.673300 -25.285500
H -13.684000 -19.257500 -20.104900
H -13.617100 -15.564700 -28.575400
C -13.612300 -15.975500 -25.911000
C -13.534300 -16.962700 -24.701400
C -13.497100 -20.412900 -24.411700
N -13.329300 -16.832100 -27.052200
O -13.184400 -20.327700 -17.962700
H -13.106400 -21.169800 -23.969200
H -13.048000 -16.952300 -29.031800
H -12.983200 -16.607400 -23.973200
C -12.979300 -16.261400 -28.354200
N -12.960300 -18.149700 -25.280800
H -12.958600 -15.249900 -25.830600
C -12.830200 -18.041700 -26.640600
C -12.458400 -19.311300 -24.541400
O -12.354100 -18.901000 -27.388100
H -12.183400 -19.028700 -23.654400
H -11.677700 -19.663400 -24.996300
C -11.572400 -15.675100 -28.385100
H -11.504000 -14.973100 -27.733200
H -11.392900 -15.320000 -29.258100
H -10.933900 -16.362900 -28.181800
44
Fragment
H -25.886500 -17.371900 -11.170000
H -25.427500 -18.414700 -10.093800
H -25.316400 -18.761700 -11.618600
C -25.248000 -18.059600 -10.966800
H -25.142700 -14.071400 -14.355600
H -24.637000 -14.706000 -15.697500
O -24.466300 -14.833700 -11.963800
C -24.362000 -14.423500 -14.810500
C -23.990200 -15.693100 -12.711200
H -23.861800 -18.484800 -13.521300
N -23.860100 -15.585000 -14.071000
C -23.841100 -17.473300 -10.997700
H -23.837200 -17.127300 -15.378700
H -23.772400 -16.782400 -10.320000
H -23.714000 -12.564900 -15.382600
O -23.636000 -13.407000 -21.389100
N -23.491100 -16.902600 -12.299600
C -23.323300 -13.321800 -14.940100
C -23.286100 -16.772000 -14.650500
C -23.208100 -17.759200 -13.440800
H -23.203300 -18.170000 -10.776500
H -23.136400 -14.477200 -19.247000
H -23.022000 -13.061400 -14.066300
H -23.015700 -15.503200 -16.978400
H -22.578500 -13.642800 -15.453500
N -22.474000 -13.733200 -21.667300
C -22.256100 -14.722400 -19.420100
C -22.124500 -15.708800 -17.149700
O -21.940500 -13.488600 -22.752700
N -21.864300 -16.669100 -15.034000
N -21.846200 -18.256300 -13.468000
C -21.681800 -14.441200 -20.652600
H -21.520600 -18.924200 -12.962500
C -21.501000 -15.378300 -18.437500
N -21.389800 -16.296500 -16.260000
C -21.054500 -17.634300 -14.365800
C -20.359500 -14.780900 -20.945200
C -20.149000 -15.720900 -18.720700
H -19.993400 -14.580500 -21.777300
H -19.869900 -16.423500 -17.029500
O -19.863600 -17.832600 -14.615500
C -19.601800 -15.420300 -19.978700
O -19.349900 -16.335800 -17.814600
H -18.721100 -15.653200 -20.163900
88
Fragment
H -18.099300 -18.081500 -19.188000
O -17.470500 -17.399000 -21.537300
C -17.218500 -18.314400 -19.373100
O -16.956800 -15.902100 -24.736400
H -16.950500 -17.311200 -22.322300
H -16.827000 -19.154200 -17.574500
C -16.671400 -18.013800 -20.631200
C -16.460900 -18.953800 -18.406600
C -15.765900 -16.100400 -24.986100
N -15.430600 -17.438300 -23.091900
C -15.319400 -18.356400 -20.914300
H -15.299800 -14.810500 -26.389400
C -15.138600 -19.293500 -18.699200
N -14.974200 -15.478500 -25.883900
N -14.956100 -17.065600 -24.317900
O -14.879900 -20.246100 -16.599200
C -14.695900 -18.025900 -22.202100
C -14.564300 -19.012300 -19.931700
N -14.346400 -20.001500 -17.684500
H -14.241900 -20.091900 -23.898400
H -13.804700 -18.231500 -22.373500
H -13.798400 -20.673300 -25.285500
H -13.684000 -19.257500 -20.104900
H -13.617100 -15.564700 -28.575400
C -13.612300 -15.975500 -25.911000
C -13.534300 -16.962700 -24.701400
C -13.497100 -20.412900 -24.411700
N -13.329300 -16.832100 -27.052200
O -13.184400 -20.327700 -17.962700
H -13.106400 -21.169800 -23.969200
H -13.048000 -16.952300 -29.031800
H -12.983200 -16.607400 -23.973200
C -12.979300 -16.261400 -28.354200
N -12.960300 -18.149700 -25.280800
H -12.958600 -15.249900 -25.830600
C -12.830200 -18.041700 -26.640600
C -12.458400 -19.311300 -24.541400
O -12.354100 -18.901000 -27.388100
H -12.183400 -19.028700 -23.654400
H -11.677700 -19.663400 -24.996300
C -11.572400 -15.675100 -28.385100
H -11.504000 -14.973100 -27.733200
H -11.392900 -15.320000 -29.258100
H -10.933900 -16.362900 -28.181800
H -25.886500 -17.371900 -11.170000
H -25.427500 -18.414700 -10.093800
H -25.316400 -18.761700 -11.618600
C -25.248000 -18.059600 -10.966800
H -25.142700 -14.071400 -14.355600
H -24.637000 -14.706000 -15.697500
O -24.466300 -14.833700 -11.963800
C -24.362000 -14.423500 -14.810500
C -23.990200 -15.693100 -12.711200
H -23.861800 -18.484800 -13.521300
N -23.860100 -15.585000 -14.071000
C -23.841100 -17.473300 -10.997700
H -23.837200 -17.127300 -15.378700
H -23.772400 -16.782400 -10.320000
H -23.714000 -12.564900 -15.382600
O -23.636000 -13.407000 -21.389100
N -23.491100 -16.902600 -12.299600
C -23.323300 -13.321800 -14.940100
C -23.286100 -16.772000 -14.650500
C -23.208100 -17.759200 -13.440800
H -23.203300 -18.170000 -10.776500
H -23.136400 -14.477200 -19.247000
H -23.022000 -13.061400 -14.066300
H -23.015700 -15.503200 -16.978400
H -22.578500 -13.642800 -15.453500
N -22.474000 -13.733200 -21.667300
C -22.256100 -14.722400 -19.420100
C -22.124500 -15.708800 -17.149700
O -21.940500 -13.488600 -22.752700
N -21.864300 -16.669100 -15.034000
N -21.846200 -18.256300 -13.468000
C -21.681800 -14.441200 -20.652600
H -21.520600 -18.924200 -12.962500
C -21.501000 -15.378300 -18.437500
N -21.389800 -16.296500 -16.260000
C -21.054500 -17.634300 -14.365800
C -20.359500 -14.780900 -20.945200
C -20.149000 -15.720900 -18.720700
H -19.993400 -14.580500 -21.777300
H -19.869900 -16.423500 -17.029500
O -19.863600 -17.832600 -14.615500
C -19.601800 -15.420300 -19.978700
O -19.349900 -16.335800 -17.814600
H -18.721100 -15.653200 -20.163900
