44
Fragment
H -18.099300 -18.081500 -19.188000
O -17.470500 -17.399000 -21.537300
C -17.218500 -18.314400 -19.373100
O -16.956800 -15.902100 -24.736400
H -16.950500 -17.311200 -22.322300
H -16.827000 -19.154200 -17.574500
C -16.671400 -18.013800 -20.631200
C -16.460900 -18.953800 -18.406600
C -15.765900 -16.100400 -24.986100
N -15.430600 -17.438300 -23.091900
C -15.319400 -18.356400 -20.914300
H -15.299800 -14.810500 -26.389400
C -15.138600 -19.293500 -18.699200
N -14.974200 -15.478500 -25.883900
N -14.956100 -17.065600 -24.317900
O -14.879900 -20.246100 -16.599200
C -14.695900 -18.025900 -22.202100
C -14.564300 -19.012300 -19.931700
N -14.346400 -20.001500 -17.684500
H -14.241900 -20.091900 -23.898400
H -13.804700 -18.231500 -22.373500
H -13.798400 -20.673300 -25.285500
H -13.684000 -19.257500 -20.104900
H -13.617100 -15.564700 -28.575400
C -13.612300 -15.975500 -25.911000
C -13.534300 -16.962700 -24.701400
C -13.497100 -20.412900 -24.411700
N -13.329300 -16.832100 -27.052200
O -13.184400 -20.327700 -17.962700
H -13.106400 -21.169800 -23.969200
H -13.048000 -16.952300 -29.031800
H -12.983200 -16.607400 -23.973200
C -12.979300 -16.261400 -28.354200
N -12.960300 -18.149700 -25.280800
H -12.958600 -15.249900 -25.830600
C -12.830200 -18.041700 -26.640600
C -12.458400 -19.311300 -24.541400
O -12.354100 -18.901000 -27.388100
H -12.183400 -19.028700 -23.654400
H -11.677700 -19.663400 -24.996300
C -11.572400 -15.675100 -28.385100
H -11.504000 -14.973100 -27.733200
H -11.392900 -15.320000 -29.258100
H -10.933900 -16.362900 -28.181800
6
Fragment
H -16.080700 -15.328400 -31.339800
H -15.268600 -16.405400 -32.138700
C -15.258500 -15.822900 -31.376600
H -15.162800 -16.343800 -30.576400
O -14.168800 -14.921000 -31.485600
H -13.367800 -15.527600 -31.597600
50
Fragment
H -18.099300 -18.081500 -19.188000
O -17.470500 -17.399000 -21.537300
C -17.218500 -18.314400 -19.373100
O -16.956800 -15.902100 -24.736400
H -16.950500 -17.311200 -22.322300
H -16.827000 -19.154200 -17.574500
C -16.671400 -18.013800 -20.631200
C -16.460900 -18.953800 -18.406600
C -15.765900 -16.100400 -24.986100
N -15.430600 -17.438300 -23.091900
C -15.319400 -18.356400 -20.914300
H -15.299800 -14.810500 -26.389400
C -15.138600 -19.293500 -18.699200
N -14.974200 -15.478500 -25.883900
N -14.956100 -17.065600 -24.317900
O -14.879900 -20.246100 -16.599200
C -14.695900 -18.025900 -22.202100
C -14.564300 -19.012300 -19.931700
N -14.346400 -20.001500 -17.684500
H -14.241900 -20.091900 -23.898400
H -13.804700 -18.231500 -22.373500
H -13.798400 -20.673300 -25.285500
H -13.684000 -19.257500 -20.104900
H -13.617100 -15.564700 -28.575400
C -13.612300 -15.975500 -25.911000
C -13.534300 -16.962700 -24.701400
C -13.497100 -20.412900 -24.411700
N -13.329300 -16.832100 -27.052200
O -13.184400 -20.327700 -17.962700
H -13.106400 -21.169800 -23.969200
H -13.048000 -16.952300 -29.031800
H -12.983200 -16.607400 -23.973200
C -12.979300 -16.261400 -28.354200
N -12.960300 -18.149700 -25.280800
H -12.958600 -15.249900 -25.830600
C -12.830200 -18.041700 -26.640600
C -12.458400 -19.311300 -24.541400
O -12.354100 -18.901000 -27.388100
H -12.183400 -19.028700 -23.654400
H -11.677700 -19.663400 -24.996300
C -11.572400 -15.675100 -28.385100
H -11.504000 -14.973100 -27.733200
H -11.392900 -15.320000 -29.258100
H -10.933900 -16.362900 -28.181800
H -16.080700 -15.328400 -31.339800
H -15.268600 -16.405400 -32.138700
C -15.258500 -15.822900 -31.376600
H -15.162800 -16.343800 -30.576400
O -14.168800 -14.921000 -31.485600
H -13.367800 -15.527600 -31.597600
