27
Fragment
H -5.164600 -34.669900 -23.442500
N -4.765100 -30.527300 -23.951300
C -4.379300 -34.196400 -23.587200
H -4.235000 -33.410100 -21.723600
O -4.221900 -27.607700 -22.035400
H -4.118100 -34.769500 -25.518000
C -4.097200 -30.212800 -23.070900
C -3.821100 -33.439900 -22.554700
C -3.759400 -34.241800 -24.840600
C -3.375400 -28.404400 -21.641500
C -3.267900 -29.817900 -21.984700
C -2.630600 -32.725200 -22.777000
C -2.602300 -33.492300 -25.073300
H -2.521700 -27.155100 -20.347800
N -2.469900 -27.971100 -20.613400
C -2.294700 -30.665300 -21.396800
H -2.219400 -33.481800 -25.920800
N -2.088100 -31.977400 -21.686300
C -2.019100 -32.760200 -24.040800
H -1.570500 -32.407300 -21.150600
C -1.549700 -28.762600 -20.043400
C -1.409500 -30.092200 -20.386600
H -1.226900 -32.295400 -24.187000
H -0.985400 -28.402600 -19.397400
C -0.345900 -30.824300 -19.719700
O -0.126600 -32.038600 -19.812200
H 0.224300 -30.333300 -19.173600
27
Fragment
H -8.863700 -26.482500 -30.903000
N -8.464200 -30.625100 -31.411800
C -8.078400 -26.956000 -31.047700
H -7.934100 -27.742200 -29.184100
O -7.921000 -33.544700 -29.495900
H -7.817200 -26.382900 -32.978500
C -7.796300 -30.939600 -30.531500
C -7.520200 -27.712500 -30.015200
C -7.458400 -26.910500 -32.301100
C -7.074500 -32.748000 -29.102000
C -6.967000 -31.334500 -29.445200
C -6.329700 -28.427100 -30.237500
C -6.301400 -27.660100 -32.533900
H -6.220700 -33.997200 -27.808400
N -6.168900 -33.181300 -28.074000
C -5.993800 -30.487100 -28.857300
H -5.918500 -27.670600 -33.381400
N -5.787200 -29.174900 -29.146800
C -5.718100 -28.392200 -31.501300
H -5.269500 -28.745100 -28.611100
C -5.248700 -32.389800 -27.504000
C -5.108500 -31.060200 -27.847200
H -4.926000 -28.856900 -31.647500
H -4.684500 -32.749700 -26.857900
C -4.045000 -30.328100 -27.180200
O -3.825700 -29.113800 -27.272700
H -3.474700 -30.819000 -26.634100
54
Fragment
H -5.164600 -34.669900 -23.442500
N -4.765100 -30.527300 -23.951300
C -4.379300 -34.196400 -23.587200
H -4.235000 -33.410100 -21.723600
O -4.221900 -27.607700 -22.035400
H -4.118100 -34.769500 -25.518000
C -4.097200 -30.212800 -23.070900
C -3.821100 -33.439900 -22.554700
C -3.759400 -34.241800 -24.840600
C -3.375400 -28.404400 -21.641500
C -3.267900 -29.817900 -21.984700
C -2.630600 -32.725200 -22.777000
C -2.602300 -33.492300 -25.073300
H -2.521700 -27.155100 -20.347800
N -2.469900 -27.971100 -20.613400
C -2.294700 -30.665300 -21.396800
H -2.219400 -33.481800 -25.920800
N -2.088100 -31.977400 -21.686300
C -2.019100 -32.760200 -24.040800
H -1.570500 -32.407300 -21.150600
C -1.549700 -28.762600 -20.043400
C -1.409500 -30.092200 -20.386600
H -1.226900 -32.295400 -24.187000
H -0.985400 -28.402600 -19.397400
C -0.345900 -30.824300 -19.719700
O -0.126600 -32.038600 -19.812200
H 0.224300 -30.333300 -19.173600
H -8.863700 -26.482500 -30.903000
N -8.464200 -30.625100 -31.411800
C -8.078400 -26.956000 -31.047700
H -7.934100 -27.742200 -29.184100
O -7.921000 -33.544700 -29.495900
H -7.817200 -26.382900 -32.978500
C -7.796300 -30.939600 -30.531500
C -7.520200 -27.712500 -30.015200
C -7.458400 -26.910500 -32.301100
C -7.074500 -32.748000 -29.102000
C -6.967000 -31.334500 -29.445200
C -6.329700 -28.427100 -30.237500
C -6.301400 -27.660100 -32.533900
H -6.220700 -33.997200 -27.808400
N -6.168900 -33.181300 -28.074000
C -5.993800 -30.487100 -28.857300
H -5.918500 -27.670600 -33.381400
N -5.787200 -29.174900 -29.146800
C -5.718100 -28.392200 -31.501300
H -5.269500 -28.745100 -28.611100
C -5.248700 -32.389800 -27.504000
C -5.108500 -31.060200 -27.847200
H -4.926000 -28.856900 -31.647500
H -4.684500 -32.749700 -26.857900
C -4.045000 -30.328100 -27.180200
O -3.825700 -29.113800 -27.272700
H -3.474700 -30.819000 -26.634100
