27
Fragment
H -5.164600 -34.669900 -23.442500
N -4.765100 -30.527300 -23.951300
C -4.379300 -34.196400 -23.587200
H -4.235000 -33.410100 -21.723600
O -4.221900 -27.607700 -22.035400
H -4.118100 -34.769500 -25.518000
C -4.097200 -30.212800 -23.070900
C -3.821100 -33.439900 -22.554700
C -3.759400 -34.241800 -24.840600
C -3.375400 -28.404400 -21.641500
C -3.267900 -29.817900 -21.984700
C -2.630600 -32.725200 -22.777000
C -2.602300 -33.492300 -25.073300
H -2.521700 -27.155100 -20.347800
N -2.469900 -27.971100 -20.613400
C -2.294700 -30.665300 -21.396800
H -2.219400 -33.481800 -25.920800
N -2.088100 -31.977400 -21.686300
C -2.019100 -32.760200 -24.040800
H -1.570500 -32.407300 -21.150600
C -1.549700 -28.762600 -20.043400
C -1.409500 -30.092200 -20.386600
H -1.226900 -32.295400 -24.187000
H -0.985400 -28.402600 -19.397400
C -0.345900 -30.824300 -19.719700
O -0.126600 -32.038600 -19.812200
H 0.224300 -30.333300 -19.173600
27
Fragment
H -6.910300 -26.482500 -15.981900
N -6.510900 -30.625100 -16.490700
C -6.125100 -26.956000 -16.126700
H -5.980700 -27.742200 -14.263000
O -5.967700 -33.544700 -14.574900
H -5.863900 -26.382900 -18.057500
C -5.843000 -30.939600 -15.610400
C -5.566800 -27.712500 -15.094100
C -5.505100 -26.910500 -17.380000
C -5.121200 -32.748000 -14.181000
C -5.013600 -31.334500 -14.524200
C -4.376300 -28.427100 -15.316500
C -4.348100 -27.660100 -17.612800
H -4.267400 -33.997200 -12.887300
N -4.215600 -33.181300 -13.152900
C -4.040500 -30.487100 -13.936300
H -3.965200 -27.670600 -18.460300
N -3.833900 -29.174900 -14.225700
C -3.764800 -28.392200 -16.580300
H -3.316200 -28.745100 -13.690100
C -3.295400 -32.389800 -12.582900
C -3.155200 -31.060200 -12.926100
H -2.972700 -28.856900 -16.726500
H -2.731100 -32.749700 -11.936800
C -2.091600 -30.328100 -12.259100
O -1.872300 -29.113800 -12.351600
H -1.521400 -30.819000 -11.713000
54
Fragment
H -5.164600 -34.669900 -23.442500
N -4.765100 -30.527300 -23.951300
C -4.379300 -34.196400 -23.587200
H -4.235000 -33.410100 -21.723600
O -4.221900 -27.607700 -22.035400
H -4.118100 -34.769500 -25.518000
C -4.097200 -30.212800 -23.070900
C -3.821100 -33.439900 -22.554700
C -3.759400 -34.241800 -24.840600
C -3.375400 -28.404400 -21.641500
C -3.267900 -29.817900 -21.984700
C -2.630600 -32.725200 -22.777000
C -2.602300 -33.492300 -25.073300
H -2.521700 -27.155100 -20.347800
N -2.469900 -27.971100 -20.613400
C -2.294700 -30.665300 -21.396800
H -2.219400 -33.481800 -25.920800
N -2.088100 -31.977400 -21.686300
C -2.019100 -32.760200 -24.040800
H -1.570500 -32.407300 -21.150600
C -1.549700 -28.762600 -20.043400
C -1.409500 -30.092200 -20.386600
H -1.226900 -32.295400 -24.187000
H -0.985400 -28.402600 -19.397400
C -0.345900 -30.824300 -19.719700
O -0.126600 -32.038600 -19.812200
H 0.224300 -30.333300 -19.173600
H -6.910300 -26.482500 -15.981900
N -6.510900 -30.625100 -16.490700
C -6.125100 -26.956000 -16.126700
H -5.980700 -27.742200 -14.263000
O -5.967700 -33.544700 -14.574900
H -5.863900 -26.382900 -18.057500
C -5.843000 -30.939600 -15.610400
C -5.566800 -27.712500 -15.094100
C -5.505100 -26.910500 -17.380000
C -5.121200 -32.748000 -14.181000
C -5.013600 -31.334500 -14.524200
C -4.376300 -28.427100 -15.316500
C -4.348100 -27.660100 -17.612800
H -4.267400 -33.997200 -12.887300
N -4.215600 -33.181300 -13.152900
C -4.040500 -30.487100 -13.936300
H -3.965200 -27.670600 -18.460300
N -3.833900 -29.174900 -14.225700
C -3.764800 -28.392200 -16.580300
H -3.316200 -28.745100 -13.690100
C -3.295400 -32.389800 -12.582900
C -3.155200 -31.060200 -12.926100
H -2.972700 -28.856900 -16.726500
H -2.731100 -32.749700 -11.936800
C -2.091600 -30.328100 -12.259100
O -1.872300 -29.113800 -12.351600
H -1.521400 -30.819000 -11.713000
