27
Fragment
H -5.164600 -34.669900 -23.442500
N -4.765100 -30.527300 -23.951300
C -4.379300 -34.196400 -23.587200
H -4.235000 -33.410100 -21.723600
O -4.221900 -27.607700 -22.035400
H -4.118100 -34.769500 -25.518000
C -4.097200 -30.212800 -23.070900
C -3.821100 -33.439900 -22.554700
C -3.759400 -34.241800 -24.840600
C -3.375400 -28.404400 -21.641500
C -3.267900 -29.817900 -21.984700
C -2.630600 -32.725200 -22.777000
C -2.602300 -33.492300 -25.073300
H -2.521700 -27.155100 -20.347800
N -2.469900 -27.971100 -20.613400
C -2.294700 -30.665300 -21.396800
H -2.219400 -33.481800 -25.920800
N -2.088100 -31.977400 -21.686300
C -2.019100 -32.760200 -24.040800
H -1.570500 -32.407300 -21.150600
C -1.549700 -28.762600 -20.043400
C -1.409500 -30.092200 -20.386600
H -1.226900 -32.295400 -24.187000
H -0.985400 -28.402600 -19.397400
C -0.345900 -30.824300 -19.719700
O -0.126600 -32.038600 -19.812200
H 0.224300 -30.333300 -19.173600
27
Fragment
H -11.529200 -39.555100 -25.589600
O -11.178200 -37.849800 -24.951000
C -10.958900 -39.064100 -25.043500
H -10.319400 -41.485800 -25.365800
H -10.077900 -37.593000 -20.576100
C -9.895400 -39.796200 -24.376500
C -9.755200 -41.125800 -24.719700
H -9.734400 -37.481100 -23.612600
C -9.285800 -37.128200 -20.722400
N -9.216700 -37.911000 -23.076900
H -9.085400 -36.406600 -18.842300
C -9.010100 -39.223100 -23.366400
N -8.835000 -41.917300 -24.149700
H -8.783200 -42.733300 -24.415300
C -8.702500 -36.396100 -19.689800
C -8.674200 -37.163200 -21.986200
C -8.036900 -40.070500 -22.778500
C -7.929400 -41.484000 -23.121700
C -7.545400 -35.646600 -19.922600
C -7.483700 -36.448500 -22.208500
C -7.207600 -39.675600 -21.692200
H -7.186700 -35.118900 -19.245200
O -7.082900 -42.280700 -22.727700
H -7.069800 -36.478300 -23.039600
C -6.925500 -35.692000 -21.176000
N -6.539700 -39.361100 -20.811900
H -6.140200 -35.218500 -21.320700
54
Fragment
H -5.164600 -34.669900 -23.442500
N -4.765100 -30.527300 -23.951300
C -4.379300 -34.196400 -23.587200
H -4.235000 -33.410100 -21.723600
O -4.221900 -27.607700 -22.035400
H -4.118100 -34.769500 -25.518000
C -4.097200 -30.212800 -23.070900
C -3.821100 -33.439900 -22.554700
C -3.759400 -34.241800 -24.840600
C -3.375400 -28.404400 -21.641500
C -3.267900 -29.817900 -21.984700
C -2.630600 -32.725200 -22.777000
C -2.602300 -33.492300 -25.073300
H -2.521700 -27.155100 -20.347800
N -2.469900 -27.971100 -20.613400
C -2.294700 -30.665300 -21.396800
H -2.219400 -33.481800 -25.920800
N -2.088100 -31.977400 -21.686300
C -2.019100 -32.760200 -24.040800
H -1.570500 -32.407300 -21.150600
C -1.549700 -28.762600 -20.043400
C -1.409500 -30.092200 -20.386600
H -1.226900 -32.295400 -24.187000
H -0.985400 -28.402600 -19.397400
C -0.345900 -30.824300 -19.719700
O -0.126600 -32.038600 -19.812200
H 0.224300 -30.333300 -19.173600
H -11.529200 -39.555100 -25.589600
O -11.178200 -37.849800 -24.951000
C -10.958900 -39.064100 -25.043500
H -10.319400 -41.485800 -25.365800
H -10.077900 -37.593000 -20.576100
C -9.895400 -39.796200 -24.376500
C -9.755200 -41.125800 -24.719700
H -9.734400 -37.481100 -23.612600
C -9.285800 -37.128200 -20.722400
N -9.216700 -37.911000 -23.076900
H -9.085400 -36.406600 -18.842300
C -9.010100 -39.223100 -23.366400
N -8.835000 -41.917300 -24.149700
H -8.783200 -42.733300 -24.415300
C -8.702500 -36.396100 -19.689800
C -8.674200 -37.163200 -21.986200
C -8.036900 -40.070500 -22.778500
C -7.929400 -41.484000 -23.121700
C -7.545400 -35.646600 -19.922600
C -7.483700 -36.448500 -22.208500
C -7.207600 -39.675600 -21.692200
H -7.186700 -35.118900 -19.245200
O -7.082900 -42.280700 -22.727700
H -7.069800 -36.478300 -23.039600
C -6.925500 -35.692000 -21.176000
N -6.539700 -39.361100 -20.811900
H -6.140200 -35.218500 -21.320700
