27
Fragment
H -5.164600 -34.669900 -23.442500
N -4.765100 -30.527300 -23.951300
C -4.379300 -34.196400 -23.587200
H -4.235000 -33.410100 -21.723600
O -4.221900 -27.607700 -22.035400
H -4.118100 -34.769500 -25.518000
C -4.097200 -30.212800 -23.070900
C -3.821100 -33.439900 -22.554700
C -3.759400 -34.241800 -24.840600
C -3.375400 -28.404400 -21.641500
C -3.267900 -29.817900 -21.984700
C -2.630600 -32.725200 -22.777000
C -2.602300 -33.492300 -25.073300
H -2.521700 -27.155100 -20.347800
N -2.469900 -27.971100 -20.613400
C -2.294700 -30.665300 -21.396800
H -2.219400 -33.481800 -25.920800
N -2.088100 -31.977400 -21.686300
C -2.019100 -32.760200 -24.040800
H -1.570500 -32.407300 -21.150600
C -1.549700 -28.762600 -20.043400
C -1.409500 -30.092200 -20.386600
H -1.226900 -32.295400 -24.187000
H -0.985400 -28.402600 -19.397400
C -0.345900 -30.824300 -19.719700
O -0.126600 -32.038600 -19.812200
H 0.224300 -30.333300 -19.173600
9
Fragment
H -5.538700 -24.747500 -21.217700
H -5.103200 -23.087600 -19.704700
N -4.830400 -25.179000 -20.989400
H -4.638700 -25.925100 -21.371400
N -4.384600 -23.479000 -19.439100
C -4.001900 -24.674100 -20.009100
H -3.905000 -23.124300 -18.819900
N -2.913300 -25.306600 -19.637600
H -2.413700 -24.978100 -19.019900
36
Fragment
H -5.164600 -34.669900 -23.442500
N -4.765100 -30.527300 -23.951300
C -4.379300 -34.196400 -23.587200
H -4.235000 -33.410100 -21.723600
O -4.221900 -27.607700 -22.035400
H -4.118100 -34.769500 -25.518000
C -4.097200 -30.212800 -23.070900
C -3.821100 -33.439900 -22.554700
C -3.759400 -34.241800 -24.840600
C -3.375400 -28.404400 -21.641500
C -3.267900 -29.817900 -21.984700
C -2.630600 -32.725200 -22.777000
C -2.602300 -33.492300 -25.073300
H -2.521700 -27.155100 -20.347800
N -2.469900 -27.971100 -20.613400
C -2.294700 -30.665300 -21.396800
H -2.219400 -33.481800 -25.920800
N -2.088100 -31.977400 -21.686300
C -2.019100 -32.760200 -24.040800
H -1.570500 -32.407300 -21.150600
C -1.549700 -28.762600 -20.043400
C -1.409500 -30.092200 -20.386600
H -1.226900 -32.295400 -24.187000
H -0.985400 -28.402600 -19.397400
C -0.345900 -30.824300 -19.719700
O -0.126600 -32.038600 -19.812200
H 0.224300 -30.333300 -19.173600
H -5.538700 -24.747500 -21.217700
H -5.103200 -23.087600 -19.704700
N -4.830400 -25.179000 -20.989400
H -4.638700 -25.925100 -21.371400
N -4.384600 -23.479000 -19.439100
C -4.001900 -24.674100 -20.009100
H -3.905000 -23.124300 -18.819900
N -2.913300 -25.306600 -19.637600
H -2.413700 -24.978100 -19.019900
