11
Fragment
H -1.387700 -8.852900 -46.700500
H -1.254300 -9.961700 -47.541800
N -0.762300 -9.375300 -47.093300
N -0.146700 -10.117700 -46.005800
H 0.916600 -10.357500 -48.283500
C 0.951100 -10.742700 -46.375100
N 1.373800 -10.759200 -47.676700
H 1.403400 -11.465500 -44.628000
N 1.669700 -11.435900 -45.442900
H 2.098100 -11.173100 -47.887700
H 2.392500 -11.845800 -45.674500
11
Fragment
H 2.063300 -12.793500 -42.268200
H 2.357700 -13.466200 -40.055000
N 2.786200 -13.203400 -42.499800
H 3.052500 -13.173800 -43.314700
N 3.082000 -13.880100 -40.266000
C 3.504800 -13.896600 -41.567600
H 3.539200 -14.281800 -39.659200
N 4.602600 -14.521600 -41.936900
N 5.218200 -15.264000 -40.849400
H 5.710200 -14.677600 -40.400900
H 5.843500 -15.786400 -41.242200
22
Fragment
H -1.387700 -8.852900 -46.700500
H -1.254300 -9.961700 -47.541800
N -0.762300 -9.375300 -47.093300
N -0.146700 -10.117700 -46.005800
H 0.916600 -10.357500 -48.283500
C 0.951100 -10.742700 -46.375100
N 1.373800 -10.759200 -47.676700
H 1.403400 -11.465500 -44.628000
N 1.669700 -11.435900 -45.442900
H 2.098100 -11.173100 -47.887700
H 2.392500 -11.845800 -45.674500
H 2.063300 -12.793500 -42.268200
H 2.357700 -13.466200 -40.055000
N 2.786200 -13.203400 -42.499800
H 3.052500 -13.173800 -43.314700
N 3.082000 -13.880100 -40.266000
C 3.504800 -13.896600 -41.567600
H 3.539200 -14.281800 -39.659200
N 4.602600 -14.521600 -41.936900
N 5.218200 -15.264000 -40.849400
H 5.710200 -14.677600 -40.400900
H 5.843500 -15.786400 -41.242200
