11
Fragment
H -1.387700 -8.852900 -46.700500
H -1.254300 -9.961700 -47.541800
N -0.762300 -9.375300 -47.093300
N -0.146700 -10.117700 -46.005800
H 0.916600 -10.357500 -48.283500
C 0.951100 -10.742700 -46.375100
N 1.373800 -10.759200 -47.676700
H 1.403400 -11.465500 -44.628000
N 1.669700 -11.435900 -45.442900
H 2.098100 -11.173100 -47.887700
H 2.392500 -11.845800 -45.674500
27
Fragment
H -2.544800 -14.700600 -51.320400
N -2.375900 -12.323800 -48.309900
O -2.284200 -13.223100 -44.991500
C -1.680300 -14.372900 -51.194400
C -1.664200 -12.894600 -47.659100
H -1.478100 -13.519600 -53.026500
H -1.366100 -15.255000 -49.397400
C -1.231600 -13.740500 -45.425300
C -1.083500 -13.592700 -52.188100
C -1.002300 -14.660400 -50.013000
C -0.775700 -13.609100 -46.806000
H -0.750700 -14.743300 -43.801300
N -0.456600 -14.556900 -44.589900
C 0.127700 -12.927400 -51.900800
C 0.242300 -14.044400 -49.758000
C 0.457200 -14.167600 -47.239900
H 0.474700 -12.318000 -52.504700
C 0.722000 -15.062800 -44.982700
C 0.802600 -13.190200 -50.707800
N 0.916500 -14.232500 -48.515100
C 1.218700 -14.939600 -46.257900
H 1.235400 -15.515400 -44.355400
H 1.628700 -12.796000 -50.546500
H 1.750600 -14.422200 -48.585400
C 2.491500 -15.555600 -46.536300
O 2.979200 -15.734700 -47.659100
H 2.995300 -15.843100 -45.806400
38
Fragment
H -1.387700 -8.852900 -46.700500
H -1.254300 -9.961700 -47.541800
N -0.762300 -9.375300 -47.093300
N -0.146700 -10.117700 -46.005800
H 0.916600 -10.357500 -48.283500
C 0.951100 -10.742700 -46.375100
N 1.373800 -10.759200 -47.676700
H 1.403400 -11.465500 -44.628000
N 1.669700 -11.435900 -45.442900
H 2.098100 -11.173100 -47.887700
H 2.392500 -11.845800 -45.674500
H -2.544800 -14.700600 -51.320400
N -2.375900 -12.323800 -48.309900
O -2.284200 -13.223100 -44.991500
C -1.680300 -14.372900 -51.194400
C -1.664200 -12.894600 -47.659100
H -1.478100 -13.519600 -53.026500
H -1.366100 -15.255000 -49.397400
C -1.231600 -13.740500 -45.425300
C -1.083500 -13.592700 -52.188100
C -1.002300 -14.660400 -50.013000
C -0.775700 -13.609100 -46.806000
H -0.750700 -14.743300 -43.801300
N -0.456600 -14.556900 -44.589900
C 0.127700 -12.927400 -51.900800
C 0.242300 -14.044400 -49.758000
C 0.457200 -14.167600 -47.239900
H 0.474700 -12.318000 -52.504700
C 0.722000 -15.062800 -44.982700
C 0.802600 -13.190200 -50.707800
N 0.916500 -14.232500 -48.515100
C 1.218700 -14.939600 -46.257900
H 1.235400 -15.515400 -44.355400
H 1.628700 -12.796000 -50.546500
H 1.750600 -14.422200 -48.585400
C 2.491500 -15.555600 -46.536300
O 2.979200 -15.734700 -47.659100
H 2.995300 -15.843100 -45.806400
