11
Fragment
H -1.387700 -8.852900 -46.700500
H -1.254300 -9.961700 -47.541800
N -0.762300 -9.375300 -47.093300
N -0.146700 -10.117700 -46.005800
H 0.916600 -10.357500 -48.283500
C 0.951100 -10.742700 -46.375100
N 1.373800 -10.759200 -47.676700
H 1.403400 -11.465500 -44.628000
N 1.669700 -11.435900 -45.442900
H 2.098100 -11.173100 -47.887700
H 2.392500 -11.845800 -45.674500
27
Fragment
H -4.755600 -8.796200 -42.136300
O -4.739400 -8.904600 -40.283600
C -4.251800 -9.083700 -41.406400
H -3.510800 -10.217100 -39.357300
H -3.388900 -11.843300 -37.396200
H -2.995700 -9.123900 -43.587300
C -2.978900 -9.699700 -41.684800
N -2.676800 -10.406800 -39.427600
C -2.562900 -11.449100 -37.234900
C -2.482300 -9.576500 -42.960000
H -2.235000 -12.321300 -35.438000
C -2.217500 -10.471700 -40.702800
C -2.002500 -10.594900 -38.184700
C -1.888000 -11.711900 -36.041800
N -1.303700 -10.082400 -43.352800
H -1.009500 -9.896000 -44.141400
C -0.984600 -11.030200 -41.136700
C -0.758000 -9.978900 -37.929700
C -0.676700 -11.046600 -35.754600
C -0.528600 -10.898800 -42.517400
H -0.394200 -9.384300 -38.545300
H -0.282200 -11.119700 -34.916200
C -0.096000 -11.744700 -40.283600
C -0.080000 -10.266400 -36.748300
O 0.524000 -11.416200 -42.951200
N 0.615700 -12.315500 -39.632800
H 0.784500 -9.938700 -36.622300
38
Fragment
H -1.387700 -8.852900 -46.700500
H -1.254300 -9.961700 -47.541800
N -0.762300 -9.375300 -47.093300
N -0.146700 -10.117700 -46.005800
H 0.916600 -10.357500 -48.283500
C 0.951100 -10.742700 -46.375100
N 1.373800 -10.759200 -47.676700
H 1.403400 -11.465500 -44.628000
N 1.669700 -11.435900 -45.442900
H 2.098100 -11.173100 -47.887700
H 2.392500 -11.845800 -45.674500
H -4.755600 -8.796200 -42.136300
O -4.739400 -8.904600 -40.283600
C -4.251800 -9.083700 -41.406400
H -3.510800 -10.217100 -39.357300
H -3.388900 -11.843300 -37.396200
H -2.995700 -9.123900 -43.587300
C -2.978900 -9.699700 -41.684800
N -2.676800 -10.406800 -39.427600
C -2.562900 -11.449100 -37.234900
C -2.482300 -9.576500 -42.960000
H -2.235000 -12.321300 -35.438000
C -2.217500 -10.471700 -40.702800
C -2.002500 -10.594900 -38.184700
C -1.888000 -11.711900 -36.041800
N -1.303700 -10.082400 -43.352800
H -1.009500 -9.896000 -44.141400
C -0.984600 -11.030200 -41.136700
C -0.758000 -9.978900 -37.929700
C -0.676700 -11.046600 -35.754600
C -0.528600 -10.898800 -42.517400
H -0.394200 -9.384300 -38.545300
H -0.282200 -11.119700 -34.916200
C -0.096000 -11.744700 -40.283600
C -0.080000 -10.266400 -36.748300
O 0.524000 -11.416200 -42.951200
N 0.615700 -12.315500 -39.632800
H 0.784500 -9.938700 -36.622300
