26
Fragment
H -30.640600 -18.652400 -9.288100
H -30.363700 -16.379600 -9.402600
C -29.848200 -18.282900 -9.708100
C -29.667000 -16.921300 -9.758300
H -29.066100 -20.084100 -10.177300
C -28.926000 -19.120900 -10.249500
C -28.558200 -16.428700 -10.399200
H -28.361800 -15.528600 -10.503100
C -27.813300 -18.633300 -10.911600
C -27.610700 -17.256700 -11.001400
O -26.940200 -19.516400 -11.445100
C -26.518000 -16.677000 -11.736500
H -26.449600 -15.688800 -11.779600
H -26.327300 -19.153000 -11.902900
N -25.654000 -17.402900 -12.323700
N -24.682700 -16.744100 -13.025400
H -24.613200 -15.909100 -13.073800
C -23.752400 -17.428900 -13.722700
O -23.673800 -18.632300 -13.767600
N -22.941800 -15.234300 -14.505300
C -22.819300 -16.542800 -14.464000
N -21.910600 -14.867800 -15.288900
N -21.772400 -17.027400 -15.167400
H -21.753900 -14.046800 -15.477300
C -21.237100 -15.940100 -15.666600
H -20.441700 -15.929100 -16.243200
9
Fragment
H -27.219000 -13.383000 -9.028400
H -26.511900 -13.257900 -10.422100
H -26.482600 -10.841000 -9.720400
C -26.372000 -13.367000 -9.479200
O -26.255400 -11.063300 -8.964100
H -25.907400 -14.192000 -9.318100
C -25.634200 -12.338800 -9.012600
H -25.341400 -12.563100 -8.116300
H -24.839800 -12.264700 -9.565500
35
Fragment
H -30.640600 -18.652400 -9.288100
H -30.363700 -16.379600 -9.402600
C -29.848200 -18.282900 -9.708100
C -29.667000 -16.921300 -9.758300
H -29.066100 -20.084100 -10.177300
C -28.926000 -19.120900 -10.249500
C -28.558200 -16.428700 -10.399200
H -28.361800 -15.528600 -10.503100
C -27.813300 -18.633300 -10.911600
C -27.610700 -17.256700 -11.001400
O -26.940200 -19.516400 -11.445100
C -26.518000 -16.677000 -11.736500
H -26.449600 -15.688800 -11.779600
H -26.327300 -19.153000 -11.902900
N -25.654000 -17.402900 -12.323700
N -24.682700 -16.744100 -13.025400
H -24.613200 -15.909100 -13.073800
C -23.752400 -17.428900 -13.722700
O -23.673800 -18.632300 -13.767600
N -22.941800 -15.234300 -14.505300
C -22.819300 -16.542800 -14.464000
N -21.910600 -14.867800 -15.288900
N -21.772400 -17.027400 -15.167400
H -21.753900 -14.046800 -15.477300
C -21.237100 -15.940100 -15.666600
H -20.441700 -15.929100 -16.243200
H -27.219000 -13.383000 -9.028400
H -26.511900 -13.257900 -10.422100
H -26.482600 -10.841000 -9.720400
C -26.372000 -13.367000 -9.479200
O -26.255400 -11.063300 -8.964100
H -25.907400 -14.192000 -9.318100
C -25.634200 -12.338800 -9.012600
H -25.341400 -12.563100 -8.116300
H -24.839800 -12.264700 -9.565500
