26
Fragment
H -30.640600 -18.652400 -9.288100
H -30.363700 -16.379600 -9.402600
C -29.848200 -18.282900 -9.708100
C -29.667000 -16.921300 -9.758300
H -29.066100 -20.084100 -10.177300
C -28.926000 -19.120900 -10.249500
C -28.558200 -16.428700 -10.399200
H -28.361800 -15.528600 -10.503100
C -27.813300 -18.633300 -10.911600
C -27.610700 -17.256700 -11.001400
O -26.940200 -19.516400 -11.445100
C -26.518000 -16.677000 -11.736500
H -26.449600 -15.688800 -11.779600
H -26.327300 -19.153000 -11.902900
N -25.654000 -17.402900 -12.323700
N -24.682700 -16.744100 -13.025400
H -24.613200 -15.909100 -13.073800
C -23.752400 -17.428900 -13.722700
O -23.673800 -18.632300 -13.767600
N -22.941800 -15.234300 -14.505300
C -22.819300 -16.542800 -14.464000
N -21.910600 -14.867800 -15.288900
N -21.772400 -17.027400 -15.167400
H -21.753900 -14.046800 -15.477300
C -21.237100 -15.940100 -15.666600
H -20.441700 -15.929100 -16.243200
26
Fragment
H -30.161100 -16.389600 -13.690100
H -29.884200 -18.662400 -13.804500
C -29.368700 -16.759100 -14.110000
C -29.187500 -18.120700 -14.160200
H -28.586600 -14.957900 -14.579300
C -28.446500 -15.921100 -14.651500
C -28.078700 -18.613300 -14.801100
H -27.882300 -19.513400 -14.905000
C -27.333800 -16.408700 -15.313500
C -27.131200 -17.785300 -15.403300
O -26.460700 -15.525600 -15.847100
C -26.038500 -18.365000 -16.138500
H -25.970000 -19.353200 -16.181600
H -25.847700 -15.889000 -16.304900
N -25.174400 -17.639100 -16.725700
N -24.203200 -18.297900 -17.427400
H -24.133700 -19.132900 -17.475800
C -23.272800 -17.613100 -18.124600
O -23.194200 -16.409700 -18.169500
N -22.462300 -19.807700 -18.907300
C -22.339700 -18.499200 -18.865900
N -21.431100 -20.174200 -19.690800
N -21.292800 -18.014600 -19.569300
H -21.274300 -20.995200 -19.879200
C -20.757500 -19.101900 -20.068500
H -19.962100 -19.112900 -20.645200
52
Fragment
H -30.640600 -18.652400 -9.288100
H -30.363700 -16.379600 -9.402600
C -29.848200 -18.282900 -9.708100
C -29.667000 -16.921300 -9.758300
H -29.066100 -20.084100 -10.177300
C -28.926000 -19.120900 -10.249500
C -28.558200 -16.428700 -10.399200
H -28.361800 -15.528600 -10.503100
C -27.813300 -18.633300 -10.911600
C -27.610700 -17.256700 -11.001400
O -26.940200 -19.516400 -11.445100
C -26.518000 -16.677000 -11.736500
H -26.449600 -15.688800 -11.779600
H -26.327300 -19.153000 -11.902900
N -25.654000 -17.402900 -12.323700
N -24.682700 -16.744100 -13.025400
H -24.613200 -15.909100 -13.073800
C -23.752400 -17.428900 -13.722700
O -23.673800 -18.632300 -13.767600
N -22.941800 -15.234300 -14.505300
C -22.819300 -16.542800 -14.464000
N -21.910600 -14.867800 -15.288900
N -21.772400 -17.027400 -15.167400
H -21.753900 -14.046800 -15.477300
C -21.237100 -15.940100 -15.666600
H -20.441700 -15.929100 -16.243200
H -30.161100 -16.389600 -13.690100
H -29.884200 -18.662400 -13.804500
C -29.368700 -16.759100 -14.110000
C -29.187500 -18.120700 -14.160200
H -28.586600 -14.957900 -14.579300
C -28.446500 -15.921100 -14.651500
C -28.078700 -18.613300 -14.801100
H -27.882300 -19.513400 -14.905000
C -27.333800 -16.408700 -15.313500
C -27.131200 -17.785300 -15.403300
O -26.460700 -15.525600 -15.847100
C -26.038500 -18.365000 -16.138500
H -25.970000 -19.353200 -16.181600
H -25.847700 -15.889000 -16.304900
N -25.174400 -17.639100 -16.725700
N -24.203200 -18.297900 -17.427400
H -24.133700 -19.132900 -17.475800
C -23.272800 -17.613100 -18.124600
O -23.194200 -16.409700 -18.169500
N -22.462300 -19.807700 -18.907300
C -22.339700 -18.499200 -18.865900
N -21.431100 -20.174200 -19.690800
N -21.292800 -18.014600 -19.569300
H -21.274300 -20.995200 -19.879200
C -20.757500 -19.101900 -20.068500
H -19.962100 -19.112900 -20.645200
