26
Fragment
H -30.640600 -18.652400 -9.288100
H -30.363700 -16.379600 -9.402600
C -29.848200 -18.282900 -9.708100
C -29.667000 -16.921300 -9.758300
H -29.066100 -20.084100 -10.177300
C -28.926000 -19.120900 -10.249500
C -28.558200 -16.428700 -10.399200
H -28.361800 -15.528600 -10.503100
C -27.813300 -18.633300 -10.911600
C -27.610700 -17.256700 -11.001400
O -26.940200 -19.516400 -11.445100
C -26.518000 -16.677000 -11.736500
H -26.449600 -15.688800 -11.779600
H -26.327300 -19.153000 -11.902900
N -25.654000 -17.402900 -12.323700
N -24.682700 -16.744100 -13.025400
H -24.613200 -15.909100 -13.073800
C -23.752400 -17.428900 -13.722700
O -23.673800 -18.632300 -13.767600
N -22.941800 -15.234300 -14.505300
C -22.819300 -16.542800 -14.464000
N -21.910600 -14.867800 -15.288900
N -21.772400 -17.027400 -15.167400
H -21.753900 -14.046800 -15.477300
C -21.237100 -15.940100 -15.666600
H -20.441700 -15.929100 -16.243200
26
Fragment
H -39.376700 -10.923100 -5.766600
C -38.581300 -10.934100 -6.343200
H -38.064500 -9.040800 -6.532500
N -38.046000 -12.021400 -6.842400
N -37.907700 -9.861800 -6.720900
C -36.999100 -11.536800 -7.545800
N -36.876500 -10.228300 -7.504500
O -36.144600 -13.626300 -8.242200
C -36.066000 -12.422900 -8.287100
H -35.205200 -10.903100 -8.936000
N -35.135700 -11.738100 -8.984400
N -34.164400 -12.396900 -9.686100
H -33.491100 -14.147000 -10.106900
H -33.368800 -10.682800 -10.230200
C -33.300300 -11.671000 -10.273300
O -32.878200 -14.510400 -10.564700
C -32.207700 -12.250700 -11.008400
C -32.005000 -13.627300 -11.098200
H -31.456600 -10.522600 -11.506700
C -31.260200 -11.422700 -11.610600
C -30.892300 -14.114900 -11.760300
H -30.752300 -15.078100 -11.832500
C -30.151300 -11.915300 -12.251500
C -29.970100 -13.276900 -12.301700
H -29.454700 -11.373600 -12.607200
H -29.177800 -13.646400 -12.721700
52
Fragment
H -30.640600 -18.652400 -9.288100
H -30.363700 -16.379600 -9.402600
C -29.848200 -18.282900 -9.708100
C -29.667000 -16.921300 -9.758300
H -29.066100 -20.084100 -10.177300
C -28.926000 -19.120900 -10.249500
C -28.558200 -16.428700 -10.399200
H -28.361800 -15.528600 -10.503100
C -27.813300 -18.633300 -10.911600
C -27.610700 -17.256700 -11.001400
O -26.940200 -19.516400 -11.445100
C -26.518000 -16.677000 -11.736500
H -26.449600 -15.688800 -11.779600
H -26.327300 -19.153000 -11.902900
N -25.654000 -17.402900 -12.323700
N -24.682700 -16.744100 -13.025400
H -24.613200 -15.909100 -13.073800
C -23.752400 -17.428900 -13.722700
O -23.673800 -18.632300 -13.767600
N -22.941800 -15.234300 -14.505300
C -22.819300 -16.542800 -14.464000
N -21.910600 -14.867800 -15.288900
N -21.772400 -17.027400 -15.167400
H -21.753900 -14.046800 -15.477300
C -21.237100 -15.940100 -15.666600
H -20.441700 -15.929100 -16.243200
H -39.376700 -10.923100 -5.766600
C -38.581300 -10.934100 -6.343200
H -38.064500 -9.040800 -6.532500
N -38.046000 -12.021400 -6.842400
N -37.907700 -9.861800 -6.720900
C -36.999100 -11.536800 -7.545800
N -36.876500 -10.228300 -7.504500
O -36.144600 -13.626300 -8.242200
C -36.066000 -12.422900 -8.287100
H -35.205200 -10.903100 -8.936000
N -35.135700 -11.738100 -8.984400
N -34.164400 -12.396900 -9.686100
H -33.491100 -14.147000 -10.106900
H -33.368800 -10.682800 -10.230200
C -33.300300 -11.671000 -10.273300
O -32.878200 -14.510400 -10.564700
C -32.207700 -12.250700 -11.008400
C -32.005000 -13.627300 -11.098200
H -31.456600 -10.522600 -11.506700
C -31.260200 -11.422700 -11.610600
C -30.892300 -14.114900 -11.760300
H -30.752300 -15.078100 -11.832500
C -30.151300 -11.915300 -12.251500
C -29.970100 -13.276900 -12.301700
H -29.454700 -11.373600 -12.607200
H -29.177800 -13.646400 -12.721700
