26
Fragment
H -30.640600 -18.652400 -9.288100
H -30.363700 -16.379600 -9.402600
C -29.848200 -18.282900 -9.708100
C -29.667000 -16.921300 -9.758300
H -29.066100 -20.084100 -10.177300
C -28.926000 -19.120900 -10.249500
C -28.558200 -16.428700 -10.399200
H -28.361800 -15.528600 -10.503100
C -27.813300 -18.633300 -10.911600
C -27.610700 -17.256700 -11.001400
O -26.940200 -19.516400 -11.445100
C -26.518000 -16.677000 -11.736500
H -26.449600 -15.688800 -11.779600
H -26.327300 -19.153000 -11.902900
N -25.654000 -17.402900 -12.323700
N -24.682700 -16.744100 -13.025400
H -24.613200 -15.909100 -13.073800
C -23.752400 -17.428900 -13.722700
O -23.673800 -18.632300 -13.767600
N -22.941800 -15.234300 -14.505300
C -22.819300 -16.542800 -14.464000
N -21.910600 -14.867800 -15.288900
N -21.772400 -17.027400 -15.167400
H -21.753900 -14.046800 -15.477300
C -21.237100 -15.940100 -15.666600
H -20.441700 -15.929100 -16.243200
26
Fragment
H -39.376700 -20.935100 -5.766600
C -38.581300 -20.946100 -6.343200
H -38.064500 -19.052800 -6.532500
N -38.046000 -22.033400 -6.842400
N -37.907700 -19.873800 -6.720900
C -36.999100 -21.548800 -7.545800
N -36.876500 -20.240300 -7.504500
O -36.144600 -23.638300 -8.242200
C -36.066000 -22.434900 -8.287100
H -35.205200 -20.915100 -8.936000
N -35.135700 -21.750100 -8.984400
N -34.164400 -22.408900 -9.686100
H -33.491100 -24.159000 -10.106900
H -33.368800 -20.694800 -10.230200
C -33.300300 -21.683000 -10.273300
O -32.878200 -24.522400 -10.564700
C -32.207700 -22.262700 -11.008400
C -32.005000 -23.639300 -11.098200
H -31.456600 -20.534600 -11.506700
C -31.260200 -21.434700 -11.610600
C -30.892300 -24.126900 -11.760300
H -30.752300 -25.090100 -11.832500
C -30.151300 -21.927300 -12.251500
C -29.970100 -23.288900 -12.301700
H -29.454700 -21.385600 -12.607200
H -29.177800 -23.658400 -12.721700
52
Fragment
H -30.640600 -18.652400 -9.288100
H -30.363700 -16.379600 -9.402600
C -29.848200 -18.282900 -9.708100
C -29.667000 -16.921300 -9.758300
H -29.066100 -20.084100 -10.177300
C -28.926000 -19.120900 -10.249500
C -28.558200 -16.428700 -10.399200
H -28.361800 -15.528600 -10.503100
C -27.813300 -18.633300 -10.911600
C -27.610700 -17.256700 -11.001400
O -26.940200 -19.516400 -11.445100
C -26.518000 -16.677000 -11.736500
H -26.449600 -15.688800 -11.779600
H -26.327300 -19.153000 -11.902900
N -25.654000 -17.402900 -12.323700
N -24.682700 -16.744100 -13.025400
H -24.613200 -15.909100 -13.073800
C -23.752400 -17.428900 -13.722700
O -23.673800 -18.632300 -13.767600
N -22.941800 -15.234300 -14.505300
C -22.819300 -16.542800 -14.464000
N -21.910600 -14.867800 -15.288900
N -21.772400 -17.027400 -15.167400
H -21.753900 -14.046800 -15.477300
C -21.237100 -15.940100 -15.666600
H -20.441700 -15.929100 -16.243200
H -39.376700 -20.935100 -5.766600
C -38.581300 -20.946100 -6.343200
H -38.064500 -19.052800 -6.532500
N -38.046000 -22.033400 -6.842400
N -37.907700 -19.873800 -6.720900
C -36.999100 -21.548800 -7.545800
N -36.876500 -20.240300 -7.504500
O -36.144600 -23.638300 -8.242200
C -36.066000 -22.434900 -8.287100
H -35.205200 -20.915100 -8.936000
N -35.135700 -21.750100 -8.984400
N -34.164400 -22.408900 -9.686100
H -33.491100 -24.159000 -10.106900
H -33.368800 -20.694800 -10.230200
C -33.300300 -21.683000 -10.273300
O -32.878200 -24.522400 -10.564700
C -32.207700 -22.262700 -11.008400
C -32.005000 -23.639300 -11.098200
H -31.456600 -20.534600 -11.506700
C -31.260200 -21.434700 -11.610600
C -30.892300 -24.126900 -11.760300
H -30.752300 -25.090100 -11.832500
C -30.151300 -21.927300 -12.251500
C -29.970100 -23.288900 -12.301700
H -29.454700 -21.385600 -12.607200
H -29.177800 -23.658400 -12.721700
