3
Fragment
H -7.517600 -17.438000 -21.957200
O -7.359000 -17.230400 -22.759200
H -6.615300 -16.872400 -22.769700
19
Fragment
O -6.501100 -14.038800 -23.167500
N -5.444100 -14.555500 -23.577300
O -5.002700 -15.625400 -23.094000
N -4.822100 -13.899700 -24.568700
C -3.677900 -14.485100 -25.003900
H -3.308100 -13.318700 -26.548400
H -3.108400 -15.997300 -23.910700
N -3.033100 -13.971600 -26.065800
N -2.960600 -15.552500 -24.633400
C -1.944600 -14.761500 -26.293500
N -1.860100 -15.738600 -25.432800
N -1.100700 -13.558800 -28.192900
C -0.998100 -14.554500 -27.364400
O -0.061100 -13.683600 -29.072500
H 0.055300 -16.851100 -26.532500
C 0.145100 -15.352700 -27.715100
N 0.606200 -16.441300 -27.061100
N 0.717600 -14.820200 -28.769900
H 1.238000 -16.883100 -27.447300
22
Fragment
H -7.517600 -17.438000 -21.957200
O -7.359000 -17.230400 -22.759200
H -6.615300 -16.872400 -22.769700
O -6.501100 -14.038800 -23.167500
N -5.444100 -14.555500 -23.577300
O -5.002700 -15.625400 -23.094000
N -4.822100 -13.899700 -24.568700
C -3.677900 -14.485100 -25.003900
H -3.308100 -13.318700 -26.548400
H -3.108400 -15.997300 -23.910700
N -3.033100 -13.971600 -26.065800
N -2.960600 -15.552500 -24.633400
C -1.944600 -14.761500 -26.293500
N -1.860100 -15.738600 -25.432800
N -1.100700 -13.558800 -28.192900
C -0.998100 -14.554500 -27.364400
O -0.061100 -13.683600 -29.072500
H 0.055300 -16.851100 -26.532500
C 0.145100 -15.352700 -27.715100
N 0.606200 -16.441300 -27.061100
N 0.717600 -14.820200 -28.769900
H 1.238000 -16.883100 -27.447300
