3
Fragment
H -7.517600 -17.438000 -21.957200
O -7.359000 -17.230400 -22.759200
H -6.615300 -16.872400 -22.769700
19
Fragment
H -12.224700 -22.219100 -22.972800
N -11.704300 -20.156200 -21.650300
N -11.592900 -21.777300 -23.359100
C -11.131800 -20.688700 -22.705000
H -11.042000 -22.187100 -23.887600
O -10.925500 -19.019600 -21.347600
C -9.988500 -19.890500 -23.055700
N -9.886000 -18.894800 -22.227200
N -9.126500 -21.074600 -24.987300
C -9.042000 -20.097500 -24.126600
N -8.026000 -20.888500 -25.786700
N -7.953500 -19.307600 -24.354400
H -7.878200 -21.333300 -26.509500
H -7.678600 -18.654700 -23.871800
C -7.308700 -19.821100 -25.416200
N -6.164500 -19.235700 -25.851400
O -5.983900 -20.961400 -27.326100
N -5.542600 -19.891500 -26.842800
O -4.485600 -19.374800 -27.252600
22
Fragment
H -7.517600 -17.438000 -21.957200
O -7.359000 -17.230400 -22.759200
H -6.615300 -16.872400 -22.769700
H -12.224700 -22.219100 -22.972800
N -11.704300 -20.156200 -21.650300
N -11.592900 -21.777300 -23.359100
C -11.131800 -20.688700 -22.705000
H -11.042000 -22.187100 -23.887600
O -10.925500 -19.019600 -21.347600
C -9.988500 -19.890500 -23.055700
N -9.886000 -18.894800 -22.227200
N -9.126500 -21.074600 -24.987300
C -9.042000 -20.097500 -24.126600
N -8.026000 -20.888500 -25.786700
N -7.953500 -19.307600 -24.354400
H -7.878200 -21.333300 -26.509500
H -7.678600 -18.654700 -23.871800
C -7.308700 -19.821100 -25.416200
N -6.164500 -19.235700 -25.851400
O -5.983900 -20.961400 -27.326100
N -5.542600 -19.891500 -26.842800
O -4.485600 -19.374800 -27.252600
