10
Fragment
H -16.141400 -9.954300 -19.896000
H -15.923200 -10.764200 -18.533400
C -15.515800 -10.134300 -19.163900
H -15.306100 -9.297300 -18.700100
C -14.263300 -10.724100 -19.714400
O -14.209700 -11.184700 -20.841900
H -13.314000 -11.179100 -17.968000
C -13.069600 -10.763100 -18.820800
H -12.752000 -9.850100 -18.660000
H -12.359700 -11.285600 -19.247900
10
Fragment
H -20.620000 -5.759400 -18.360400
H -20.227600 -7.195000 -18.948300
C -19.910000 -6.281900 -18.787500
H -19.665600 -5.865900 -19.640300
O -18.769900 -5.860300 -16.766400
C -18.716300 -6.321000 -17.893900
H -17.673500 -7.747700 -18.908200
C -17.463800 -6.910700 -18.444400
H -17.056400 -6.280800 -19.074900
H -16.838200 -7.090700 -17.712300
20
Fragment
H -16.141400 -9.954300 -19.896000
H -15.923200 -10.764200 -18.533400
C -15.515800 -10.134300 -19.163900
H -15.306100 -9.297300 -18.700100
C -14.263300 -10.724100 -19.714400
O -14.209700 -11.184700 -20.841900
H -13.314000 -11.179100 -17.968000
C -13.069600 -10.763100 -18.820800
H -12.752000 -9.850100 -18.660000
H -12.359700 -11.285600 -19.247900
H -20.620000 -5.759400 -18.360400
H -20.227600 -7.195000 -18.948300
C -19.910000 -6.281900 -18.787500
H -19.665600 -5.865900 -19.640300
O -18.769900 -5.860300 -16.766400
C -18.716300 -6.321000 -17.893900
H -17.673500 -7.747700 -18.908200
C -17.463800 -6.910700 -18.444400
H -17.056400 -6.280800 -19.074900
H -16.838200 -7.090700 -17.712300
