10
Fragment
H -16.141400 -9.954300 -19.896000
H -15.923200 -10.764200 -18.533400
C -15.515800 -10.134300 -19.163900
H -15.306100 -9.297300 -18.700100
C -14.263300 -10.724100 -19.714400
O -14.209700 -11.184700 -20.841900
H -13.314000 -11.179100 -17.968000
C -13.069600 -10.763100 -18.820800
H -12.752000 -9.850100 -18.660000
H -12.359700 -11.285600 -19.247900
19
Fragment
O -15.492000 -7.419600 -22.046400
N -15.306100 -6.836300 -23.292800
N -14.389500 -8.134300 -21.662200
N -14.209700 -6.955100 -26.108700
C -14.119600 -7.193100 -23.686600
H -13.644500 -6.318400 -27.881500
C -13.579100 -6.735500 -24.972200
C -13.570000 -7.995500 -22.653700
N -13.386400 -6.355400 -27.018400
N -12.423000 -6.023900 -25.084200
C -12.346100 -5.822800 -26.389000
N -12.285500 -8.676700 -22.618900
O -12.065100 -5.100400 -28.987700
O -11.909700 -9.115600 -21.541800
O -11.700700 -8.763200 -23.681700
N -11.253600 -5.164300 -26.921400
N -11.242300 -4.673100 -28.190500
H -10.760800 -4.653100 -26.387200
O -10.371100 -3.843200 -28.431100
29
Fragment
H -16.141400 -9.954300 -19.896000
H -15.923200 -10.764200 -18.533400
C -15.515800 -10.134300 -19.163900
H -15.306100 -9.297300 -18.700100
C -14.263300 -10.724100 -19.714400
O -14.209700 -11.184700 -20.841900
H -13.314000 -11.179100 -17.968000
C -13.069600 -10.763100 -18.820800
H -12.752000 -9.850100 -18.660000
H -12.359700 -11.285600 -19.247900
O -15.492000 -7.419600 -22.046400
N -15.306100 -6.836300 -23.292800
N -14.389500 -8.134300 -21.662200
N -14.209700 -6.955100 -26.108700
C -14.119600 -7.193100 -23.686600
H -13.644500 -6.318400 -27.881500
C -13.579100 -6.735500 -24.972200
C -13.570000 -7.995500 -22.653700
N -13.386400 -6.355400 -27.018400
N -12.423000 -6.023900 -25.084200
C -12.346100 -5.822800 -26.389000
N -12.285500 -8.676700 -22.618900
O -12.065100 -5.100400 -28.987700
O -11.909700 -9.115600 -21.541800
O -11.700700 -8.763200 -23.681700
N -11.253600 -5.164300 -26.921400
N -11.242300 -4.673100 -28.190500
H -10.760800 -4.653100 -26.387200
O -10.371100 -3.843200 -28.431100
