3
Fragment
H -7.517600 -17.438000 -21.957200
O -7.359000 -17.230400 -22.759200
H -6.615300 -16.872400 -22.769700
19
Fragment
H -6.522300 -22.219100 -22.972800
N -6.001900 -20.156200 -21.650300
N -5.890500 -21.777300 -23.359100
C -5.429400 -20.688700 -22.705000
H -5.339600 -22.187100 -23.887600
O -5.223100 -19.019600 -21.347600
C -4.286100 -19.890500 -23.055700
N -4.183600 -18.894800 -22.227200
N -3.424100 -21.074600 -24.987300
C -3.339600 -20.097500 -24.126600
N -2.323600 -20.888500 -25.786700
N -2.251100 -19.307600 -24.354400
H -2.175800 -21.333300 -26.509500
H -1.976200 -18.654700 -23.871800
C -1.606300 -19.821100 -25.416200
N -0.462100 -19.235700 -25.851400
O -0.281500 -20.961400 -27.326100
N 0.159800 -19.891500 -26.842800
O 1.216800 -19.374800 -27.252600
22
Fragment
H -7.517600 -17.438000 -21.957200
O -7.359000 -17.230400 -22.759200
H -6.615300 -16.872400 -22.769700
H -6.522300 -22.219100 -22.972800
N -6.001900 -20.156200 -21.650300
N -5.890500 -21.777300 -23.359100
C -5.429400 -20.688700 -22.705000
H -5.339600 -22.187100 -23.887600
O -5.223100 -19.019600 -21.347600
C -4.286100 -19.890500 -23.055700
N -4.183600 -18.894800 -22.227200
N -3.424100 -21.074600 -24.987300
C -3.339600 -20.097500 -24.126600
N -2.323600 -20.888500 -25.786700
N -2.251100 -19.307600 -24.354400
H -2.175800 -21.333300 -26.509500
H -1.976200 -18.654700 -23.871800
C -1.606300 -19.821100 -25.416200
N -0.462100 -19.235700 -25.851400
O -0.281500 -20.961400 -27.326100
N 0.159800 -19.891500 -26.842800
O 1.216800 -19.374800 -27.252600
