19
Fragment
O -17.119100 -9.863000 -19.993500
H -16.900100 -13.471200 -17.760200
N -16.879600 -8.768900 -19.135600
N -16.868100 -11.057900 -19.362400
C -16.488200 -10.736400 -18.158600
C -16.487400 -9.315500 -18.010700
N -16.447800 -13.030800 -17.139400
N -16.197700 -8.638300 -16.888900
H -16.187700 -7.762100 -16.853300
C -16.162700 -11.701700 -17.127500
N -16.158500 -14.843500 -15.692700
C -16.001800 -13.527900 -15.969000
H -15.883500 -9.049800 -16.194700
O -15.874700 -16.431100 -14.208100
N -15.686100 -15.231600 -14.499600
N -15.571300 -11.330700 -16.025200
N -15.462600 -12.493300 -15.304000
H -15.150200 -12.498700 -14.474800
O -15.083400 -14.464400 -13.735700
19
Fragment
O -13.508600 -12.550000 -18.653700
H -13.441900 -14.515700 -17.914600
N -13.129500 -14.521100 -17.085400
N -13.020700 -15.683700 -16.364200
N -12.905900 -11.782800 -17.889700
O -12.717300 -10.583300 -18.181200
H -12.708500 -17.964600 -16.194700
C -12.590200 -13.486500 -16.420300
N -12.433600 -12.170900 -16.696700
C -12.429400 -15.312700 -15.261900
H -12.404300 -19.252300 -15.536100
N -12.394300 -18.376100 -15.500500
N -12.144200 -13.983600 -15.250000
C -12.104600 -17.698900 -14.378700
C -12.103800 -16.278000 -14.230800
N -11.724000 -15.956500 -13.027000
N -11.712500 -18.245500 -13.253700
H -11.692000 -13.543200 -14.629200
O -11.473000 -17.151400 -12.395800
38
Fragment
O -17.119100 -9.863000 -19.993500
H -16.900100 -13.471200 -17.760200
N -16.879600 -8.768900 -19.135600
N -16.868100 -11.057900 -19.362400
C -16.488200 -10.736400 -18.158600
C -16.487400 -9.315500 -18.010700
N -16.447800 -13.030800 -17.139400
N -16.197700 -8.638300 -16.888900
H -16.187700 -7.762100 -16.853300
C -16.162700 -11.701700 -17.127500
N -16.158500 -14.843500 -15.692700
C -16.001800 -13.527900 -15.969000
H -15.883500 -9.049800 -16.194700
O -15.874700 -16.431100 -14.208100
N -15.686100 -15.231600 -14.499600
N -15.571300 -11.330700 -16.025200
N -15.462600 -12.493300 -15.304000
H -15.150200 -12.498700 -14.474800
O -15.083400 -14.464400 -13.735700
O -13.508600 -12.550000 -18.653700
H -13.441900 -14.515700 -17.914600
N -13.129500 -14.521100 -17.085400
N -13.020700 -15.683700 -16.364200
N -12.905900 -11.782800 -17.889700
O -12.717300 -10.583300 -18.181200
H -12.708500 -17.964600 -16.194700
C -12.590200 -13.486500 -16.420300
N -12.433600 -12.170900 -16.696700
C -12.429400 -15.312700 -15.261900
H -12.404300 -19.252300 -15.536100
N -12.394300 -18.376100 -15.500500
N -12.144200 -13.983600 -15.250000
C -12.104600 -17.698900 -14.378700
C -12.103800 -16.278000 -14.230800
N -11.724000 -15.956500 -13.027000
N -11.712500 -18.245500 -13.253700
H -11.692000 -13.543200 -14.629200
O -11.473000 -17.151400 -12.395800
