19
Fragment
O -17.119100 -9.863000 -19.993500
H -16.900100 -13.471200 -17.760200
N -16.879600 -8.768900 -19.135600
N -16.868100 -11.057900 -19.362400
C -16.488200 -10.736400 -18.158600
C -16.487400 -9.315500 -18.010700
N -16.447800 -13.030800 -17.139400
N -16.197700 -8.638300 -16.888900
H -16.187700 -7.762100 -16.853300
C -16.162700 -11.701700 -17.127500
N -16.158500 -14.843500 -15.692700
C -16.001800 -13.527900 -15.969000
H -15.883500 -9.049800 -16.194700
O -15.874700 -16.431100 -14.208100
N -15.686100 -15.231600 -14.499600
N -15.571300 -11.330700 -16.025200
N -15.462600 -12.493300 -15.304000
H -15.150200 -12.498700 -14.474800
O -15.083400 -14.464400 -13.735700
19
Fragment
O -15.042800 -18.966800 -13.255500
H -14.976000 -17.001100 -12.516300
N -14.663600 -16.995700 -11.687200
N -14.554900 -15.833100 -10.966000
N -14.440100 -19.734000 -12.491500
O -14.251500 -20.933500 -12.783000
H -14.242700 -13.552200 -10.796500
C -14.124400 -18.030300 -11.022100
N -13.967700 -19.345900 -11.298500
C -13.963500 -16.204100 -9.863600
H -13.938500 -12.264500 -10.137900
N -13.928500 -13.140700 -10.102200
N -13.678400 -17.533200 -9.851800
C -13.638700 -13.817900 -8.980500
C -13.637900 -15.238800 -8.832600
N -13.258100 -15.560300 -7.628800
N -13.246600 -13.271300 -7.855500
H -13.226100 -17.973600 -9.231000
O -13.007100 -14.365400 -6.997600
38
Fragment
O -17.119100 -9.863000 -19.993500
H -16.900100 -13.471200 -17.760200
N -16.879600 -8.768900 -19.135600
N -16.868100 -11.057900 -19.362400
C -16.488200 -10.736400 -18.158600
C -16.487400 -9.315500 -18.010700
N -16.447800 -13.030800 -17.139400
N -16.197700 -8.638300 -16.888900
H -16.187700 -7.762100 -16.853300
C -16.162700 -11.701700 -17.127500
N -16.158500 -14.843500 -15.692700
C -16.001800 -13.527900 -15.969000
H -15.883500 -9.049800 -16.194700
O -15.874700 -16.431100 -14.208100
N -15.686100 -15.231600 -14.499600
N -15.571300 -11.330700 -16.025200
N -15.462600 -12.493300 -15.304000
H -15.150200 -12.498700 -14.474800
O -15.083400 -14.464400 -13.735700
O -15.042800 -18.966800 -13.255500
H -14.976000 -17.001100 -12.516300
N -14.663600 -16.995700 -11.687200
N -14.554900 -15.833100 -10.966000
N -14.440100 -19.734000 -12.491500
O -14.251500 -20.933500 -12.783000
H -14.242700 -13.552200 -10.796500
C -14.124400 -18.030300 -11.022100
N -13.967700 -19.345900 -11.298500
C -13.963500 -16.204100 -9.863600
H -13.938500 -12.264500 -10.137900
N -13.928500 -13.140700 -10.102200
N -13.678400 -17.533200 -9.851800
C -13.638700 -13.817900 -8.980500
C -13.637900 -15.238800 -8.832600
N -13.258100 -15.560300 -7.628800
N -13.246600 -13.271300 -7.855500
H -13.226100 -17.973600 -9.231000
O -13.007100 -14.365400 -6.997600
