19
Fragment
O -17.119100 -9.863000 -19.993500
H -16.900100 -13.471200 -17.760200
N -16.879600 -8.768900 -19.135600
N -16.868100 -11.057900 -19.362400
C -16.488200 -10.736400 -18.158600
C -16.487400 -9.315500 -18.010700
N -16.447800 -13.030800 -17.139400
N -16.197700 -8.638300 -16.888900
H -16.187700 -7.762100 -16.853300
C -16.162700 -11.701700 -17.127500
N -16.158500 -14.843500 -15.692700
C -16.001800 -13.527900 -15.969000
H -15.883500 -9.049800 -16.194700
O -15.874700 -16.431100 -14.208100
N -15.686100 -15.231600 -14.499600
N -15.571300 -11.330700 -16.025200
N -15.462600 -12.493300 -15.304000
H -15.150200 -12.498700 -14.474800
O -15.083400 -14.464400 -13.735700
12
Fragment
H -22.892300 -10.091700 -17.657600
H -22.580200 -11.061500 -15.661300
C -21.969200 -10.127700 -17.882200
O -21.627700 -9.700000 -18.990900
C -21.611000 -11.186700 -15.733700
H -21.402900 -12.143900 -15.703500
H -21.166300 -10.731900 -14.988700
N -21.142000 -10.628400 -16.993600
C -19.726600 -10.758900 -17.297000
H -19.519900 -11.696300 -17.492400
H -19.506700 -10.206000 -18.075400
H -19.198600 -10.461800 -16.526100
31
Fragment
O -17.119100 -9.863000 -19.993500
H -16.900100 -13.471200 -17.760200
N -16.879600 -8.768900 -19.135600
N -16.868100 -11.057900 -19.362400
C -16.488200 -10.736400 -18.158600
C -16.487400 -9.315500 -18.010700
N -16.447800 -13.030800 -17.139400
N -16.197700 -8.638300 -16.888900
H -16.187700 -7.762100 -16.853300
C -16.162700 -11.701700 -17.127500
N -16.158500 -14.843500 -15.692700
C -16.001800 -13.527900 -15.969000
H -15.883500 -9.049800 -16.194700
O -15.874700 -16.431100 -14.208100
N -15.686100 -15.231600 -14.499600
N -15.571300 -11.330700 -16.025200
N -15.462600 -12.493300 -15.304000
H -15.150200 -12.498700 -14.474800
O -15.083400 -14.464400 -13.735700
H -22.892300 -10.091700 -17.657600
H -22.580200 -11.061500 -15.661300
C -21.969200 -10.127700 -17.882200
O -21.627700 -9.700000 -18.990900
C -21.611000 -11.186700 -15.733700
H -21.402900 -12.143900 -15.703500
H -21.166300 -10.731900 -14.988700
N -21.142000 -10.628400 -16.993600
C -19.726600 -10.758900 -17.297000
H -19.519900 -11.696300 -17.492400
H -19.506700 -10.206000 -18.075400
H -19.198600 -10.461800 -16.526100
