19
Fragment
O -17.119100 -9.863000 -19.993500
H -16.900100 -13.471200 -17.760200
N -16.879600 -8.768900 -19.135600
N -16.868100 -11.057900 -19.362400
C -16.488200 -10.736400 -18.158600
C -16.487400 -9.315500 -18.010700
N -16.447800 -13.030800 -17.139400
N -16.197700 -8.638300 -16.888900
H -16.187700 -7.762100 -16.853300
C -16.162700 -11.701700 -17.127500
N -16.158500 -14.843500 -15.692700
C -16.001800 -13.527900 -15.969000
H -15.883500 -9.049800 -16.194700
O -15.874700 -16.431100 -14.208100
N -15.686100 -15.231600 -14.499600
N -15.571300 -11.330700 -16.025200
N -15.462600 -12.493300 -15.304000
H -15.150200 -12.498700 -14.474800
O -15.083400 -14.464400 -13.735700
19
Fragment
O -15.584900 -12.649000 -25.391800
H -15.365900 -9.040800 -23.158400
N -15.345400 -13.743100 -24.533900
N -15.333900 -11.454100 -24.760600
C -14.954100 -11.775600 -23.556800
C -14.953300 -13.196500 -23.408900
N -14.913600 -9.481200 -22.537600
N -14.663600 -13.873700 -22.287100
H -14.653500 -14.749900 -22.251500
C -14.628500 -10.810300 -22.525700
N -14.624300 -7.668500 -21.090900
C -14.467600 -8.984100 -21.367300
H -14.349300 -13.462200 -21.592900
O -14.340500 -6.080900 -19.606400
N -14.152000 -7.280400 -19.897900
N -14.037200 -11.181300 -21.423400
N -13.928400 -10.018700 -20.702200
H -13.616000 -10.013300 -19.873000
O -13.549300 -8.047600 -19.133900
38
Fragment
O -17.119100 -9.863000 -19.993500
H -16.900100 -13.471200 -17.760200
N -16.879600 -8.768900 -19.135600
N -16.868100 -11.057900 -19.362400
C -16.488200 -10.736400 -18.158600
C -16.487400 -9.315500 -18.010700
N -16.447800 -13.030800 -17.139400
N -16.197700 -8.638300 -16.888900
H -16.187700 -7.762100 -16.853300
C -16.162700 -11.701700 -17.127500
N -16.158500 -14.843500 -15.692700
C -16.001800 -13.527900 -15.969000
H -15.883500 -9.049800 -16.194700
O -15.874700 -16.431100 -14.208100
N -15.686100 -15.231600 -14.499600
N -15.571300 -11.330700 -16.025200
N -15.462600 -12.493300 -15.304000
H -15.150200 -12.498700 -14.474800
O -15.083400 -14.464400 -13.735700
O -15.584900 -12.649000 -25.391800
H -15.365900 -9.040800 -23.158400
N -15.345400 -13.743100 -24.533900
N -15.333900 -11.454100 -24.760600
C -14.954100 -11.775600 -23.556800
C -14.953300 -13.196500 -23.408900
N -14.913600 -9.481200 -22.537600
N -14.663600 -13.873700 -22.287100
H -14.653500 -14.749900 -22.251500
C -14.628500 -10.810300 -22.525700
N -14.624300 -7.668500 -21.090900
C -14.467600 -8.984100 -21.367300
H -14.349300 -13.462200 -21.592900
O -14.340500 -6.080900 -19.606400
N -14.152000 -7.280400 -19.897900
N -14.037200 -11.181300 -21.423400
N -13.928400 -10.018700 -20.702200
H -13.616000 -10.013300 -19.873000
O -13.549300 -8.047600 -19.133900
