15
Fragment
H -31.511400 -9.054900 -29.359300
O -31.270100 -6.934100 -30.667600
H -30.969000 -6.331100 -31.135000
C -30.634000 -8.933600 -29.642900
C -30.285100 -7.820300 -30.382200
O -30.073600 -10.944500 -28.609000
C -29.666000 -9.862000 -29.331500
H -29.420500 -11.381200 -28.377900
C -28.981400 -7.645500 -30.818900
H -28.754100 -6.905500 -31.334300
C -28.358800 -9.697100 -29.746800
C -28.025400 -8.578900 -30.481800
H -27.712900 -10.331500 -29.534000
O -26.740000 -8.318400 -30.876900
H -26.298500 -9.009200 -30.843500
22
Fragment
H -33.614300 -11.863600 -34.314900
H -33.115400 -10.747500 -35.297700
H -32.876400 -11.865000 -32.036800
C -32.855300 -11.307000 -34.548500
N -32.515900 -10.456400 -33.409000
C -32.124400 -11.307700 -32.290900
H -32.101100 -13.554100 -33.546500
H -31.897000 -10.750400 -31.530400
N -31.733000 -12.166200 -34.955100
H -31.598500 -9.079100 -34.533100
C -31.354900 -12.982500 -33.787800
C -31.354900 -9.651400 -33.787800
H -31.111300 -9.079100 -33.042600
N -30.976800 -12.166200 -32.620500
H -30.812700 -10.750400 -36.045200
H -30.608600 -13.554100 -34.029200
C -30.585400 -11.307700 -35.284700
N -30.193900 -10.456400 -34.166600
C -29.854400 -11.307000 -33.027100
H -29.833400 -11.865000 -35.538800
H -29.594300 -10.747500 -32.278000
H -29.095400 -11.863600 -33.260700
37
Fragment
H -31.511400 -9.054900 -29.359300
O -31.270100 -6.934100 -30.667600
H -30.969000 -6.331100 -31.135000
C -30.634000 -8.933600 -29.642900
C -30.285100 -7.820300 -30.382200
O -30.073600 -10.944500 -28.609000
C -29.666000 -9.862000 -29.331500
H -29.420500 -11.381200 -28.377900
C -28.981400 -7.645500 -30.818900
H -28.754100 -6.905500 -31.334300
C -28.358800 -9.697100 -29.746800
C -28.025400 -8.578900 -30.481800
H -27.712900 -10.331500 -29.534000
O -26.740000 -8.318400 -30.876900
H -26.298500 -9.009200 -30.843500
H -33.614300 -11.863600 -34.314900
H -33.115400 -10.747500 -35.297700
H -32.876400 -11.865000 -32.036800
C -32.855300 -11.307000 -34.548500
N -32.515900 -10.456400 -33.409000
C -32.124400 -11.307700 -32.290900
H -32.101100 -13.554100 -33.546500
H -31.897000 -10.750400 -31.530400
N -31.733000 -12.166200 -34.955100
H -31.598500 -9.079100 -34.533100
C -31.354900 -12.982500 -33.787800
C -31.354900 -9.651400 -33.787800
H -31.111300 -9.079100 -33.042600
N -30.976800 -12.166200 -32.620500
H -30.812700 -10.750400 -36.045200
H -30.608600 -13.554100 -34.029200
C -30.585400 -11.307700 -35.284700
N -30.193900 -10.456400 -34.166600
C -29.854400 -11.307000 -33.027100
H -29.833400 -11.865000 -35.538800
H -29.594300 -10.747500 -32.278000
H -29.095400 -11.863600 -33.260700
