15
Fragment
H -31.511400 -9.054900 -29.359300
O -31.270100 -6.934100 -30.667600
H -30.969000 -6.331100 -31.135000
C -30.634000 -8.933600 -29.642900
C -30.285100 -7.820300 -30.382200
O -30.073600 -10.944500 -28.609000
C -29.666000 -9.862000 -29.331500
H -29.420500 -11.381200 -28.377900
C -28.981400 -7.645500 -30.818900
H -28.754100 -6.905500 -31.334300
C -28.358800 -9.697100 -29.746800
C -28.025400 -8.578900 -30.481800
H -27.712900 -10.331500 -29.534000
O -26.740000 -8.318400 -30.876900
H -26.298500 -9.009200 -30.843500
15
Fragment
H -37.566200 -12.398800 -27.078500
O -37.124700 -13.089600 -27.045100
H -36.151800 -11.076500 -28.388000
C -35.839200 -12.829100 -27.440200
C -35.505900 -11.710900 -28.175200
H -35.110500 -14.502500 -26.587700
C -34.883200 -13.762500 -27.103000
H -34.444200 -10.026800 -29.544100
C -34.198600 -11.546000 -28.590500
O -33.791000 -10.463500 -29.313000
C -33.579600 -13.587700 -27.539800
C -33.230600 -12.474400 -28.279100
H -32.895600 -15.076900 -26.787000
O -32.594500 -14.473900 -27.254400
H -32.353300 -12.353100 -28.562700
30
Fragment
H -31.511400 -9.054900 -29.359300
O -31.270100 -6.934100 -30.667600
H -30.969000 -6.331100 -31.135000
C -30.634000 -8.933600 -29.642900
C -30.285100 -7.820300 -30.382200
O -30.073600 -10.944500 -28.609000
C -29.666000 -9.862000 -29.331500
H -29.420500 -11.381200 -28.377900
C -28.981400 -7.645500 -30.818900
H -28.754100 -6.905500 -31.334300
C -28.358800 -9.697100 -29.746800
C -28.025400 -8.578900 -30.481800
H -27.712900 -10.331500 -29.534000
O -26.740000 -8.318400 -30.876900
H -26.298500 -9.009200 -30.843500
H -37.566200 -12.398800 -27.078500
O -37.124700 -13.089600 -27.045100
H -36.151800 -11.076500 -28.388000
C -35.839200 -12.829100 -27.440200
C -35.505900 -11.710900 -28.175200
H -35.110500 -14.502500 -26.587700
C -34.883200 -13.762500 -27.103000
H -34.444200 -10.026800 -29.544100
C -34.198600 -11.546000 -28.590500
O -33.791000 -10.463500 -29.313000
C -33.579600 -13.587700 -27.539800
C -33.230600 -12.474400 -28.279100
H -32.895600 -15.076900 -26.787000
O -32.594500 -14.473900 -27.254400
H -32.353300 -12.353100 -28.562700
