15
Fragment
H -31.511400 -9.054900 -29.359300
O -31.270100 -6.934100 -30.667600
H -30.969000 -6.331100 -31.135000
C -30.634000 -8.933600 -29.642900
C -30.285100 -7.820300 -30.382200
O -30.073600 -10.944500 -28.609000
C -29.666000 -9.862000 -29.331500
H -29.420500 -11.381200 -28.377900
C -28.981400 -7.645500 -30.818900
H -28.754100 -6.905500 -31.334300
C -28.358800 -9.697100 -29.746800
C -28.025400 -8.578900 -30.481800
H -27.712900 -10.331500 -29.534000
O -26.740000 -8.318400 -30.876900
H -26.298500 -9.009200 -30.843500
22
Fragment
H -26.449500 -4.694800 -31.953600
H -26.034800 -3.606500 -33.003900
C -25.699800 -4.189500 -32.303100
H -25.359100 -4.771800 -29.807600
N -25.125300 -3.363900 -31.221500
H -24.962500 -6.500200 -31.449700
N -24.730500 -5.110800 -32.875900
C -24.617800 -4.270900 -30.182600
H -24.289600 -2.033000 -32.482700
C -24.229300 -5.970700 -31.799200
H -24.221300 -3.747100 -29.468800
C -23.973400 -2.631000 -31.787600
H -23.903400 -3.752100 -34.096700
N -23.622800 -5.203600 -30.702300
C -23.595300 -4.332300 -33.384300
H -23.570200 -2.089400 -31.090600
H -23.569000 -6.580800 -32.162100
N -22.960200 -3.518000 -32.347100
H -22.937200 -4.938800 -33.756900
C -22.508800 -4.412200 -31.275900
H -22.097800 -3.884800 -30.573200
H -21.836200 -5.016600 -31.627300
37
Fragment
H -31.511400 -9.054900 -29.359300
O -31.270100 -6.934100 -30.667600
H -30.969000 -6.331100 -31.135000
C -30.634000 -8.933600 -29.642900
C -30.285100 -7.820300 -30.382200
O -30.073600 -10.944500 -28.609000
C -29.666000 -9.862000 -29.331500
H -29.420500 -11.381200 -28.377900
C -28.981400 -7.645500 -30.818900
H -28.754100 -6.905500 -31.334300
C -28.358800 -9.697100 -29.746800
C -28.025400 -8.578900 -30.481800
H -27.712900 -10.331500 -29.534000
O -26.740000 -8.318400 -30.876900
H -26.298500 -9.009200 -30.843500
H -26.449500 -4.694800 -31.953600
H -26.034800 -3.606500 -33.003900
C -25.699800 -4.189500 -32.303100
H -25.359100 -4.771800 -29.807600
N -25.125300 -3.363900 -31.221500
H -24.962500 -6.500200 -31.449700
N -24.730500 -5.110800 -32.875900
C -24.617800 -4.270900 -30.182600
H -24.289600 -2.033000 -32.482700
C -24.229300 -5.970700 -31.799200
H -24.221300 -3.747100 -29.468800
C -23.973400 -2.631000 -31.787600
H -23.903400 -3.752100 -34.096700
N -23.622800 -5.203600 -30.702300
C -23.595300 -4.332300 -33.384300
H -23.570200 -2.089400 -31.090600
H -23.569000 -6.580800 -32.162100
N -22.960200 -3.518000 -32.347100
H -22.937200 -4.938800 -33.756900
C -22.508800 -4.412200 -31.275900
H -22.097800 -3.884800 -30.573200
H -21.836200 -5.016600 -31.627300
