15
Fragment
H -31.511400 -9.054900 -29.359300
O -31.270100 -6.934100 -30.667600
H -30.969000 -6.331100 -31.135000
C -30.634000 -8.933600 -29.642900
C -30.285100 -7.820300 -30.382200
O -30.073600 -10.944500 -28.609000
C -29.666000 -9.862000 -29.331500
H -29.420500 -11.381200 -28.377900
C -28.981400 -7.645500 -30.818900
H -28.754100 -6.905500 -31.334300
C -28.358800 -9.697100 -29.746800
C -28.025400 -8.578900 -30.481800
H -27.712900 -10.331500 -29.534000
O -26.740000 -8.318400 -30.876900
H -26.298500 -9.009200 -30.843500
22
Fragment
H -29.074500 -8.584600 -35.948300
H -28.813000 -7.452800 -37.002500
C -28.402000 -7.980200 -36.299700
H -27.973600 -8.506800 -33.818700
N -27.950500 -7.086000 -35.228500
H -27.341800 -10.148800 -35.413500
H -27.340500 -5.657400 -36.485100
C -27.315500 -7.900300 -34.191300
N -27.288000 -8.771600 -36.873300
H -27.007300 -7.320100 -33.478900
C -26.937300 -6.199000 -35.788100
H -26.689400 -7.315100 -38.106900
C -26.681500 -9.538700 -35.776500
H -26.621200 -5.601000 -35.093000
C -26.292900 -7.838900 -37.393100
N -26.180200 -8.678800 -34.699700
H -25.948300 -10.068200 -36.125900
N -25.785500 -6.931900 -36.354200
H -25.551700 -8.339800 -37.768000
C -25.211000 -7.757500 -35.272600
H -24.876000 -7.174500 -34.571700
H -24.461200 -8.262800 -35.622000
37
Fragment
H -31.511400 -9.054900 -29.359300
O -31.270100 -6.934100 -30.667600
H -30.969000 -6.331100 -31.135000
C -30.634000 -8.933600 -29.642900
C -30.285100 -7.820300 -30.382200
O -30.073600 -10.944500 -28.609000
C -29.666000 -9.862000 -29.331500
H -29.420500 -11.381200 -28.377900
C -28.981400 -7.645500 -30.818900
H -28.754100 -6.905500 -31.334300
C -28.358800 -9.697100 -29.746800
C -28.025400 -8.578900 -30.481800
H -27.712900 -10.331500 -29.534000
O -26.740000 -8.318400 -30.876900
H -26.298500 -9.009200 -30.843500
H -29.074500 -8.584600 -35.948300
H -28.813000 -7.452800 -37.002500
C -28.402000 -7.980200 -36.299700
H -27.973600 -8.506800 -33.818700
N -27.950500 -7.086000 -35.228500
H -27.341800 -10.148800 -35.413500
H -27.340500 -5.657400 -36.485100
C -27.315500 -7.900300 -34.191300
N -27.288000 -8.771600 -36.873300
H -27.007300 -7.320100 -33.478900
C -26.937300 -6.199000 -35.788100
H -26.689400 -7.315100 -38.106900
C -26.681500 -9.538700 -35.776500
H -26.621200 -5.601000 -35.093000
C -26.292900 -7.838900 -37.393100
N -26.180200 -8.678800 -34.699700
H -25.948300 -10.068200 -36.125900
N -25.785500 -6.931900 -36.354200
H -25.551700 -8.339800 -37.768000
C -25.211000 -7.757500 -35.272600
H -24.876000 -7.174500 -34.571700
H -24.461200 -8.262800 -35.622000
