15
Fragment
H -31.511400 -9.054900 -29.359300
O -31.270100 -6.934100 -30.667600
H -30.969000 -6.331100 -31.135000
C -30.634000 -8.933600 -29.642900
C -30.285100 -7.820300 -30.382200
O -30.073600 -10.944500 -28.609000
C -29.666000 -9.862000 -29.331500
H -29.420500 -11.381200 -28.377900
C -28.981400 -7.645500 -30.818900
H -28.754100 -6.905500 -31.334300
C -28.358800 -9.697100 -29.746800
C -28.025400 -8.578900 -30.481800
H -27.712900 -10.331500 -29.534000
O -26.740000 -8.318400 -30.876900
H -26.298500 -9.009200 -30.843500
22
Fragment
H -38.248500 -8.262800 -31.953600
H -37.833800 -7.174500 -33.003900
C -37.498800 -7.757500 -32.303100
H -37.158100 -8.339800 -29.807600
N -36.924300 -6.931900 -31.221500
H -36.761500 -10.068200 -31.449700
N -36.529500 -8.678800 -32.875900
C -36.416800 -7.838900 -30.182600
H -36.088600 -5.601000 -32.482700
C -36.028300 -9.538700 -31.799200
H -36.020300 -7.315100 -29.468800
C -35.772400 -6.199000 -31.787600
H -35.702400 -7.320100 -34.096700
N -35.421800 -8.771600 -30.702300
C -35.394300 -7.900300 -33.384300
H -35.369200 -5.657400 -31.090600
H -35.368000 -10.148800 -32.162100
N -34.759200 -7.086000 -32.347100
H -34.736200 -8.506800 -33.756900
C -34.307800 -7.980200 -31.275900
H -33.896800 -7.452800 -30.573200
H -33.635200 -8.584600 -31.627300
37
Fragment
H -31.511400 -9.054900 -29.359300
O -31.270100 -6.934100 -30.667600
H -30.969000 -6.331100 -31.135000
C -30.634000 -8.933600 -29.642900
C -30.285100 -7.820300 -30.382200
O -30.073600 -10.944500 -28.609000
C -29.666000 -9.862000 -29.331500
H -29.420500 -11.381200 -28.377900
C -28.981400 -7.645500 -30.818900
H -28.754100 -6.905500 -31.334300
C -28.358800 -9.697100 -29.746800
C -28.025400 -8.578900 -30.481800
H -27.712900 -10.331500 -29.534000
O -26.740000 -8.318400 -30.876900
H -26.298500 -9.009200 -30.843500
H -38.248500 -8.262800 -31.953600
H -37.833800 -7.174500 -33.003900
C -37.498800 -7.757500 -32.303100
H -37.158100 -8.339800 -29.807600
N -36.924300 -6.931900 -31.221500
H -36.761500 -10.068200 -31.449700
N -36.529500 -8.678800 -32.875900
C -36.416800 -7.838900 -30.182600
H -36.088600 -5.601000 -32.482700
C -36.028300 -9.538700 -31.799200
H -36.020300 -7.315100 -29.468800
C -35.772400 -6.199000 -31.787600
H -35.702400 -7.320100 -34.096700
N -35.421800 -8.771600 -30.702300
C -35.394300 -7.900300 -33.384300
H -35.369200 -5.657400 -31.090600
H -35.368000 -10.148800 -32.162100
N -34.759200 -7.086000 -32.347100
H -34.736200 -8.506800 -33.756900
C -34.307800 -7.980200 -31.275900
H -33.896800 -7.452800 -30.573200
H -33.635200 -8.584600 -31.627300
