18
Fragment
N -16.385900 -6.001500 -22.704100
N -16.098500 -7.066900 -21.891300
C -15.248300 -5.394700 -22.960500
N -15.092100 -4.226700 -23.655700
C -14.773700 -7.109500 -21.651800
H -14.634100 -8.630700 -20.518800
N -14.211900 -6.079800 -22.339400
N -14.148100 -8.006700 -20.894700
N -13.919600 -3.683500 -23.718300
H -13.281000 -7.934300 -20.738700
N -12.954000 -5.538200 -22.471700
C -12.862300 -4.324500 -23.105500
C -11.696200 -5.858200 -22.053700
N -11.621700 -3.893900 -23.046500
N -11.416000 -7.015200 -21.368900
H -11.338600 -7.734500 -21.911800
N -10.892100 -4.861900 -22.385100
H -10.704700 -6.923900 -20.884800
18
Fragment
N -16.385900 -11.709600 -22.704100
N -16.098500 -12.775000 -21.891300
C -15.248300 -11.102900 -22.960500
N -15.092100 -9.934900 -23.655700
C -14.773700 -12.817600 -21.651800
H -14.634100 -14.338800 -20.518800
N -14.211900 -11.788000 -22.339400
N -14.148100 -13.714800 -20.894700
N -13.919600 -9.391600 -23.718300
H -13.281000 -13.642400 -20.738700
N -12.954000 -11.246400 -22.471700
C -12.862300 -10.032600 -23.105500
C -11.696200 -11.566400 -22.053700
N -11.621700 -9.602000 -23.046500
N -11.416000 -12.723300 -21.368900
H -11.338600 -13.442600 -21.911800
N -10.892100 -10.570100 -22.385100
H -10.704700 -12.632100 -20.884800
36
Fragment
N -16.385900 -6.001500 -22.704100
N -16.098500 -7.066900 -21.891300
C -15.248300 -5.394700 -22.960500
N -15.092100 -4.226700 -23.655700
C -14.773700 -7.109500 -21.651800
H -14.634100 -8.630700 -20.518800
N -14.211900 -6.079800 -22.339400
N -14.148100 -8.006700 -20.894700
N -13.919600 -3.683500 -23.718300
H -13.281000 -7.934300 -20.738700
N -12.954000 -5.538200 -22.471700
C -12.862300 -4.324500 -23.105500
C -11.696200 -5.858200 -22.053700
N -11.621700 -3.893900 -23.046500
N -11.416000 -7.015200 -21.368900
H -11.338600 -7.734500 -21.911800
N -10.892100 -4.861900 -22.385100
H -10.704700 -6.923900 -20.884800
N -16.385900 -11.709600 -22.704100
N -16.098500 -12.775000 -21.891300
C -15.248300 -11.102900 -22.960500
N -15.092100 -9.934900 -23.655700
C -14.773700 -12.817600 -21.651800
H -14.634100 -14.338800 -20.518800
N -14.211900 -11.788000 -22.339400
N -14.148100 -13.714800 -20.894700
N -13.919600 -9.391600 -23.718300
H -13.281000 -13.642400 -20.738700
N -12.954000 -11.246400 -22.471700
C -12.862300 -10.032600 -23.105500
C -11.696200 -11.566400 -22.053700
N -11.621700 -9.602000 -23.046500
N -11.416000 -12.723300 -21.368900
H -11.338600 -13.442600 -21.911800
N -10.892100 -10.570100 -22.385100
H -10.704700 -12.632100 -20.884800
