18
Fragment
N -16.385900 -6.001500 -22.704100
N -16.098500 -7.066900 -21.891300
C -15.248300 -5.394700 -22.960500
N -15.092100 -4.226700 -23.655700
C -14.773700 -7.109500 -21.651800
H -14.634100 -8.630700 -20.518800
N -14.211900 -6.079800 -22.339400
N -14.148100 -8.006700 -20.894700
N -13.919600 -3.683500 -23.718300
H -13.281000 -7.934300 -20.738700
N -12.954000 -5.538200 -22.471700
C -12.862300 -4.324500 -23.105500
C -11.696200 -5.858200 -22.053700
N -11.621700 -3.893900 -23.046500
N -11.416000 -7.015200 -21.368900
H -11.338600 -7.734500 -21.911800
N -10.892100 -4.861900 -22.385100
H -10.704700 -6.923900 -20.884800
18
Fragment
H -14.701900 -4.069900 -27.820400
N -14.514400 -2.007900 -26.320200
H -14.067900 -4.880400 -26.793400
N -13.990600 -4.161200 -27.336300
N -13.784800 -1.039800 -25.658700
C -13.710300 -3.004200 -26.651500
C -12.544200 -1.470400 -25.599700
N -12.452500 -2.684200 -26.233500
H -12.125500 -5.080200 -27.966500
N -11.486900 -0.829400 -24.986900
N -11.258400 -5.152600 -27.810500
N -11.194600 -3.225800 -26.365800
H -10.772400 -5.776600 -28.186400
C -10.632800 -4.255400 -27.053400
N -10.314500 -1.372700 -25.049500
C -10.158200 -2.540700 -25.744700
N -9.308000 -4.212800 -26.813900
N -9.020600 -3.147400 -26.001100
36
Fragment
N -16.385900 -6.001500 -22.704100
N -16.098500 -7.066900 -21.891300
C -15.248300 -5.394700 -22.960500
N -15.092100 -4.226700 -23.655700
C -14.773700 -7.109500 -21.651800
H -14.634100 -8.630700 -20.518800
N -14.211900 -6.079800 -22.339400
N -14.148100 -8.006700 -20.894700
N -13.919600 -3.683500 -23.718300
H -13.281000 -7.934300 -20.738700
N -12.954000 -5.538200 -22.471700
C -12.862300 -4.324500 -23.105500
C -11.696200 -5.858200 -22.053700
N -11.621700 -3.893900 -23.046500
N -11.416000 -7.015200 -21.368900
H -11.338600 -7.734500 -21.911800
N -10.892100 -4.861900 -22.385100
H -10.704700 -6.923900 -20.884800
H -14.701900 -4.069900 -27.820400
N -14.514400 -2.007900 -26.320200
H -14.067900 -4.880400 -26.793400
N -13.990600 -4.161200 -27.336300
N -13.784800 -1.039800 -25.658700
C -13.710300 -3.004200 -26.651500
C -12.544200 -1.470400 -25.599700
N -12.452500 -2.684200 -26.233500
H -12.125500 -5.080200 -27.966500
N -11.486900 -0.829400 -24.986900
N -11.258400 -5.152600 -27.810500
N -11.194600 -3.225800 -26.365800
H -10.772400 -5.776600 -28.186400
C -10.632800 -4.255400 -27.053400
N -10.314500 -1.372700 -25.049500
C -10.158200 -2.540700 -25.744700
N -9.308000 -4.212800 -26.813900
N -9.020600 -3.147400 -26.001100
