36
Fragment
O -14.819500 -26.908500 -17.308600
O -14.813400 -23.663400 -16.055300
O -14.452100 -27.767500 -14.155800
O -14.346500 -25.172900 -18.533000
N -14.134700 -25.946000 -17.621900
O -14.126400 -23.217700 -14.023800
N -13.955700 -23.525800 -15.187200
N -13.671300 -27.001300 -13.620800
O -13.455800 -26.881500 -12.431300
H -13.083800 -27.550400 -15.963900
N -12.994300 -26.085500 -14.502100
N -12.946800 -25.758600 -16.884300
N -12.642700 -23.705200 -15.586700
C -12.630700 -26.669900 -15.825100
H -12.623900 -23.895400 -17.634200
C -12.363100 -24.435400 -16.834000
H -11.839000 -25.429200 -12.946700
C -11.797400 -25.468400 -13.945000
C -11.621600 -24.022800 -14.572200
H -11.574200 -23.317800 -13.864500
C -11.066600 -26.840600 -15.792800
H -10.804300 -27.793800 -15.943200
C -10.800400 -24.581300 -16.732400
N -10.778400 -26.419300 -14.399500
N -10.493700 -25.980400 -16.792900
N -10.431300 -24.025000 -15.405200
H -10.345000 -24.082100 -17.469500
O -9.849800 -22.028400 -14.546400
N -9.652900 -22.828300 -15.430700
N -9.458400 -26.158500 -14.028500
N -9.348800 -26.397600 -17.483500
O -9.301400 -25.441900 -13.060400
O -9.181900 -27.597500 -17.580500
O -8.825100 -22.768400 -16.315100
O -8.650400 -25.520100 -17.960000
O -8.594100 -26.699600 -14.704700
18
Fragment
H -14.109500 -19.646300 -8.878100
O -14.088400 -22.041000 -11.294100
O -13.500100 -21.511600 -5.050800
N -13.342200 -20.975300 -6.142700
C -13.286900 -21.871600 -7.282900
O -13.281500 -25.441600 -9.767400
C -13.271400 -20.084200 -9.135700
N -13.252900 -23.165200 -7.116500
N -13.241700 -21.460400 -8.581900
O -13.233700 -19.774700 -6.344800
H -13.210500 -20.123800 -10.112900
N -13.191700 -22.651900 -10.763200
N -13.191100 -25.068300 -8.604900
C -13.161500 -23.642900 -8.366600
C -13.158100 -22.622800 -9.292100
O -13.139700 -25.811500 -7.633900
H -12.513700 -19.573100 -8.781700
O -12.295500 -23.301200 -11.279900
54
Fragment
O -14.819500 -26.908500 -17.308600
O -14.813400 -23.663400 -16.055300
O -14.452100 -27.767500 -14.155800
O -14.346500 -25.172900 -18.533000
N -14.134700 -25.946000 -17.621900
O -14.126400 -23.217700 -14.023800
N -13.955700 -23.525800 -15.187200
N -13.671300 -27.001300 -13.620800
O -13.455800 -26.881500 -12.431300
H -13.083800 -27.550400 -15.963900
N -12.994300 -26.085500 -14.502100
N -12.946800 -25.758600 -16.884300
N -12.642700 -23.705200 -15.586700
C -12.630700 -26.669900 -15.825100
H -12.623900 -23.895400 -17.634200
C -12.363100 -24.435400 -16.834000
H -11.839000 -25.429200 -12.946700
C -11.797400 -25.468400 -13.945000
C -11.621600 -24.022800 -14.572200
H -11.574200 -23.317800 -13.864500
C -11.066600 -26.840600 -15.792800
H -10.804300 -27.793800 -15.943200
C -10.800400 -24.581300 -16.732400
N -10.778400 -26.419300 -14.399500
N -10.493700 -25.980400 -16.792900
N -10.431300 -24.025000 -15.405200
H -10.345000 -24.082100 -17.469500
O -9.849800 -22.028400 -14.546400
N -9.652900 -22.828300 -15.430700
N -9.458400 -26.158500 -14.028500
N -9.348800 -26.397600 -17.483500
O -9.301400 -25.441900 -13.060400
O -9.181900 -27.597500 -17.580500
O -8.825100 -22.768400 -16.315100
O -8.650400 -25.520100 -17.960000
O -8.594100 -26.699600 -14.704700
H -14.109500 -19.646300 -8.878100
O -14.088400 -22.041000 -11.294100
O -13.500100 -21.511600 -5.050800
N -13.342200 -20.975300 -6.142700
C -13.286900 -21.871600 -7.282900
O -13.281500 -25.441600 -9.767400
C -13.271400 -20.084200 -9.135700
N -13.252900 -23.165200 -7.116500
N -13.241700 -21.460400 -8.581900
O -13.233700 -19.774700 -6.344800
H -13.210500 -20.123800 -10.112900
N -13.191700 -22.651900 -10.763200
N -13.191100 -25.068300 -8.604900
C -13.161500 -23.642900 -8.366600
C -13.158100 -22.622800 -9.292100
O -13.139700 -25.811500 -7.633900
H -12.513700 -19.573100 -8.781700
O -12.295500 -23.301200 -11.279900
