36
Fragment
O -14.819500 -26.908500 -17.308600
O -14.813400 -23.663400 -16.055300
O -14.452100 -27.767500 -14.155800
O -14.346500 -25.172900 -18.533000
N -14.134700 -25.946000 -17.621900
O -14.126400 -23.217700 -14.023800
N -13.955700 -23.525800 -15.187200
N -13.671300 -27.001300 -13.620800
O -13.455800 -26.881500 -12.431300
H -13.083800 -27.550400 -15.963900
N -12.994300 -26.085500 -14.502100
N -12.946800 -25.758600 -16.884300
N -12.642700 -23.705200 -15.586700
C -12.630700 -26.669900 -15.825100
H -12.623900 -23.895400 -17.634200
C -12.363100 -24.435400 -16.834000
H -11.839000 -25.429200 -12.946700
C -11.797400 -25.468400 -13.945000
C -11.621600 -24.022800 -14.572200
H -11.574200 -23.317800 -13.864500
C -11.066600 -26.840600 -15.792800
H -10.804300 -27.793800 -15.943200
C -10.800400 -24.581300 -16.732400
N -10.778400 -26.419300 -14.399500
N -10.493700 -25.980400 -16.792900
N -10.431300 -24.025000 -15.405200
H -10.345000 -24.082100 -17.469500
O -9.849800 -22.028400 -14.546400
N -9.652900 -22.828300 -15.430700
N -9.458400 -26.158500 -14.028500
N -9.348800 -26.397600 -17.483500
O -9.301400 -25.441900 -13.060400
O -9.181900 -27.597500 -17.580500
O -8.825100 -22.768400 -16.315100
O -8.650400 -25.520100 -17.960000
O -8.594100 -26.699600 -14.704700
18
Fragment
H -13.009000 -35.662800 -15.072700
O -12.987800 -33.268100 -17.488700
O -12.399600 -33.797500 -11.245400
N -12.241700 -34.333800 -12.337300
C -12.186400 -33.437500 -13.477500
O -12.181000 -29.867500 -15.962000
C -12.170900 -35.224900 -15.330300
N -12.152400 -32.143900 -13.311100
N -12.141100 -33.848700 -14.776500
O -12.133200 -35.534400 -12.539400
H -12.110000 -35.185300 -16.307500
N -12.091200 -32.657200 -16.957800
N -12.090500 -30.240800 -14.799500
C -12.061000 -31.666200 -14.561200
C -12.057600 -32.686300 -15.486700
O -12.039200 -29.497600 -13.828500
H -11.413200 -35.736000 -14.976300
O -11.195000 -32.007900 -17.474500
54
Fragment
O -14.819500 -26.908500 -17.308600
O -14.813400 -23.663400 -16.055300
O -14.452100 -27.767500 -14.155800
O -14.346500 -25.172900 -18.533000
N -14.134700 -25.946000 -17.621900
O -14.126400 -23.217700 -14.023800
N -13.955700 -23.525800 -15.187200
N -13.671300 -27.001300 -13.620800
O -13.455800 -26.881500 -12.431300
H -13.083800 -27.550400 -15.963900
N -12.994300 -26.085500 -14.502100
N -12.946800 -25.758600 -16.884300
N -12.642700 -23.705200 -15.586700
C -12.630700 -26.669900 -15.825100
H -12.623900 -23.895400 -17.634200
C -12.363100 -24.435400 -16.834000
H -11.839000 -25.429200 -12.946700
C -11.797400 -25.468400 -13.945000
C -11.621600 -24.022800 -14.572200
H -11.574200 -23.317800 -13.864500
C -11.066600 -26.840600 -15.792800
H -10.804300 -27.793800 -15.943200
C -10.800400 -24.581300 -16.732400
N -10.778400 -26.419300 -14.399500
N -10.493700 -25.980400 -16.792900
N -10.431300 -24.025000 -15.405200
H -10.345000 -24.082100 -17.469500
O -9.849800 -22.028400 -14.546400
N -9.652900 -22.828300 -15.430700
N -9.458400 -26.158500 -14.028500
N -9.348800 -26.397600 -17.483500
O -9.301400 -25.441900 -13.060400
O -9.181900 -27.597500 -17.580500
O -8.825100 -22.768400 -16.315100
O -8.650400 -25.520100 -17.960000
O -8.594100 -26.699600 -14.704700
H -13.009000 -35.662800 -15.072700
O -12.987800 -33.268100 -17.488700
O -12.399600 -33.797500 -11.245400
N -12.241700 -34.333800 -12.337300
C -12.186400 -33.437500 -13.477500
O -12.181000 -29.867500 -15.962000
C -12.170900 -35.224900 -15.330300
N -12.152400 -32.143900 -13.311100
N -12.141100 -33.848700 -14.776500
O -12.133200 -35.534400 -12.539400
H -12.110000 -35.185300 -16.307500
N -12.091200 -32.657200 -16.957800
N -12.090500 -30.240800 -14.799500
C -12.061000 -31.666200 -14.561200
C -12.057600 -32.686300 -15.486700
O -12.039200 -29.497600 -13.828500
H -11.413200 -35.736000 -14.976300
O -11.195000 -32.007900 -17.474500
