20
Fragment
N -11.134800 -6.893500 -19.342500
H -10.761900 -5.773600 -16.719900
H -10.628900 -4.829700 -14.572400
C -10.609600 -7.439700 -18.544500
N -10.560700 -3.461000 -12.042600
C -10.410300 -6.261200 -16.014400
C -10.329900 -5.698500 -14.718600
C -10.306700 -4.519700 -12.223900
C -9.969000 -8.185800 -17.447200
C -9.931300 -7.635700 -16.223000
C -9.816700 -5.906500 -12.384400
C -9.773300 -6.484300 -13.605000
C -9.401400 -6.688200 -11.204100
C -9.398200 -9.526300 -17.712000
C -9.384300 -8.395300 -15.089500
C -9.289000 -7.852500 -13.783700
N -9.091000 -7.273900 -10.319600
H -9.084300 -9.263800 -15.240900
N -8.975100 -10.519700 -17.909700
H -8.938400 -8.345000 -13.079200
20
Fragment
N -11.583700 -13.478200 -19.342500
H -11.210800 -12.358300 -16.719900
H -11.077800 -11.414400 -14.572400
C -11.058500 -14.024400 -18.544500
N -11.009600 -10.045700 -12.042600
C -10.859200 -12.845900 -16.014400
C -10.778800 -12.283200 -14.718600
C -10.755600 -11.104400 -12.223900
C -10.417900 -14.770500 -17.447200
C -10.380200 -14.220400 -16.223000
C -10.265600 -12.491200 -12.384400
C -10.222200 -13.069000 -13.605000
C -9.850300 -13.272900 -11.204100
C -9.847100 -16.111100 -17.712000
C -9.833200 -14.980000 -15.089500
C -9.737900 -14.437200 -13.783700
N -9.539900 -13.858600 -10.319600
H -9.533200 -15.848500 -15.240900
N -9.424000 -17.104500 -17.909700
H -9.387300 -14.929700 -13.079200
40
Fragment
N -11.134800 -6.893500 -19.342500
H -10.761900 -5.773600 -16.719900
H -10.628900 -4.829700 -14.572400
C -10.609600 -7.439700 -18.544500
N -10.560700 -3.461000 -12.042600
C -10.410300 -6.261200 -16.014400
C -10.329900 -5.698500 -14.718600
C -10.306700 -4.519700 -12.223900
C -9.969000 -8.185800 -17.447200
C -9.931300 -7.635700 -16.223000
C -9.816700 -5.906500 -12.384400
C -9.773300 -6.484300 -13.605000
C -9.401400 -6.688200 -11.204100
C -9.398200 -9.526300 -17.712000
C -9.384300 -8.395300 -15.089500
C -9.289000 -7.852500 -13.783700
N -9.091000 -7.273900 -10.319600
H -9.084300 -9.263800 -15.240900
N -8.975100 -10.519700 -17.909700
H -8.938400 -8.345000 -13.079200
N -11.583700 -13.478200 -19.342500
H -11.210800 -12.358300 -16.719900
H -11.077800 -11.414400 -14.572400
C -11.058500 -14.024400 -18.544500
N -11.009600 -10.045700 -12.042600
C -10.859200 -12.845900 -16.014400
C -10.778800 -12.283200 -14.718600
C -10.755600 -11.104400 -12.223900
C -10.417900 -14.770500 -17.447200
C -10.380200 -14.220400 -16.223000
C -10.265600 -12.491200 -12.384400
C -10.222200 -13.069000 -13.605000
C -9.850300 -13.272900 -11.204100
C -9.847100 -16.111100 -17.712000
C -9.833200 -14.980000 -15.089500
C -9.737900 -14.437200 -13.783700
N -9.539900 -13.858600 -10.319600
H -9.533200 -15.848500 -15.240900
N -9.424000 -17.104500 -17.909700
H -9.387300 -14.929700 -13.079200
