20
Fragment
N -11.134800 -6.893500 -19.342500
H -10.761900 -5.773600 -16.719900
H -10.628900 -4.829700 -14.572400
C -10.609600 -7.439700 -18.544500
N -10.560700 -3.461000 -12.042600
C -10.410300 -6.261200 -16.014400
C -10.329900 -5.698500 -14.718600
C -10.306700 -4.519700 -12.223900
C -9.969000 -8.185800 -17.447200
C -9.931300 -7.635700 -16.223000
C -9.816700 -5.906500 -12.384400
C -9.773300 -6.484300 -13.605000
C -9.401400 -6.688200 -11.204100
C -9.398200 -9.526300 -17.712000
C -9.384300 -8.395300 -15.089500
C -9.289000 -7.852500 -13.783700
N -9.091000 -7.273900 -10.319600
H -9.084300 -9.263800 -15.240900
N -8.975100 -10.519700 -17.909700
H -8.938400 -8.345000 -13.079200
20
Fragment
N -12.684900 -6.964800 -10.274300
H -12.312000 -5.844900 -7.651700
H -12.179000 -4.901000 -5.504200
C -12.159700 -7.511000 -9.476300
N -12.110800 -3.532300 -2.974400
C -11.960400 -6.332500 -6.946200
C -11.880000 -5.769800 -5.650400
C -11.856800 -4.591100 -3.155700
C -11.519100 -8.257200 -8.379000
C -11.481400 -7.707100 -7.154800
C -11.366800 -5.977900 -3.316200
C -11.323400 -6.555600 -4.536800
C -10.951500 -6.759500 -2.135900
C -10.948300 -9.597700 -8.643800
C -10.934400 -8.466700 -6.021300
C -10.839100 -7.923800 -4.715500
N -10.641100 -7.345300 -1.251400
H -10.634400 -9.335100 -6.172700
N -10.525200 -10.591100 -8.841500
H -10.488500 -8.416300 -4.011000
40
Fragment
N -11.134800 -6.893500 -19.342500
H -10.761900 -5.773600 -16.719900
H -10.628900 -4.829700 -14.572400
C -10.609600 -7.439700 -18.544500
N -10.560700 -3.461000 -12.042600
C -10.410300 -6.261200 -16.014400
C -10.329900 -5.698500 -14.718600
C -10.306700 -4.519700 -12.223900
C -9.969000 -8.185800 -17.447200
C -9.931300 -7.635700 -16.223000
C -9.816700 -5.906500 -12.384400
C -9.773300 -6.484300 -13.605000
C -9.401400 -6.688200 -11.204100
C -9.398200 -9.526300 -17.712000
C -9.384300 -8.395300 -15.089500
C -9.289000 -7.852500 -13.783700
N -9.091000 -7.273900 -10.319600
H -9.084300 -9.263800 -15.240900
N -8.975100 -10.519700 -17.909700
H -8.938400 -8.345000 -13.079200
N -12.684900 -6.964800 -10.274300
H -12.312000 -5.844900 -7.651700
H -12.179000 -4.901000 -5.504200
C -12.159700 -7.511000 -9.476300
N -12.110800 -3.532300 -2.974400
C -11.960400 -6.332500 -6.946200
C -11.880000 -5.769800 -5.650400
C -11.856800 -4.591100 -3.155700
C -11.519100 -8.257200 -8.379000
C -11.481400 -7.707100 -7.154800
C -11.366800 -5.977900 -3.316200
C -11.323400 -6.555600 -4.536800
C -10.951500 -6.759500 -2.135900
C -10.948300 -9.597700 -8.643800
C -10.934400 -8.466700 -6.021300
C -10.839100 -7.923800 -4.715500
N -10.641100 -7.345300 -1.251400
H -10.634400 -9.335100 -6.172700
N -10.525200 -10.591100 -8.841500
H -10.488500 -8.416300 -4.011000
