20
Fragment
N -11.134800 -6.893500 -19.342500
H -10.761900 -5.773600 -16.719900
H -10.628900 -4.829700 -14.572400
C -10.609600 -7.439700 -18.544500
N -10.560700 -3.461000 -12.042600
C -10.410300 -6.261200 -16.014400
C -10.329900 -5.698500 -14.718600
C -10.306700 -4.519700 -12.223900
C -9.969000 -8.185800 -17.447200
C -9.931300 -7.635700 -16.223000
C -9.816700 -5.906500 -12.384400
C -9.773300 -6.484300 -13.605000
C -9.401400 -6.688200 -11.204100
C -9.398200 -9.526300 -17.712000
C -9.384300 -8.395300 -15.089500
C -9.289000 -7.852500 -13.783700
N -9.091000 -7.273900 -10.319600
H -9.084300 -9.263800 -15.240900
N -8.975100 -10.519700 -17.909700
H -8.938400 -8.345000 -13.079200
20
Fragment
H -13.613900 -1.668100 -17.837000
H -13.542300 1.806500 -14.871700
H -13.526700 0.605700 -16.856800
C -13.354400 0.893900 -14.862800
C -13.344700 0.179000 -16.050700
H -13.311800 -3.648400 -19.219900
O -13.092800 0.954300 -12.486900
C -13.085300 0.252300 -13.656700
C -13.064800 -1.184100 -16.041600
N -13.055800 -1.932000 -17.238600
H -13.026700 0.438300 -11.856200
C -12.805300 -1.110800 -13.647600
C -12.795700 -1.825800 -14.835600
H -12.627600 -1.538400 -12.841200
H -12.612100 -2.739100 -14.826200
C -12.407000 -3.406100 -19.016000
C -12.305400 -2.982700 -17.592300
H -12.130400 -2.685700 -19.587500
H -11.833200 -4.166500 -19.167300
O -11.566800 -3.588200 -16.794300
40
Fragment
N -11.134800 -6.893500 -19.342500
H -10.761900 -5.773600 -16.719900
H -10.628900 -4.829700 -14.572400
C -10.609600 -7.439700 -18.544500
N -10.560700 -3.461000 -12.042600
C -10.410300 -6.261200 -16.014400
C -10.329900 -5.698500 -14.718600
C -10.306700 -4.519700 -12.223900
C -9.969000 -8.185800 -17.447200
C -9.931300 -7.635700 -16.223000
C -9.816700 -5.906500 -12.384400
C -9.773300 -6.484300 -13.605000
C -9.401400 -6.688200 -11.204100
C -9.398200 -9.526300 -17.712000
C -9.384300 -8.395300 -15.089500
C -9.289000 -7.852500 -13.783700
N -9.091000 -7.273900 -10.319600
H -9.084300 -9.263800 -15.240900
N -8.975100 -10.519700 -17.909700
H -8.938400 -8.345000 -13.079200
H -13.613900 -1.668100 -17.837000
H -13.542300 1.806500 -14.871700
H -13.526700 0.605700 -16.856800
C -13.354400 0.893900 -14.862800
C -13.344700 0.179000 -16.050700
H -13.311800 -3.648400 -19.219900
O -13.092800 0.954300 -12.486900
C -13.085300 0.252300 -13.656700
C -13.064800 -1.184100 -16.041600
N -13.055800 -1.932000 -17.238600
H -13.026700 0.438300 -11.856200
C -12.805300 -1.110800 -13.647600
C -12.795700 -1.825800 -14.835600
H -12.627600 -1.538400 -12.841200
H -12.612100 -2.739100 -14.826200
C -12.407000 -3.406100 -19.016000
C -12.305400 -2.982700 -17.592300
H -12.130400 -2.685700 -19.587500
H -11.833200 -4.166500 -19.167300
O -11.566800 -3.588200 -16.794300
