20
Fragment
N -11.134800 -6.893500 -19.342500
H -10.761900 -5.773600 -16.719900
H -10.628900 -4.829700 -14.572400
C -10.609600 -7.439700 -18.544500
N -10.560700 -3.461000 -12.042600
C -10.410300 -6.261200 -16.014400
C -10.329900 -5.698500 -14.718600
C -10.306700 -4.519700 -12.223900
C -9.969000 -8.185800 -17.447200
C -9.931300 -7.635700 -16.223000
C -9.816700 -5.906500 -12.384400
C -9.773300 -6.484300 -13.605000
C -9.401400 -6.688200 -11.204100
C -9.398200 -9.526300 -17.712000
C -9.384300 -8.395300 -15.089500
C -9.289000 -7.852500 -13.783700
N -9.091000 -7.273900 -10.319600
H -9.084300 -9.263800 -15.240900
N -8.975100 -10.519700 -17.909700
H -8.938400 -8.345000 -13.079200
20
Fragment
H -14.062800 -8.252800 -17.837000
H -13.991200 -4.778300 -14.871700
H -13.975600 -5.979000 -16.856800
C -13.803300 -5.690800 -14.862800
C -13.793600 -6.405700 -16.050700
H -13.760700 -10.233100 -19.219900
O -13.541700 -5.630500 -12.486900
C -13.534200 -6.332400 -13.656700
C -13.513700 -7.768900 -16.041600
N -13.504700 -8.516700 -17.238600
H -13.475600 -6.146400 -11.856200
C -13.254200 -7.695500 -13.647600
C -13.244600 -8.410500 -14.835600
H -13.076500 -8.123100 -12.841200
H -13.061000 -9.323900 -14.826200
C -12.855900 -9.990800 -19.016000
C -12.754300 -9.567500 -17.592300
H -12.579300 -9.270500 -19.587500
H -12.282100 -10.751200 -19.167300
O -12.015700 -10.172900 -16.794300
40
Fragment
N -11.134800 -6.893500 -19.342500
H -10.761900 -5.773600 -16.719900
H -10.628900 -4.829700 -14.572400
C -10.609600 -7.439700 -18.544500
N -10.560700 -3.461000 -12.042600
C -10.410300 -6.261200 -16.014400
C -10.329900 -5.698500 -14.718600
C -10.306700 -4.519700 -12.223900
C -9.969000 -8.185800 -17.447200
C -9.931300 -7.635700 -16.223000
C -9.816700 -5.906500 -12.384400
C -9.773300 -6.484300 -13.605000
C -9.401400 -6.688200 -11.204100
C -9.398200 -9.526300 -17.712000
C -9.384300 -8.395300 -15.089500
C -9.289000 -7.852500 -13.783700
N -9.091000 -7.273900 -10.319600
H -9.084300 -9.263800 -15.240900
N -8.975100 -10.519700 -17.909700
H -8.938400 -8.345000 -13.079200
H -14.062800 -8.252800 -17.837000
H -13.991200 -4.778300 -14.871700
H -13.975600 -5.979000 -16.856800
C -13.803300 -5.690800 -14.862800
C -13.793600 -6.405700 -16.050700
H -13.760700 -10.233100 -19.219900
O -13.541700 -5.630500 -12.486900
C -13.534200 -6.332400 -13.656700
C -13.513700 -7.768900 -16.041600
N -13.504700 -8.516700 -17.238600
H -13.475600 -6.146400 -11.856200
C -13.254200 -7.695500 -13.647600
C -13.244600 -8.410500 -14.835600
H -13.076500 -8.123100 -12.841200
H -13.061000 -9.323900 -14.826200
C -12.855900 -9.990800 -19.016000
C -12.754300 -9.567500 -17.592300
H -12.579300 -9.270500 -19.587500
H -12.282100 -10.751200 -19.167300
O -12.015700 -10.172900 -16.794300
