20
Fragment
H -22.130700 -12.013700 -31.169400
H -21.444000 -12.167700 -26.540400
H -21.297600 -12.055400 -28.164300
C -21.160300 -11.997100 -31.282000
N -20.933400 -12.123800 -27.305300
H -20.888600 -11.168500 -31.686100
H -20.822900 -12.803400 -31.785100
O -20.637700 -12.050400 -29.949100
C -19.609100 -12.198700 -27.216400
C -19.277600 -12.025900 -29.782400
O -19.067100 -12.336200 -26.114200
C -18.787900 -12.100800 -28.467300
H -18.723700 -11.879100 -31.779300
C -18.402700 -11.938100 -30.848800
C -17.406900 -12.074200 -28.294500
H -17.042600 -12.133900 -27.375700
C -17.036600 -11.915100 -30.631300
C -16.540900 -11.979100 -29.351200
H -16.430500 -11.791200 -31.394700
H -15.542100 -11.987100 -29.197700
20
Fragment
H -21.782900 -8.387600 -29.197700
H -20.894500 -8.191700 -31.394700
C -20.784100 -8.379600 -29.351200
C -20.288400 -8.315600 -30.631300
H -20.282400 -8.534400 -27.375700
C -19.918100 -8.474700 -28.294500
C -18.922300 -8.338600 -30.848800
H -18.601300 -8.279600 -31.779300
C -18.537100 -8.501300 -28.467300
O -18.257900 -8.736700 -26.114200
C -18.047400 -8.426400 -29.782400
C -17.715900 -8.599200 -27.216400
O -16.687300 -8.450900 -29.949100
H -16.502100 -9.203900 -31.785100
H -16.436400 -7.569000 -31.686100
N -16.391600 -8.524300 -27.305300
C -16.164700 -8.397600 -31.282000
H -16.027400 -8.455900 -28.164300
H -15.881000 -8.568200 -26.540400
H -15.194300 -8.414200 -31.169400
40
Fragment
H -22.130700 -12.013700 -31.169400
H -21.444000 -12.167700 -26.540400
H -21.297600 -12.055400 -28.164300
C -21.160300 -11.997100 -31.282000
N -20.933400 -12.123800 -27.305300
H -20.888600 -11.168500 -31.686100
H -20.822900 -12.803400 -31.785100
O -20.637700 -12.050400 -29.949100
C -19.609100 -12.198700 -27.216400
C -19.277600 -12.025900 -29.782400
O -19.067100 -12.336200 -26.114200
C -18.787900 -12.100800 -28.467300
H -18.723700 -11.879100 -31.779300
C -18.402700 -11.938100 -30.848800
C -17.406900 -12.074200 -28.294500
H -17.042600 -12.133900 -27.375700
C -17.036600 -11.915100 -30.631300
C -16.540900 -11.979100 -29.351200
H -16.430500 -11.791200 -31.394700
H -15.542100 -11.987100 -29.197700
H -21.782900 -8.387600 -29.197700
H -20.894500 -8.191700 -31.394700
C -20.784100 -8.379600 -29.351200
C -20.288400 -8.315600 -30.631300
H -20.282400 -8.534400 -27.375700
C -19.918100 -8.474700 -28.294500
C -18.922300 -8.338600 -30.848800
H -18.601300 -8.279600 -31.779300
C -18.537100 -8.501300 -28.467300
O -18.257900 -8.736700 -26.114200
C -18.047400 -8.426400 -29.782400
C -17.715900 -8.599200 -27.216400
O -16.687300 -8.450900 -29.949100
H -16.502100 -9.203900 -31.785100
H -16.436400 -7.569000 -31.686100
N -16.391600 -8.524300 -27.305300
C -16.164700 -8.397600 -31.282000
H -16.027400 -8.455900 -28.164300
H -15.881000 -8.568200 -26.540400
H -15.194300 -8.414200 -31.169400
