20
Fragment
H -22.130700 -12.013700 -31.169400
H -21.444000 -12.167700 -26.540400
H -21.297600 -12.055400 -28.164300
C -21.160300 -11.997100 -31.282000
N -20.933400 -12.123800 -27.305300
H -20.888600 -11.168500 -31.686100
H -20.822900 -12.803400 -31.785100
O -20.637700 -12.050400 -29.949100
C -19.609100 -12.198700 -27.216400
C -19.277600 -12.025900 -29.782400
O -19.067100 -12.336200 -26.114200
C -18.787900 -12.100800 -28.467300
H -18.723700 -11.879100 -31.779300
C -18.402700 -11.938100 -30.848800
C -17.406900 -12.074200 -28.294500
H -17.042600 -12.133900 -27.375700
C -17.036600 -11.915100 -30.631300
C -16.540900 -11.979100 -29.351200
H -16.430500 -11.791200 -31.394700
H -15.542100 -11.987100 -29.197700
8
Fragment
O -22.441700 -15.899700 -23.897000
C -21.290200 -15.904000 -24.393900
H -21.220000 -13.981900 -24.660000
H -21.097600 -17.890200 -24.510500
N -20.666100 -14.756500 -24.696900
N -20.627300 -17.046500 -24.601800
H -19.918100 -14.825600 -25.093200
H -19.861400 -16.986000 -24.986400
28
Fragment
H -22.130700 -12.013700 -31.169400
H -21.444000 -12.167700 -26.540400
H -21.297600 -12.055400 -28.164300
C -21.160300 -11.997100 -31.282000
N -20.933400 -12.123800 -27.305300
H -20.888600 -11.168500 -31.686100
H -20.822900 -12.803400 -31.785100
O -20.637700 -12.050400 -29.949100
C -19.609100 -12.198700 -27.216400
C -19.277600 -12.025900 -29.782400
O -19.067100 -12.336200 -26.114200
C -18.787900 -12.100800 -28.467300
H -18.723700 -11.879100 -31.779300
C -18.402700 -11.938100 -30.848800
C -17.406900 -12.074200 -28.294500
H -17.042600 -12.133900 -27.375700
C -17.036600 -11.915100 -30.631300
C -16.540900 -11.979100 -29.351200
H -16.430500 -11.791200 -31.394700
H -15.542100 -11.987100 -29.197700
O -22.441700 -15.899700 -23.897000
C -21.290200 -15.904000 -24.393900
H -21.220000 -13.981900 -24.660000
H -21.097600 -17.890200 -24.510500
N -20.666100 -14.756500 -24.696900
N -20.627300 -17.046500 -24.601800
H -19.918100 -14.825600 -25.093200
H -19.861400 -16.986000 -24.986400
