33
Fragment
H -18.095500 -13.905600 -16.679500
C -17.441100 -13.277000 -16.393200
H -17.407500 -13.907000 -14.407000
H -17.178500 -12.394200 -18.223400
C -16.993000 -13.321000 -15.063600
C -16.931800 -12.412600 -17.300500
C -16.014300 -12.477700 -14.618600
C -15.922900 -11.544900 -16.852900
H -15.743200 -12.480500 -13.695700
O -15.510300 -8.943400 -13.662800
C -15.466000 -11.577400 -15.533700
N -15.227200 -10.582400 -17.489600
H -15.224700 -10.336500 -18.405500
H -14.963300 -7.735700 -11.423200
C -14.489800 -10.565200 -15.513700
N -14.342000 -9.966100 -16.669900
C -14.331000 -9.284100 -13.487600
C -14.058600 -8.033600 -11.387700
N -13.715500 -10.132500 -14.394800
H -13.652300 -7.057400 -9.636400
C -13.537800 -8.873400 -12.368600
C -13.264400 -7.631400 -10.341600
H -12.401800 -12.227000 -15.413100
C -12.395000 -10.540500 -14.236100
C -12.216400 -9.317100 -12.296700
C -11.953000 -8.070200 -10.274000
C -11.836500 -11.455100 -15.269100
H -11.700700 -11.017200 -16.098300
N -11.663000 -10.158800 -13.255100
C -11.427800 -8.896900 -11.225500
H -11.412100 -7.789100 -9.532400
H -10.936200 -11.741300 -14.996800
H -10.511100 -9.206900 -11.180400
33
Fragment
H -14.755500 -5.627500 -14.840600
H -14.330300 -3.093100 -11.024200
H -13.854400 -7.045300 -16.488600
C -13.838700 -5.937500 -14.795500
N -13.603500 -4.675600 -12.765900
H -13.565900 -3.817200 -9.922700
C -13.430100 -3.379300 -10.751900
C -13.313500 -6.764200 -15.747000
C -13.050100 -5.517300 -13.724300
C -12.871600 -4.293900 -11.784900
H -12.864700 -2.607400 -10.607900
C -12.002200 -7.203000 -15.679400
C -11.728700 -5.961000 -13.652400
H -11.614300 -7.777000 -16.384600
N -11.551000 -4.701900 -11.626200
C -11.208000 -6.800800 -14.633300
C -10.935600 -5.550300 -12.533400
N -10.924600 -4.868300 -9.351100
C -10.776700 -4.269200 -10.507300
H -10.303200 -7.098700 -14.597800
H -10.041800 -4.497900 -7.615500
N -10.039300 -4.252000 -8.531400
C -9.800500 -3.257000 -10.487300
O -9.756200 -5.891000 -12.358200
H -9.523400 -2.353900 -12.325300
C -9.343600 -3.289500 -9.168100
C -9.252200 -2.356700 -11.402400
C -8.334700 -2.421800 -8.720500
C -8.273500 -1.513400 -10.957400
H -8.088000 -2.440200 -7.797600
H -7.859000 -0.927400 -11.614000
C -7.825400 -1.557400 -9.627800
H -7.171100 -0.928800 -9.341500
66
Fragment
H -18.095500 -13.905600 -16.679500
C -17.441100 -13.277000 -16.393200
H -17.407500 -13.907000 -14.407000
H -17.178500 -12.394200 -18.223400
C -16.993000 -13.321000 -15.063600
C -16.931800 -12.412600 -17.300500
C -16.014300 -12.477700 -14.618600
C -15.922900 -11.544900 -16.852900
H -15.743200 -12.480500 -13.695700
O -15.510300 -8.943400 -13.662800
C -15.466000 -11.577400 -15.533700
N -15.227200 -10.582400 -17.489600
H -15.224700 -10.336500 -18.405500
H -14.963300 -7.735700 -11.423200
C -14.489800 -10.565200 -15.513700
N -14.342000 -9.966100 -16.669900
C -14.331000 -9.284100 -13.487600
C -14.058600 -8.033600 -11.387700
N -13.715500 -10.132500 -14.394800
H -13.652300 -7.057400 -9.636400
C -13.537800 -8.873400 -12.368600
C -13.264400 -7.631400 -10.341600
H -12.401800 -12.227000 -15.413100
C -12.395000 -10.540500 -14.236100
C -12.216400 -9.317100 -12.296700
C -11.953000 -8.070200 -10.274000
C -11.836500 -11.455100 -15.269100
H -11.700700 -11.017200 -16.098300
N -11.663000 -10.158800 -13.255100
C -11.427800 -8.896900 -11.225500
H -11.412100 -7.789100 -9.532400
H -10.936200 -11.741300 -14.996800
H -10.511100 -9.206900 -11.180400
H -14.755500 -5.627500 -14.840600
H -14.330300 -3.093100 -11.024200
H -13.854400 -7.045300 -16.488600
C -13.838700 -5.937500 -14.795500
N -13.603500 -4.675600 -12.765900
H -13.565900 -3.817200 -9.922700
C -13.430100 -3.379300 -10.751900
C -13.313500 -6.764200 -15.747000
C -13.050100 -5.517300 -13.724300
C -12.871600 -4.293900 -11.784900
H -12.864700 -2.607400 -10.607900
C -12.002200 -7.203000 -15.679400
C -11.728700 -5.961000 -13.652400
H -11.614300 -7.777000 -16.384600
N -11.551000 -4.701900 -11.626200
C -11.208000 -6.800800 -14.633300
C -10.935600 -5.550300 -12.533400
N -10.924600 -4.868300 -9.351100
C -10.776700 -4.269200 -10.507300
H -10.303200 -7.098700 -14.597800
H -10.041800 -4.497900 -7.615500
N -10.039300 -4.252000 -8.531400
C -9.800500 -3.257000 -10.487300
O -9.756200 -5.891000 -12.358200
H -9.523400 -2.353900 -12.325300
C -9.343600 -3.289500 -9.168100
C -9.252200 -2.356700 -11.402400
C -8.334700 -2.421800 -8.720500
C -8.273500 -1.513400 -10.957400
H -8.088000 -2.440200 -7.797600
H -7.859000 -0.927400 -11.614000
C -7.825400 -1.557400 -9.627800
H -7.171100 -0.928800 -9.341500
