33
Fragment
H -18.095500 -13.905600 -16.679500
C -17.441100 -13.277000 -16.393200
H -17.407500 -13.907000 -14.407000
H -17.178500 -12.394200 -18.223400
C -16.993000 -13.321000 -15.063600
C -16.931800 -12.412600 -17.300500
C -16.014300 -12.477700 -14.618600
C -15.922900 -11.544900 -16.852900
H -15.743200 -12.480500 -13.695700
O -15.510300 -8.943400 -13.662800
C -15.466000 -11.577400 -15.533700
N -15.227200 -10.582400 -17.489600
H -15.224700 -10.336500 -18.405500
H -14.963300 -7.735700 -11.423200
C -14.489800 -10.565200 -15.513700
N -14.342000 -9.966100 -16.669900
C -14.331000 -9.284100 -13.487600
C -14.058600 -8.033600 -11.387700
N -13.715500 -10.132500 -14.394800
H -13.652300 -7.057400 -9.636400
C -13.537800 -8.873400 -12.368600
C -13.264400 -7.631400 -10.341600
H -12.401800 -12.227000 -15.413100
C -12.395000 -10.540500 -14.236100
C -12.216400 -9.317100 -12.296700
C -11.953000 -8.070200 -10.274000
C -11.836500 -11.455100 -15.269100
H -11.700700 -11.017200 -16.098300
N -11.663000 -10.158800 -13.255100
C -11.427800 -8.896900 -11.225500
H -11.412100 -7.789100 -9.532400
H -10.936200 -11.741300 -14.996800
H -10.511100 -9.206900 -11.180400
33
Fragment
H -9.673300 -8.960800 -8.005800
C -9.018900 -8.332200 -7.719600
H -8.985300 -8.962200 -5.733300
H -8.756300 -7.449400 -9.549700
C -8.570800 -8.376200 -6.389900
C -8.509600 -7.467800 -8.626800
C -7.592100 -7.532900 -5.944900
C -7.500700 -6.600100 -8.179300
H -7.321000 -7.535700 -5.022100
O -7.088100 -3.998600 -4.989100
C -7.043800 -6.632600 -6.860000
N -6.805100 -5.637600 -8.815900
H -6.802600 -5.391700 -9.731900
H -6.541100 -2.790900 -2.749600
C -6.067700 -5.620400 -6.840100
N -5.919800 -5.021300 -7.996300
C -5.908800 -4.339300 -4.813900
C -5.636400 -3.088800 -2.714000
N -5.293300 -5.187700 -5.721200
H -5.230100 -2.112600 -0.962800
C -5.115600 -3.928600 -3.695000
C -4.842200 -2.686600 -1.667900
H -3.979600 -7.282200 -6.739400
C -3.972800 -5.595700 -5.562400
C -3.794300 -4.372300 -3.623000
C -3.530900 -3.125400 -1.600300
C -3.414300 -6.510300 -6.595500
H -3.278500 -6.072400 -7.424700
N -3.240900 -5.214000 -4.581400
C -3.005600 -3.952100 -2.551800
H -2.990000 -2.844300 -0.858700
H -2.514100 -6.796500 -6.323100
H -2.088900 -4.262100 -2.506700
66
Fragment
H -18.095500 -13.905600 -16.679500
C -17.441100 -13.277000 -16.393200
H -17.407500 -13.907000 -14.407000
H -17.178500 -12.394200 -18.223400
C -16.993000 -13.321000 -15.063600
C -16.931800 -12.412600 -17.300500
C -16.014300 -12.477700 -14.618600
C -15.922900 -11.544900 -16.852900
H -15.743200 -12.480500 -13.695700
O -15.510300 -8.943400 -13.662800
C -15.466000 -11.577400 -15.533700
N -15.227200 -10.582400 -17.489600
H -15.224700 -10.336500 -18.405500
H -14.963300 -7.735700 -11.423200
C -14.489800 -10.565200 -15.513700
N -14.342000 -9.966100 -16.669900
C -14.331000 -9.284100 -13.487600
C -14.058600 -8.033600 -11.387700
N -13.715500 -10.132500 -14.394800
H -13.652300 -7.057400 -9.636400
C -13.537800 -8.873400 -12.368600
C -13.264400 -7.631400 -10.341600
H -12.401800 -12.227000 -15.413100
C -12.395000 -10.540500 -14.236100
C -12.216400 -9.317100 -12.296700
C -11.953000 -8.070200 -10.274000
C -11.836500 -11.455100 -15.269100
H -11.700700 -11.017200 -16.098300
N -11.663000 -10.158800 -13.255100
C -11.427800 -8.896900 -11.225500
H -11.412100 -7.789100 -9.532400
H -10.936200 -11.741300 -14.996800
H -10.511100 -9.206900 -11.180400
H -9.673300 -8.960800 -8.005800
C -9.018900 -8.332200 -7.719600
H -8.985300 -8.962200 -5.733300
H -8.756300 -7.449400 -9.549700
C -8.570800 -8.376200 -6.389900
C -8.509600 -7.467800 -8.626800
C -7.592100 -7.532900 -5.944900
C -7.500700 -6.600100 -8.179300
H -7.321000 -7.535700 -5.022100
O -7.088100 -3.998600 -4.989100
C -7.043800 -6.632600 -6.860000
N -6.805100 -5.637600 -8.815900
H -6.802600 -5.391700 -9.731900
H -6.541100 -2.790900 -2.749600
C -6.067700 -5.620400 -6.840100
N -5.919800 -5.021300 -7.996300
C -5.908800 -4.339300 -4.813900
C -5.636400 -3.088800 -2.714000
N -5.293300 -5.187700 -5.721200
H -5.230100 -2.112600 -0.962800
C -5.115600 -3.928600 -3.695000
C -4.842200 -2.686600 -1.667900
H -3.979600 -7.282200 -6.739400
C -3.972800 -5.595700 -5.562400
C -3.794300 -4.372300 -3.623000
C -3.530900 -3.125400 -1.600300
C -3.414300 -6.510300 -6.595500
H -3.278500 -6.072400 -7.424700
N -3.240900 -5.214000 -4.581400
C -3.005600 -3.952100 -2.551800
H -2.990000 -2.844300 -0.858700
H -2.514100 -6.796500 -6.323100
H -2.088900 -4.262100 -2.506700
