33
Fragment
H -18.095500 -13.905600 -16.679500
C -17.441100 -13.277000 -16.393200
H -17.407500 -13.907000 -14.407000
H -17.178500 -12.394200 -18.223400
C -16.993000 -13.321000 -15.063600
C -16.931800 -12.412600 -17.300500
C -16.014300 -12.477700 -14.618600
C -15.922900 -11.544900 -16.852900
H -15.743200 -12.480500 -13.695700
O -15.510300 -8.943400 -13.662800
C -15.466000 -11.577400 -15.533700
N -15.227200 -10.582400 -17.489600
H -15.224700 -10.336500 -18.405500
H -14.963300 -7.735700 -11.423200
C -14.489800 -10.565200 -15.513700
N -14.342000 -9.966100 -16.669900
C -14.331000 -9.284100 -13.487600
C -14.058600 -8.033600 -11.387700
N -13.715500 -10.132500 -14.394800
H -13.652300 -7.057400 -9.636400
C -13.537800 -8.873400 -12.368600
C -13.264400 -7.631400 -10.341600
H -12.401800 -12.227000 -15.413100
C -12.395000 -10.540500 -14.236100
C -12.216400 -9.317100 -12.296700
C -11.953000 -8.070200 -10.274000
C -11.836500 -11.455100 -15.269100
H -11.700700 -11.017200 -16.098300
N -11.663000 -10.158800 -13.255100
C -11.427800 -8.896900 -11.225500
H -11.412100 -7.789100 -9.532400
H -10.936200 -11.741300 -14.996800
H -10.511100 -9.206900 -11.180400
33
Fragment
H -27.128500 -13.905600 -16.679500
C -26.474100 -13.277000 -16.393200
H -26.440500 -13.907000 -14.407000
H -26.211500 -12.394200 -18.223400
C -26.026000 -13.321000 -15.063600
C -25.964800 -12.412600 -17.300500
C -25.047300 -12.477700 -14.618600
C -24.955900 -11.544900 -16.852900
H -24.776200 -12.480500 -13.695700
O -24.543300 -8.943400 -13.662800
C -24.499000 -11.577400 -15.533700
N -24.260200 -10.582400 -17.489600
H -24.257700 -10.336500 -18.405500
H -23.996300 -7.735700 -11.423200
C -23.522800 -10.565200 -15.513700
N -23.375000 -9.966100 -16.669900
C -23.364000 -9.284100 -13.487600
C -23.091600 -8.033600 -11.387700
N -22.748500 -10.132500 -14.394800
H -22.685300 -7.057400 -9.636400
C -22.570800 -8.873400 -12.368600
C -22.297400 -7.631400 -10.341600
H -21.434800 -12.227000 -15.413100
C -21.428000 -10.540500 -14.236100
C -21.249400 -9.317100 -12.296700
C -20.986000 -8.070200 -10.274000
C -20.869500 -11.455100 -15.269100
H -20.733700 -11.017200 -16.098300
N -20.696000 -10.158800 -13.255100
C -20.460800 -8.896900 -11.225500
H -20.445100 -7.789100 -9.532400
H -19.969200 -11.741300 -14.996800
H -19.544100 -9.206900 -11.180400
66
Fragment
H -18.095500 -13.905600 -16.679500
C -17.441100 -13.277000 -16.393200
H -17.407500 -13.907000 -14.407000
H -17.178500 -12.394200 -18.223400
C -16.993000 -13.321000 -15.063600
C -16.931800 -12.412600 -17.300500
C -16.014300 -12.477700 -14.618600
C -15.922900 -11.544900 -16.852900
H -15.743200 -12.480500 -13.695700
O -15.510300 -8.943400 -13.662800
C -15.466000 -11.577400 -15.533700
N -15.227200 -10.582400 -17.489600
H -15.224700 -10.336500 -18.405500
H -14.963300 -7.735700 -11.423200
C -14.489800 -10.565200 -15.513700
N -14.342000 -9.966100 -16.669900
C -14.331000 -9.284100 -13.487600
C -14.058600 -8.033600 -11.387700
N -13.715500 -10.132500 -14.394800
H -13.652300 -7.057400 -9.636400
C -13.537800 -8.873400 -12.368600
C -13.264400 -7.631400 -10.341600
H -12.401800 -12.227000 -15.413100
C -12.395000 -10.540500 -14.236100
C -12.216400 -9.317100 -12.296700
C -11.953000 -8.070200 -10.274000
C -11.836500 -11.455100 -15.269100
H -11.700700 -11.017200 -16.098300
N -11.663000 -10.158800 -13.255100
C -11.427800 -8.896900 -11.225500
H -11.412100 -7.789100 -9.532400
H -10.936200 -11.741300 -14.996800
H -10.511100 -9.206900 -11.180400
H -27.128500 -13.905600 -16.679500
C -26.474100 -13.277000 -16.393200
H -26.440500 -13.907000 -14.407000
H -26.211500 -12.394200 -18.223400
C -26.026000 -13.321000 -15.063600
C -25.964800 -12.412600 -17.300500
C -25.047300 -12.477700 -14.618600
C -24.955900 -11.544900 -16.852900
H -24.776200 -12.480500 -13.695700
O -24.543300 -8.943400 -13.662800
C -24.499000 -11.577400 -15.533700
N -24.260200 -10.582400 -17.489600
H -24.257700 -10.336500 -18.405500
H -23.996300 -7.735700 -11.423200
C -23.522800 -10.565200 -15.513700
N -23.375000 -9.966100 -16.669900
C -23.364000 -9.284100 -13.487600
C -23.091600 -8.033600 -11.387700
N -22.748500 -10.132500 -14.394800
H -22.685300 -7.057400 -9.636400
C -22.570800 -8.873400 -12.368600
C -22.297400 -7.631400 -10.341600
H -21.434800 -12.227000 -15.413100
C -21.428000 -10.540500 -14.236100
C -21.249400 -9.317100 -12.296700
C -20.986000 -8.070200 -10.274000
C -20.869500 -11.455100 -15.269100
H -20.733700 -11.017200 -16.098300
N -20.696000 -10.158800 -13.255100
C -20.460800 -8.896900 -11.225500
H -20.445100 -7.789100 -9.532400
H -19.969200 -11.741300 -14.996800
H -19.544100 -9.206900 -11.180400
