34
Fragment
H -6.777300 -10.962900 -26.597900
O -6.607300 -11.865400 -26.237200
H -6.425200 -11.595600 -29.543100
H -6.298800 -13.437300 -27.958000
C -5.562500 -11.795500 -29.204800
C -5.535400 -12.901500 -28.136600
C -5.416200 -12.471000 -26.707800
H -5.236200 -13.236700 -26.163400
H -5.124500 -10.990700 -28.952300
H -5.111700 -13.191600 -30.820800
H -4.934000 -15.306000 -29.407400
C -4.725400 -12.719700 -30.092600
H -4.690700 -11.858600 -26.620200
H -4.294400 -15.316500 -27.994000
C -4.281200 -13.491400 -28.833800
C -4.214100 -14.996400 -28.890500
H -4.138100 -10.077000 -30.795000
N -3.738900 -12.091500 -30.970200
C -3.594000 -10.745000 -31.205400
H -3.395800 -13.385400 -28.509200
O -2.991600 -15.493900 -29.433200
H -2.905500 -15.350400 -30.355400
C -2.820800 -12.709200 -31.772200
N -2.648700 -10.459500 -32.055500
N -2.596700 -14.043700 -31.834000
C -2.155100 -11.693300 -32.431600
H -2.037100 -16.289600 -32.368100
C -1.610100 -14.357000 -32.675500
N -1.232500 -15.606600 -32.847200
C -1.088400 -12.028400 -33.309200
N -0.902600 -13.408000 -33.372700
H -0.738000 -15.967200 -33.475700
O -0.365400 -11.280800 -33.973800
H 0.104300 -13.780700 -33.776300
34
Fragment
H 0.555100 -17.537700 -34.916600
O 1.024800 -15.037800 -34.719100
H 1.397400 -19.724200 -35.217100
N 1.562100 -17.165000 -35.320100
C 1.747800 -15.785400 -35.383700
N 1.891900 -19.363600 -35.845600
C 2.269500 -18.114000 -36.017400
H 2.696500 -20.046600 -36.324800
C 2.814500 -15.450300 -36.261200
N 3.256100 -17.800700 -36.858900
N 3.308200 -14.216500 -36.637300
C 3.480200 -16.466200 -36.920700
H 3.564900 -19.107400 -38.337500
O 3.651000 -19.250900 -39.259700
H 4.055200 -17.142400 -40.183600
C 4.253400 -14.502000 -37.487400
N 4.398400 -15.848500 -37.722700
H 4.797500 -13.834000 -37.897800
C 4.873600 -18.753400 -39.802300
C 4.940600 -17.248400 -39.859000
H 4.953800 -19.073500 -40.698800
H 5.350100 -15.615600 -42.072600
C 5.384800 -16.476700 -38.600200
H 5.593400 -19.063000 -39.285400
H 5.771100 -16.948600 -37.872100
H 5.784000 -14.747700 -39.740500
H 5.895600 -16.993700 -42.529500
C 6.075600 -16.228000 -41.985100
C 6.194800 -16.658500 -40.556200
C 6.221900 -15.552500 -39.488100
H 6.958200 -17.194300 -40.734900
H 7.084700 -15.352600 -39.149800
O 7.266800 -15.622400 -42.455600
H 7.436700 -14.719900 -42.095000
68
Fragment
H -6.777300 -10.962900 -26.597900
O -6.607300 -11.865400 -26.237200
H -6.425200 -11.595600 -29.543100
H -6.298800 -13.437300 -27.958000
C -5.562500 -11.795500 -29.204800
C -5.535400 -12.901500 -28.136600
C -5.416200 -12.471000 -26.707800
H -5.236200 -13.236700 -26.163400
H -5.124500 -10.990700 -28.952300
H -5.111700 -13.191600 -30.820800
H -4.934000 -15.306000 -29.407400
C -4.725400 -12.719700 -30.092600
H -4.690700 -11.858600 -26.620200
H -4.294400 -15.316500 -27.994000
C -4.281200 -13.491400 -28.833800
C -4.214100 -14.996400 -28.890500
H -4.138100 -10.077000 -30.795000
N -3.738900 -12.091500 -30.970200
C -3.594000 -10.745000 -31.205400
H -3.395800 -13.385400 -28.509200
O -2.991600 -15.493900 -29.433200
H -2.905500 -15.350400 -30.355400
C -2.820800 -12.709200 -31.772200
N -2.648700 -10.459500 -32.055500
N -2.596700 -14.043700 -31.834000
C -2.155100 -11.693300 -32.431600
H -2.037100 -16.289600 -32.368100
C -1.610100 -14.357000 -32.675500
N -1.232500 -15.606600 -32.847200
C -1.088400 -12.028400 -33.309200
N -0.902600 -13.408000 -33.372700
H -0.738000 -15.967200 -33.475700
O -0.365400 -11.280800 -33.973800
H 0.104300 -13.780700 -33.776300
H 0.555100 -17.537700 -34.916600
O 1.024800 -15.037800 -34.719100
H 1.397400 -19.724200 -35.217100
N 1.562100 -17.165000 -35.320100
C 1.747800 -15.785400 -35.383700
N 1.891900 -19.363600 -35.845600
C 2.269500 -18.114000 -36.017400
H 2.696500 -20.046600 -36.324800
C 2.814500 -15.450300 -36.261200
N 3.256100 -17.800700 -36.858900
N 3.308200 -14.216500 -36.637300
C 3.480200 -16.466200 -36.920700
H 3.564900 -19.107400 -38.337500
O 3.651000 -19.250900 -39.259700
H 4.055200 -17.142400 -40.183600
C 4.253400 -14.502000 -37.487400
N 4.398400 -15.848500 -37.722700
H 4.797500 -13.834000 -37.897800
C 4.873600 -18.753400 -39.802300
C 4.940600 -17.248400 -39.859000
H 4.953800 -19.073500 -40.698800
H 5.350100 -15.615600 -42.072600
C 5.384800 -16.476700 -38.600200
H 5.593400 -19.063000 -39.285400
H 5.771100 -16.948600 -37.872100
H 5.784000 -14.747700 -39.740500
H 5.895600 -16.993700 -42.529500
C 6.075600 -16.228000 -41.985100
C 6.194800 -16.658500 -40.556200
C 6.221900 -15.552500 -39.488100
H 6.958200 -17.194300 -40.734900
H 7.084700 -15.352600 -39.149800
O 7.266800 -15.622400 -42.455600
H 7.436700 -14.719900 -42.095000
