34
Fragment
H -6.777300 -10.962900 -26.597900
O -6.607300 -11.865400 -26.237200
H -6.425200 -11.595600 -29.543100
H -6.298800 -13.437300 -27.958000
C -5.562500 -11.795500 -29.204800
C -5.535400 -12.901500 -28.136600
C -5.416200 -12.471000 -26.707800
H -5.236200 -13.236700 -26.163400
H -5.124500 -10.990700 -28.952300
H -5.111700 -13.191600 -30.820800
H -4.934000 -15.306000 -29.407400
C -4.725400 -12.719700 -30.092600
H -4.690700 -11.858600 -26.620200
H -4.294400 -15.316500 -27.994000
C -4.281200 -13.491400 -28.833800
C -4.214100 -14.996400 -28.890500
H -4.138100 -10.077000 -30.795000
N -3.738900 -12.091500 -30.970200
C -3.594000 -10.745000 -31.205400
H -3.395800 -13.385400 -28.509200
O -2.991600 -15.493900 -29.433200
H -2.905500 -15.350400 -30.355400
C -2.820800 -12.709200 -31.772200
N -2.648700 -10.459500 -32.055500
N -2.596700 -14.043700 -31.834000
C -2.155100 -11.693300 -32.431600
H -2.037100 -16.289600 -32.368100
C -1.610100 -14.357000 -32.675500
N -1.232500 -15.606600 -32.847200
C -1.088400 -12.028400 -33.309200
N -0.902600 -13.408000 -33.372700
H -0.738000 -15.967200 -33.475700
O -0.365400 -11.280800 -33.973800
H 0.104300 -13.780700 -33.776300
3
Fragment
H -7.197700 -8.775600 -26.599600
H -7.183900 -9.083700 -28.042100
O -6.925100 -9.392500 -27.288200
37
Fragment
H -6.777300 -10.962900 -26.597900
O -6.607300 -11.865400 -26.237200
H -6.425200 -11.595600 -29.543100
H -6.298800 -13.437300 -27.958000
C -5.562500 -11.795500 -29.204800
C -5.535400 -12.901500 -28.136600
C -5.416200 -12.471000 -26.707800
H -5.236200 -13.236700 -26.163400
H -5.124500 -10.990700 -28.952300
H -5.111700 -13.191600 -30.820800
H -4.934000 -15.306000 -29.407400
C -4.725400 -12.719700 -30.092600
H -4.690700 -11.858600 -26.620200
H -4.294400 -15.316500 -27.994000
C -4.281200 -13.491400 -28.833800
C -4.214100 -14.996400 -28.890500
H -4.138100 -10.077000 -30.795000
N -3.738900 -12.091500 -30.970200
C -3.594000 -10.745000 -31.205400
H -3.395800 -13.385400 -28.509200
O -2.991600 -15.493900 -29.433200
H -2.905500 -15.350400 -30.355400
C -2.820800 -12.709200 -31.772200
N -2.648700 -10.459500 -32.055500
N -2.596700 -14.043700 -31.834000
C -2.155100 -11.693300 -32.431600
H -2.037100 -16.289600 -32.368100
C -1.610100 -14.357000 -32.675500
N -1.232500 -15.606600 -32.847200
C -1.088400 -12.028400 -33.309200
N -0.902600 -13.408000 -33.372700
H -0.738000 -15.967200 -33.475700
O -0.365400 -11.280800 -33.973800
H 0.104300 -13.780700 -33.776300
H -7.197700 -8.775600 -26.599600
H -7.183900 -9.083700 -28.042100
O -6.925100 -9.392500 -27.288200
