24
Fragment
H -10.205400 -11.415500 -40.186400
H -10.056600 -11.697600 -37.898100
C -9.382700 -11.215200 -39.733700
C -9.296200 -11.375000 -38.387500
H -8.701600 -11.522000 -35.781700
H -8.333300 -10.653800 -41.429600
C -8.260800 -10.752500 -40.477500
C -8.081600 -11.067400 -37.688400
C -7.958700 -11.213400 -36.305400
H -7.381600 -11.349200 -33.698800
C -7.086300 -10.447500 -39.859400
C -6.953000 -10.586000 -38.442800
C -6.770000 -10.900000 -35.635200
C -6.636800 -11.038500 -34.218600
H -6.341500 -10.136800 -40.379200
C -5.764400 -10.272600 -37.772600
C -5.641500 -10.418600 -36.389600
C -5.462200 -10.733500 -33.600600
H -5.389800 -10.832200 -32.648400
H -5.021400 -9.964000 -38.296400
C -4.426900 -10.111000 -35.690600
C -4.340300 -10.270800 -34.344300
H -3.666500 -9.788400 -36.180000
H -3.517700 -10.070500 -33.891700
17
Fragment
O -18.628800 -15.943500 -41.581500
N -17.731900 -15.310300 -42.121800
O -17.686700 -15.061300 -43.311500
H -17.520600 -15.321500 -39.509500
C -16.725900 -14.963800 -39.912000
C -16.617200 -14.825300 -41.276300
N -15.811600 -14.754400 -36.565200
C -15.724700 -14.678800 -37.697300
C -15.638300 -14.564900 -39.135900
C -15.512100 -14.278800 -41.906000
H -15.477700 -14.166100 -42.858800
C -14.480300 -14.044700 -39.718200
C -14.458900 -13.903200 -41.089100
H -13.724700 -13.794200 -39.181900
O -13.295800 -13.108000 -42.921300
N -13.265600 -13.299500 -41.713800
O -12.316800 -13.016900 -40.994800
41
Fragment
H -10.205400 -11.415500 -40.186400
H -10.056600 -11.697600 -37.898100
C -9.382700 -11.215200 -39.733700
C -9.296200 -11.375000 -38.387500
H -8.701600 -11.522000 -35.781700
H -8.333300 -10.653800 -41.429600
C -8.260800 -10.752500 -40.477500
C -8.081600 -11.067400 -37.688400
C -7.958700 -11.213400 -36.305400
H -7.381600 -11.349200 -33.698800
C -7.086300 -10.447500 -39.859400
C -6.953000 -10.586000 -38.442800
C -6.770000 -10.900000 -35.635200
C -6.636800 -11.038500 -34.218600
H -6.341500 -10.136800 -40.379200
C -5.764400 -10.272600 -37.772600
C -5.641500 -10.418600 -36.389600
C -5.462200 -10.733500 -33.600600
H -5.389800 -10.832200 -32.648400
H -5.021400 -9.964000 -38.296400
C -4.426900 -10.111000 -35.690600
C -4.340300 -10.270800 -34.344300
H -3.666500 -9.788400 -36.180000
H -3.517700 -10.070500 -33.891700
O -18.628800 -15.943500 -41.581500
N -17.731900 -15.310300 -42.121800
O -17.686700 -15.061300 -43.311500
H -17.520600 -15.321500 -39.509500
C -16.725900 -14.963800 -39.912000
C -16.617200 -14.825300 -41.276300
N -15.811600 -14.754400 -36.565200
C -15.724700 -14.678800 -37.697300
C -15.638300 -14.564900 -39.135900
C -15.512100 -14.278800 -41.906000
H -15.477700 -14.166100 -42.858800
C -14.480300 -14.044700 -39.718200
C -14.458900 -13.903200 -41.089100
H -13.724700 -13.794200 -39.181900
O -13.295800 -13.108000 -42.921300
N -13.265600 -13.299500 -41.713800
O -12.316800 -13.016900 -40.994800
