24
Fragment
H -10.205400 -11.415500 -40.186400
H -10.056600 -11.697600 -37.898100
C -9.382700 -11.215200 -39.733700
C -9.296200 -11.375000 -38.387500
H -8.701600 -11.522000 -35.781700
H -8.333300 -10.653800 -41.429600
C -8.260800 -10.752500 -40.477500
C -8.081600 -11.067400 -37.688400
C -7.958700 -11.213400 -36.305400
H -7.381600 -11.349200 -33.698800
C -7.086300 -10.447500 -39.859400
C -6.953000 -10.586000 -38.442800
C -6.770000 -10.900000 -35.635200
C -6.636800 -11.038500 -34.218600
H -6.341500 -10.136800 -40.379200
C -5.764400 -10.272600 -37.772600
C -5.641500 -10.418600 -36.389600
C -5.462200 -10.733500 -33.600600
H -5.389800 -10.832200 -32.648400
H -5.021400 -9.964000 -38.296400
C -4.426900 -10.111000 -35.690600
C -4.340300 -10.270800 -34.344300
H -3.666500 -9.788400 -36.180000
H -3.517700 -10.070500 -33.891700
24
Fragment
H -17.254400 -11.415500 -40.186400
H -17.105600 -11.697600 -37.898100
C -16.431700 -11.215200 -39.733700
C -16.345200 -11.375000 -38.387500
H -15.750600 -11.522000 -35.781700
H -15.382300 -10.653800 -41.429600
C -15.309800 -10.752500 -40.477500
C -15.130600 -11.067400 -37.688400
C -15.007700 -11.213400 -36.305400
H -14.430600 -11.349200 -33.698800
C -14.135300 -10.447500 -39.859400
C -14.002000 -10.586000 -38.442800
C -13.819000 -10.900000 -35.635200
C -13.685800 -11.038500 -34.218600
H -13.390500 -10.136800 -40.379200
C -12.813400 -10.272600 -37.772600
C -12.690500 -10.418600 -36.389600
C -12.511200 -10.733500 -33.600600
H -12.438800 -10.832200 -32.648400
H -12.070400 -9.964000 -38.296400
C -11.475900 -10.111000 -35.690600
C -11.389300 -10.270800 -34.344300
H -10.715500 -9.788400 -36.180000
H -10.566700 -10.070500 -33.891700
48
Fragment
H -10.205400 -11.415500 -40.186400
H -10.056600 -11.697600 -37.898100
C -9.382700 -11.215200 -39.733700
C -9.296200 -11.375000 -38.387500
H -8.701600 -11.522000 -35.781700
H -8.333300 -10.653800 -41.429600
C -8.260800 -10.752500 -40.477500
C -8.081600 -11.067400 -37.688400
C -7.958700 -11.213400 -36.305400
H -7.381600 -11.349200 -33.698800
C -7.086300 -10.447500 -39.859400
C -6.953000 -10.586000 -38.442800
C -6.770000 -10.900000 -35.635200
C -6.636800 -11.038500 -34.218600
H -6.341500 -10.136800 -40.379200
C -5.764400 -10.272600 -37.772600
C -5.641500 -10.418600 -36.389600
C -5.462200 -10.733500 -33.600600
H -5.389800 -10.832200 -32.648400
H -5.021400 -9.964000 -38.296400
C -4.426900 -10.111000 -35.690600
C -4.340300 -10.270800 -34.344300
H -3.666500 -9.788400 -36.180000
H -3.517700 -10.070500 -33.891700
H -17.254400 -11.415500 -40.186400
H -17.105600 -11.697600 -37.898100
C -16.431700 -11.215200 -39.733700
C -16.345200 -11.375000 -38.387500
H -15.750600 -11.522000 -35.781700
H -15.382300 -10.653800 -41.429600
C -15.309800 -10.752500 -40.477500
C -15.130600 -11.067400 -37.688400
C -15.007700 -11.213400 -36.305400
H -14.430600 -11.349200 -33.698800
C -14.135300 -10.447500 -39.859400
C -14.002000 -10.586000 -38.442800
C -13.819000 -10.900000 -35.635200
C -13.685800 -11.038500 -34.218600
H -13.390500 -10.136800 -40.379200
C -12.813400 -10.272600 -37.772600
C -12.690500 -10.418600 -36.389600
C -12.511200 -10.733500 -33.600600
H -12.438800 -10.832200 -32.648400
H -12.070400 -9.964000 -38.296400
C -11.475900 -10.111000 -35.690600
C -11.389300 -10.270800 -34.344300
H -10.715500 -9.788400 -36.180000
H -10.566700 -10.070500 -33.891700
