24
Fragment
H -10.205400 -11.415500 -40.186400
H -10.056600 -11.697600 -37.898100
C -9.382700 -11.215200 -39.733700
C -9.296200 -11.375000 -38.387500
H -8.701600 -11.522000 -35.781700
H -8.333300 -10.653800 -41.429600
C -8.260800 -10.752500 -40.477500
C -8.081600 -11.067400 -37.688400
C -7.958700 -11.213400 -36.305400
H -7.381600 -11.349200 -33.698800
C -7.086300 -10.447500 -39.859400
C -6.953000 -10.586000 -38.442800
C -6.770000 -10.900000 -35.635200
C -6.636800 -11.038500 -34.218600
H -6.341500 -10.136800 -40.379200
C -5.764400 -10.272600 -37.772600
C -5.641500 -10.418600 -36.389600
C -5.462200 -10.733500 -33.600600
H -5.389800 -10.832200 -32.648400
H -5.021400 -9.964000 -38.296400
C -4.426900 -10.111000 -35.690600
C -4.340300 -10.270800 -34.344300
H -3.666500 -9.788400 -36.180000
H -3.517700 -10.070500 -33.891700
17
Fragment
O -4.530800 -8.781500 -41.581500
N -3.633900 -8.148300 -42.121800
O -3.588700 -7.899300 -43.311500
H -3.422600 -8.159500 -39.509500
C -2.627900 -7.801800 -39.912000
C -2.519200 -7.663300 -41.276300
N -1.713600 -7.592400 -36.565200
C -1.626700 -7.516800 -37.697300
C -1.540300 -7.402900 -39.135900
C -1.414100 -7.116800 -41.906000
H -1.379700 -7.004100 -42.858800
C -0.382300 -6.882700 -39.718200
C -0.360900 -6.741200 -41.089100
H 0.373300 -6.632200 -39.181900
O 0.802200 -5.946000 -42.921300
N 0.832400 -6.137500 -41.713800
O 1.781200 -5.854900 -40.994800
41
Fragment
H -10.205400 -11.415500 -40.186400
H -10.056600 -11.697600 -37.898100
C -9.382700 -11.215200 -39.733700
C -9.296200 -11.375000 -38.387500
H -8.701600 -11.522000 -35.781700
H -8.333300 -10.653800 -41.429600
C -8.260800 -10.752500 -40.477500
C -8.081600 -11.067400 -37.688400
C -7.958700 -11.213400 -36.305400
H -7.381600 -11.349200 -33.698800
C -7.086300 -10.447500 -39.859400
C -6.953000 -10.586000 -38.442800
C -6.770000 -10.900000 -35.635200
C -6.636800 -11.038500 -34.218600
H -6.341500 -10.136800 -40.379200
C -5.764400 -10.272600 -37.772600
C -5.641500 -10.418600 -36.389600
C -5.462200 -10.733500 -33.600600
H -5.389800 -10.832200 -32.648400
H -5.021400 -9.964000 -38.296400
C -4.426900 -10.111000 -35.690600
C -4.340300 -10.270800 -34.344300
H -3.666500 -9.788400 -36.180000
H -3.517700 -10.070500 -33.891700
O -4.530800 -8.781500 -41.581500
N -3.633900 -8.148300 -42.121800
O -3.588700 -7.899300 -43.311500
H -3.422600 -8.159500 -39.509500
C -2.627900 -7.801800 -39.912000
C -2.519200 -7.663300 -41.276300
N -1.713600 -7.592400 -36.565200
C -1.626700 -7.516800 -37.697300
C -1.540300 -7.402900 -39.135900
C -1.414100 -7.116800 -41.906000
H -1.379700 -7.004100 -42.858800
C -0.382300 -6.882700 -39.718200
C -0.360900 -6.741200 -41.089100
H 0.373300 -6.632200 -39.181900
O 0.802200 -5.946000 -42.921300
N 0.832400 -6.137500 -41.713800
O 1.781200 -5.854900 -40.994800
