24
Fragment
H -10.205400 -11.415500 -40.186400
H -10.056600 -11.697600 -37.898100
C -9.382700 -11.215200 -39.733700
C -9.296200 -11.375000 -38.387500
H -8.701600 -11.522000 -35.781700
H -8.333300 -10.653800 -41.429600
C -8.260800 -10.752500 -40.477500
C -8.081600 -11.067400 -37.688400
C -7.958700 -11.213400 -36.305400
H -7.381600 -11.349200 -33.698800
C -7.086300 -10.447500 -39.859400
C -6.953000 -10.586000 -38.442800
C -6.770000 -10.900000 -35.635200
C -6.636800 -11.038500 -34.218600
H -6.341500 -10.136800 -40.379200
C -5.764400 -10.272600 -37.772600
C -5.641500 -10.418600 -36.389600
C -5.462200 -10.733500 -33.600600
H -5.389800 -10.832200 -32.648400
H -5.021400 -9.964000 -38.296400
C -4.426900 -10.111000 -35.690600
C -4.340300 -10.270800 -34.344300
H -3.666500 -9.788400 -36.180000
H -3.517700 -10.070500 -33.891700
24
Fragment
H -3.156400 -11.415500 -40.186400
H -3.007600 -11.697600 -37.898100
C -2.333700 -11.215200 -39.733700
C -2.247200 -11.375000 -38.387500
H -1.652600 -11.522000 -35.781700
H -1.284300 -10.653800 -41.429600
C -1.211800 -10.752500 -40.477500
C -1.032600 -11.067400 -37.688400
C -0.909700 -11.213400 -36.305400
H -0.332600 -11.349200 -33.698800
C -0.037300 -10.447500 -39.859400
C 0.096000 -10.586000 -38.442800
C 0.279000 -10.900000 -35.635200
C 0.412200 -11.038500 -34.218600
H 0.707500 -10.136800 -40.379200
C 1.284600 -10.272600 -37.772600
C 1.407500 -10.418600 -36.389600
C 1.586800 -10.733500 -33.600600
H 1.659200 -10.832200 -32.648400
H 2.027600 -9.964000 -38.296400
C 2.622100 -10.111000 -35.690600
C 2.708700 -10.270800 -34.344300
H 3.382500 -9.788400 -36.180000
H 3.531300 -10.070500 -33.891700
48
Fragment
H -10.205400 -11.415500 -40.186400
H -10.056600 -11.697600 -37.898100
C -9.382700 -11.215200 -39.733700
C -9.296200 -11.375000 -38.387500
H -8.701600 -11.522000 -35.781700
H -8.333300 -10.653800 -41.429600
C -8.260800 -10.752500 -40.477500
C -8.081600 -11.067400 -37.688400
C -7.958700 -11.213400 -36.305400
H -7.381600 -11.349200 -33.698800
C -7.086300 -10.447500 -39.859400
C -6.953000 -10.586000 -38.442800
C -6.770000 -10.900000 -35.635200
C -6.636800 -11.038500 -34.218600
H -6.341500 -10.136800 -40.379200
C -5.764400 -10.272600 -37.772600
C -5.641500 -10.418600 -36.389600
C -5.462200 -10.733500 -33.600600
H -5.389800 -10.832200 -32.648400
H -5.021400 -9.964000 -38.296400
C -4.426900 -10.111000 -35.690600
C -4.340300 -10.270800 -34.344300
H -3.666500 -9.788400 -36.180000
H -3.517700 -10.070500 -33.891700
H -3.156400 -11.415500 -40.186400
H -3.007600 -11.697600 -37.898100
C -2.333700 -11.215200 -39.733700
C -2.247200 -11.375000 -38.387500
H -1.652600 -11.522000 -35.781700
H -1.284300 -10.653800 -41.429600
C -1.211800 -10.752500 -40.477500
C -1.032600 -11.067400 -37.688400
C -0.909700 -11.213400 -36.305400
H -0.332600 -11.349200 -33.698800
C -0.037300 -10.447500 -39.859400
C 0.096000 -10.586000 -38.442800
C 0.279000 -10.900000 -35.635200
C 0.412200 -11.038500 -34.218600
H 0.707500 -10.136800 -40.379200
C 1.284600 -10.272600 -37.772600
C 1.407500 -10.418600 -36.389600
C 1.586800 -10.733500 -33.600600
H 1.659200 -10.832200 -32.648400
H 2.027600 -9.964000 -38.296400
C 2.622100 -10.111000 -35.690600
C 2.708700 -10.270800 -34.344300
H 3.382500 -9.788400 -36.180000
H 3.531300 -10.070500 -33.891700
