17
Fragment
N -17.965000 -20.445200 -13.792400
H -17.582600 -23.822300 -14.431000
O -17.386600 -26.170700 -14.922000
C -17.273700 -21.212500 -14.288400
C -16.766400 -23.542800 -14.852000
C -16.407600 -22.200300 -14.896300
N -16.304400 -25.888300 -15.418300
C -15.915200 -24.460600 -15.433200
O -15.548200 -26.696700 -15.935400
C -15.225700 -21.789800 -15.521100
H -14.981000 -20.862400 -15.561200
C -14.725200 -24.118000 -16.048700
C -14.418500 -22.765200 -16.072300
H -14.145000 -24.778700 -16.433800
N -13.156200 -22.357900 -16.716600
O -12.954900 -21.162300 -16.897100
O -12.371400 -23.247400 -17.033000
16
Fragment
H -17.871700 -16.561800 -16.384800
N -17.478500 -16.071000 -17.005900
H -17.298800 -15.233300 -16.729300
H -16.915000 -18.632900 -17.100100
C -16.342500 -16.700900 -17.530000
C -16.224600 -18.099900 -17.501000
H -15.415500 -14.989700 -18.155300
C -15.339600 -15.946500 -18.139300
C -15.109500 -18.695500 -18.072500
H -15.018800 -19.650100 -18.026700
C -14.229800 -16.557300 -18.722000
C -14.122300 -17.954000 -18.687300
H -13.366400 -18.389800 -19.087700
H -13.315100 -14.968100 -19.192400
N -13.265100 -15.787600 -19.386600
H -12.449600 -16.134900 -19.333300
33
Fragment
N -17.965000 -20.445200 -13.792400
H -17.582600 -23.822300 -14.431000
O -17.386600 -26.170700 -14.922000
C -17.273700 -21.212500 -14.288400
C -16.766400 -23.542800 -14.852000
C -16.407600 -22.200300 -14.896300
N -16.304400 -25.888300 -15.418300
C -15.915200 -24.460600 -15.433200
O -15.548200 -26.696700 -15.935400
C -15.225700 -21.789800 -15.521100
H -14.981000 -20.862400 -15.561200
C -14.725200 -24.118000 -16.048700
C -14.418500 -22.765200 -16.072300
H -14.145000 -24.778700 -16.433800
N -13.156200 -22.357900 -16.716600
O -12.954900 -21.162300 -16.897100
O -12.371400 -23.247400 -17.033000
H -17.871700 -16.561800 -16.384800
N -17.478500 -16.071000 -17.005900
H -17.298800 -15.233300 -16.729300
H -16.915000 -18.632900 -17.100100
C -16.342500 -16.700900 -17.530000
C -16.224600 -18.099900 -17.501000
H -15.415500 -14.989700 -18.155300
C -15.339600 -15.946500 -18.139300
C -15.109500 -18.695500 -18.072500
H -15.018800 -19.650100 -18.026700
C -14.229800 -16.557300 -18.722000
C -14.122300 -17.954000 -18.687300
H -13.366400 -18.389800 -19.087700
H -13.315100 -14.968100 -19.192400
N -13.265100 -15.787600 -19.386600
H -12.449600 -16.134900 -19.333300
