17
Fragment
N -17.965000 -20.445200 -13.792400
H -17.582600 -23.822300 -14.431000
O -17.386600 -26.170700 -14.922000
C -17.273700 -21.212500 -14.288400
C -16.766400 -23.542800 -14.852000
C -16.407600 -22.200300 -14.896300
N -16.304400 -25.888300 -15.418300
C -15.915200 -24.460600 -15.433200
O -15.548200 -26.696700 -15.935400
C -15.225700 -21.789800 -15.521100
H -14.981000 -20.862400 -15.561200
C -14.725200 -24.118000 -16.048700
C -14.418500 -22.765200 -16.072300
H -14.145000 -24.778700 -16.433800
N -13.156200 -22.357900 -16.716600
O -12.954900 -21.162300 -16.897100
O -12.371400 -23.247400 -17.033000
16
Fragment
H -23.109700 -29.844700 -11.166400
N -22.716600 -30.335500 -11.787500
H -22.536800 -31.173200 -11.510800
H -22.153100 -27.773600 -11.881700
C -21.580600 -29.705600 -12.311500
C -21.462600 -28.306600 -12.282500
H -20.653600 -31.416800 -12.936800
C -20.577600 -30.460000 -12.920900
C -20.347500 -27.711000 -12.854100
H -20.256800 -26.756400 -12.808200
C -19.467800 -29.849200 -13.503500
C -19.360400 -28.452500 -13.468900
H -18.604500 -28.016700 -13.869200
H -18.553100 -31.438400 -13.973900
N -18.503200 -30.618900 -14.168200
H -17.687600 -30.271600 -14.114800
33
Fragment
N -17.965000 -20.445200 -13.792400
H -17.582600 -23.822300 -14.431000
O -17.386600 -26.170700 -14.922000
C -17.273700 -21.212500 -14.288400
C -16.766400 -23.542800 -14.852000
C -16.407600 -22.200300 -14.896300
N -16.304400 -25.888300 -15.418300
C -15.915200 -24.460600 -15.433200
O -15.548200 -26.696700 -15.935400
C -15.225700 -21.789800 -15.521100
H -14.981000 -20.862400 -15.561200
C -14.725200 -24.118000 -16.048700
C -14.418500 -22.765200 -16.072300
H -14.145000 -24.778700 -16.433800
N -13.156200 -22.357900 -16.716600
O -12.954900 -21.162300 -16.897100
O -12.371400 -23.247400 -17.033000
H -23.109700 -29.844700 -11.166400
N -22.716600 -30.335500 -11.787500
H -22.536800 -31.173200 -11.510800
H -22.153100 -27.773600 -11.881700
C -21.580600 -29.705600 -12.311500
C -21.462600 -28.306600 -12.282500
H -20.653600 -31.416800 -12.936800
C -20.577600 -30.460000 -12.920900
C -20.347500 -27.711000 -12.854100
H -20.256800 -26.756400 -12.808200
C -19.467800 -29.849200 -13.503500
C -19.360400 -28.452500 -13.468900
H -18.604500 -28.016700 -13.869200
H -18.553100 -31.438400 -13.973900
N -18.503200 -30.618900 -14.168200
H -17.687600 -30.271600 -14.114800
