17
Fragment
N -17.965000 -20.445200 -13.792400
H -17.582600 -23.822300 -14.431000
O -17.386600 -26.170700 -14.922000
C -17.273700 -21.212500 -14.288400
C -16.766400 -23.542800 -14.852000
C -16.407600 -22.200300 -14.896300
N -16.304400 -25.888300 -15.418300
C -15.915200 -24.460600 -15.433200
O -15.548200 -26.696700 -15.935400
C -15.225700 -21.789800 -15.521100
H -14.981000 -20.862400 -15.561200
C -14.725200 -24.118000 -16.048700
C -14.418500 -22.765200 -16.072300
H -14.145000 -24.778700 -16.433800
N -13.156200 -22.357900 -16.716600
O -12.954900 -21.162300 -16.897100
O -12.371400 -23.247400 -17.033000
16
Fragment
H -15.390000 -23.642100 -11.977400
N -14.574500 -23.989400 -11.924000
H -14.524500 -24.808900 -12.118300
H -14.473200 -21.387200 -12.222900
C -13.717300 -21.823000 -12.623300
C -13.609900 -23.219700 -12.588600
H -12.820900 -20.126900 -13.283900
C -12.730100 -21.081500 -13.238100
C -12.500100 -23.830500 -13.171300
H -12.424100 -24.787300 -13.155400
C -11.615000 -21.677100 -13.809700
C -11.497100 -23.076100 -13.780600
H -10.924600 -21.144100 -14.210500
H -10.540800 -24.543700 -14.581400
N -10.361100 -23.706000 -14.304700
H -9.967900 -23.215200 -14.925800
33
Fragment
N -17.965000 -20.445200 -13.792400
H -17.582600 -23.822300 -14.431000
O -17.386600 -26.170700 -14.922000
C -17.273700 -21.212500 -14.288400
C -16.766400 -23.542800 -14.852000
C -16.407600 -22.200300 -14.896300
N -16.304400 -25.888300 -15.418300
C -15.915200 -24.460600 -15.433200
O -15.548200 -26.696700 -15.935400
C -15.225700 -21.789800 -15.521100
H -14.981000 -20.862400 -15.561200
C -14.725200 -24.118000 -16.048700
C -14.418500 -22.765200 -16.072300
H -14.145000 -24.778700 -16.433800
N -13.156200 -22.357900 -16.716600
O -12.954900 -21.162300 -16.897100
O -12.371400 -23.247400 -17.033000
H -15.390000 -23.642100 -11.977400
N -14.574500 -23.989400 -11.924000
H -14.524500 -24.808900 -12.118300
H -14.473200 -21.387200 -12.222900
C -13.717300 -21.823000 -12.623300
C -13.609900 -23.219700 -12.588600
H -12.820900 -20.126900 -13.283900
C -12.730100 -21.081500 -13.238100
C -12.500100 -23.830500 -13.171300
H -12.424100 -24.787300 -13.155400
C -11.615000 -21.677100 -13.809700
C -11.497100 -23.076100 -13.780600
H -10.924600 -21.144100 -14.210500
H -10.540800 -24.543700 -14.581400
N -10.361100 -23.706000 -14.304700
H -9.967900 -23.215200 -14.925800
