17
Fragment
O -13.823700 -12.616300 -39.662500
H -12.856600 -13.080700 -41.831100
N -12.740500 -12.961400 -39.208900
O -12.455700 -12.955100 -38.021200
C -12.011800 -13.405000 -41.510900
C -11.717400 -13.421300 -40.164300
N -11.436100 -13.881200 -44.944100
C -11.279200 -13.872500 -43.813200
C -11.039000 -13.872300 -42.391500
C -10.514900 -13.859500 -39.662800
H -10.327100 -13.843200 -38.721300
C -9.817800 -14.345000 -41.925700
C -9.585300 -14.318400 -40.572700
H -9.155500 -14.683700 -42.532600
N -8.289500 -14.809200 -40.070300
O -8.077600 -14.751900 -38.873700
O -7.499400 -15.246700 -40.890700
20
Fragment
H -15.728800 -12.439000 -31.337800
H -15.580500 -12.115100 -33.647800
H -15.540600 -10.974500 -35.657100
C -14.968000 -11.980000 -31.701700
C -14.881800 -11.791300 -33.074600
H -14.742200 -12.310200 -35.846800
C -14.689700 -11.352700 -35.890600
H -14.455000 -11.085700 -36.782400
H -14.063600 -11.660700 -29.909300
C -13.988900 -11.525500 -30.856700
C -13.781300 -11.125700 -33.619400
N -13.684600 -10.876500 -34.972200
C -12.906700 -10.883200 -31.385700
C -12.789500 -10.681800 -32.738800
H -12.549500 -10.310200 -36.503100
C -12.436700 -10.434700 -35.557700
H -12.216500 -10.565800 -30.799000
H -12.172600 -9.604300 -35.155000
H -12.017900 -10.227000 -33.084400
H -11.758800 -11.096200 -35.400900
37
Fragment
O -13.823700 -12.616300 -39.662500
H -12.856600 -13.080700 -41.831100
N -12.740500 -12.961400 -39.208900
O -12.455700 -12.955100 -38.021200
C -12.011800 -13.405000 -41.510900
C -11.717400 -13.421300 -40.164300
N -11.436100 -13.881200 -44.944100
C -11.279200 -13.872500 -43.813200
C -11.039000 -13.872300 -42.391500
C -10.514900 -13.859500 -39.662800
H -10.327100 -13.843200 -38.721300
C -9.817800 -14.345000 -41.925700
C -9.585300 -14.318400 -40.572700
H -9.155500 -14.683700 -42.532600
N -8.289500 -14.809200 -40.070300
O -8.077600 -14.751900 -38.873700
O -7.499400 -15.246700 -40.890700
H -15.728800 -12.439000 -31.337800
H -15.580500 -12.115100 -33.647800
H -15.540600 -10.974500 -35.657100
C -14.968000 -11.980000 -31.701700
C -14.881800 -11.791300 -33.074600
H -14.742200 -12.310200 -35.846800
C -14.689700 -11.352700 -35.890600
H -14.455000 -11.085700 -36.782400
H -14.063600 -11.660700 -29.909300
C -13.988900 -11.525500 -30.856700
C -13.781300 -11.125700 -33.619400
N -13.684600 -10.876500 -34.972200
C -12.906700 -10.883200 -31.385700
C -12.789500 -10.681800 -32.738800
H -12.549500 -10.310200 -36.503100
C -12.436700 -10.434700 -35.557700
H -12.216500 -10.565800 -30.799000
H -12.172600 -9.604300 -35.155000
H -12.017900 -10.227000 -33.084400
H -11.758800 -11.096200 -35.400900
