17
Fragment
O -13.823700 -12.616300 -39.662500
H -12.856600 -13.080700 -41.831100
N -12.740500 -12.961400 -39.208900
O -12.455700 -12.955100 -38.021200
C -12.011800 -13.405000 -41.510900
C -11.717400 -13.421300 -40.164300
N -11.436100 -13.881200 -44.944100
C -11.279200 -13.872500 -43.813200
C -11.039000 -13.872300 -42.391500
C -10.514900 -13.859500 -39.662800
H -10.327100 -13.843200 -38.721300
C -9.817800 -14.345000 -41.925700
C -9.585300 -14.318400 -40.572700
H -9.155500 -14.683700 -42.532600
N -8.289500 -14.809200 -40.070300
O -8.077600 -14.751900 -38.873700
O -7.499400 -15.246700 -40.890700
20
Fragment
H -5.238600 -16.263700 -38.570400
H -4.979500 -15.394500 -40.886900
H -4.824800 -14.771800 -38.816300
H -4.780900 -15.733300 -43.172300
C -4.560800 -15.602200 -38.413600
H -4.447900 -15.477700 -37.468200
C -4.207900 -15.849300 -41.232500
C -4.090700 -16.050700 -42.585600
N -3.312800 -16.044000 -38.999100
C -3.216200 -16.293200 -40.351900
C -3.008500 -16.693000 -43.114600
H -2.933800 -16.828200 -44.062000
H -2.542400 -16.253200 -37.188900
C -2.307700 -16.520200 -38.080700
H -2.255300 -17.477700 -38.124500
C -2.115600 -16.958800 -40.896700
C -2.029400 -17.147500 -42.269600
H -1.456800 -16.142000 -38.314200
H -1.416900 -17.282600 -40.323500
H -1.268600 -17.606500 -42.633500
37
Fragment
O -13.823700 -12.616300 -39.662500
H -12.856600 -13.080700 -41.831100
N -12.740500 -12.961400 -39.208900
O -12.455700 -12.955100 -38.021200
C -12.011800 -13.405000 -41.510900
C -11.717400 -13.421300 -40.164300
N -11.436100 -13.881200 -44.944100
C -11.279200 -13.872500 -43.813200
C -11.039000 -13.872300 -42.391500
C -10.514900 -13.859500 -39.662800
H -10.327100 -13.843200 -38.721300
C -9.817800 -14.345000 -41.925700
C -9.585300 -14.318400 -40.572700
H -9.155500 -14.683700 -42.532600
N -8.289500 -14.809200 -40.070300
O -8.077600 -14.751900 -38.873700
O -7.499400 -15.246700 -40.890700
H -5.238600 -16.263700 -38.570400
H -4.979500 -15.394500 -40.886900
H -4.824800 -14.771800 -38.816300
H -4.780900 -15.733300 -43.172300
C -4.560800 -15.602200 -38.413600
H -4.447900 -15.477700 -37.468200
C -4.207900 -15.849300 -41.232500
C -4.090700 -16.050700 -42.585600
N -3.312800 -16.044000 -38.999100
C -3.216200 -16.293200 -40.351900
C -3.008500 -16.693000 -43.114600
H -2.933800 -16.828200 -44.062000
H -2.542400 -16.253200 -37.188900
C -2.307700 -16.520200 -38.080700
H -2.255300 -17.477700 -38.124500
C -2.115600 -16.958800 -40.896700
C -2.029400 -17.147500 -42.269600
H -1.456800 -16.142000 -38.314200
H -1.416900 -17.282600 -40.323500
H -1.268600 -17.606500 -42.633500
