17
Fragment
O -13.823700 -12.616300 -39.662500
H -12.856600 -13.080700 -41.831100
N -12.740500 -12.961400 -39.208900
O -12.455700 -12.955100 -38.021200
C -12.011800 -13.405000 -41.510900
C -11.717400 -13.421300 -40.164300
N -11.436100 -13.881200 -44.944100
C -11.279200 -13.872500 -43.813200
C -11.039000 -13.872300 -42.391500
C -10.514900 -13.859500 -39.662800
H -10.327100 -13.843200 -38.721300
C -9.817800 -14.345000 -41.925700
C -9.585300 -14.318400 -40.572700
H -9.155500 -14.683700 -42.532600
N -8.289500 -14.809200 -40.070300
O -8.077600 -14.751900 -38.873700
O -7.499400 -15.246700 -40.890700
17
Fragment
O -14.570000 -15.246700 -33.080600
O -13.991800 -14.751900 -35.097600
N -13.779900 -14.809200 -33.901000
H -12.913900 -14.683700 -31.438700
C -12.484100 -14.318400 -33.398600
C -12.251600 -14.345000 -32.045600
H -11.742300 -13.843200 -35.250000
C -11.554600 -13.859500 -34.308500
C -11.030400 -13.872300 -31.579800
C -10.790200 -13.872500 -30.158100
N -10.633400 -13.881200 -29.027200
C -10.352000 -13.421300 -33.807000
C -10.057700 -13.405000 -32.460400
O -9.613800 -12.955100 -35.950100
N -9.328900 -12.961400 -34.762400
H -9.212900 -13.080700 -32.140200
O -8.245700 -12.616300 -34.308800
34
Fragment
O -13.823700 -12.616300 -39.662500
H -12.856600 -13.080700 -41.831100
N -12.740500 -12.961400 -39.208900
O -12.455700 -12.955100 -38.021200
C -12.011800 -13.405000 -41.510900
C -11.717400 -13.421300 -40.164300
N -11.436100 -13.881200 -44.944100
C -11.279200 -13.872500 -43.813200
C -11.039000 -13.872300 -42.391500
C -10.514900 -13.859500 -39.662800
H -10.327100 -13.843200 -38.721300
C -9.817800 -14.345000 -41.925700
C -9.585300 -14.318400 -40.572700
H -9.155500 -14.683700 -42.532600
N -8.289500 -14.809200 -40.070300
O -8.077600 -14.751900 -38.873700
O -7.499400 -15.246700 -40.890700
O -14.570000 -15.246700 -33.080600
O -13.991800 -14.751900 -35.097600
N -13.779900 -14.809200 -33.901000
H -12.913900 -14.683700 -31.438700
C -12.484100 -14.318400 -33.398600
C -12.251600 -14.345000 -32.045600
H -11.742300 -13.843200 -35.250000
C -11.554600 -13.859500 -34.308500
C -11.030400 -13.872300 -31.579800
C -10.790200 -13.872500 -30.158100
N -10.633400 -13.881200 -29.027200
C -10.352000 -13.421300 -33.807000
C -10.057700 -13.405000 -32.460400
O -9.613800 -12.955100 -35.950100
N -9.328900 -12.961400 -34.762400
H -9.212900 -13.080700 -32.140200
O -8.245700 -12.616300 -34.308800
