17
Fragment
N -17.965000 -20.445200 -13.792400
H -17.582600 -23.822300 -14.431000
O -17.386600 -26.170700 -14.922000
C -17.273700 -21.212500 -14.288400
C -16.766400 -23.542800 -14.852000
C -16.407600 -22.200300 -14.896300
N -16.304400 -25.888300 -15.418300
C -15.915200 -24.460600 -15.433200
O -15.548200 -26.696700 -15.935400
C -15.225700 -21.789800 -15.521100
H -14.981000 -20.862400 -15.561200
C -14.725200 -24.118000 -16.048700
C -14.418500 -22.765200 -16.072300
H -14.145000 -24.778700 -16.433800
N -13.156200 -22.357900 -16.716600
O -12.954900 -21.162300 -16.897100
O -12.371400 -23.247400 -17.033000
17
Fragment
O -20.706300 -29.876900 -9.059200
O -20.122800 -27.791800 -9.195100
N -19.921500 -28.987400 -9.375500
H -18.932700 -31.408200 -9.658400
C -18.659200 -29.394700 -10.019900
C -18.352400 -30.747500 -10.043500
H -18.096700 -27.491900 -10.531000
C -17.852000 -28.419300 -10.571100
O -17.529400 -33.326200 -10.156700
C -17.162400 -31.090100 -10.659000
N -16.773300 -32.517800 -10.673900
C -16.670100 -28.829800 -11.195800
C -16.311300 -30.172300 -11.240200
C -15.804000 -27.842000 -11.803800
O -15.691000 -32.800200 -11.170200
H -15.495100 -30.451800 -11.661200
N -15.112700 -27.074700 -12.299800
34
Fragment
N -17.965000 -20.445200 -13.792400
H -17.582600 -23.822300 -14.431000
O -17.386600 -26.170700 -14.922000
C -17.273700 -21.212500 -14.288400
C -16.766400 -23.542800 -14.852000
C -16.407600 -22.200300 -14.896300
N -16.304400 -25.888300 -15.418300
C -15.915200 -24.460600 -15.433200
O -15.548200 -26.696700 -15.935400
C -15.225700 -21.789800 -15.521100
H -14.981000 -20.862400 -15.561200
C -14.725200 -24.118000 -16.048700
C -14.418500 -22.765200 -16.072300
H -14.145000 -24.778700 -16.433800
N -13.156200 -22.357900 -16.716600
O -12.954900 -21.162300 -16.897100
O -12.371400 -23.247400 -17.033000
O -20.706300 -29.876900 -9.059200
O -20.122800 -27.791800 -9.195100
N -19.921500 -28.987400 -9.375500
H -18.932700 -31.408200 -9.658400
C -18.659200 -29.394700 -10.019900
C -18.352400 -30.747500 -10.043500
H -18.096700 -27.491900 -10.531000
C -17.852000 -28.419300 -10.571100
O -17.529400 -33.326200 -10.156700
C -17.162400 -31.090100 -10.659000
N -16.773300 -32.517800 -10.673900
C -16.670100 -28.829800 -11.195800
C -16.311300 -30.172300 -11.240200
C -15.804000 -27.842000 -11.803800
O -15.691000 -32.800200 -11.170200
H -15.495100 -30.451800 -11.661200
N -15.112700 -27.074700 -12.299800
