17
Fragment
N -17.965000 -20.445200 -13.792400
H -17.582600 -23.822300 -14.431000
O -17.386600 -26.170700 -14.922000
C -17.273700 -21.212500 -14.288400
C -16.766400 -23.542800 -14.852000
C -16.407600 -22.200300 -14.896300
N -16.304400 -25.888300 -15.418300
C -15.915200 -24.460600 -15.433200
O -15.548200 -26.696700 -15.935400
C -15.225700 -21.789800 -15.521100
H -14.981000 -20.862400 -15.561200
C -14.725200 -24.118000 -16.048700
C -14.418500 -22.765200 -16.072300
H -14.145000 -24.778700 -16.433800
N -13.156200 -22.357900 -16.716600
O -12.954900 -21.162300 -16.897100
O -12.371400 -23.247400 -17.033000
17
Fragment
N -12.727000 -25.961300 -19.010900
H -12.344500 -22.584200 -19.649400
O -12.148600 -20.235800 -20.140500
C -12.035600 -25.194000 -19.506800
C -11.528300 -22.863700 -20.070400
C -11.169500 -24.206200 -20.114800
N -11.066300 -20.518200 -20.636700
C -10.677200 -21.945900 -20.651700
O -10.310200 -19.709800 -21.153900
C -9.987600 -24.616700 -20.739500
H -9.742900 -25.544100 -20.779600
C -9.487200 -22.288500 -21.267100
C -9.180400 -23.641300 -21.290700
H -8.906900 -21.627800 -21.652200
N -7.918100 -24.048600 -21.935100
O -7.716800 -25.244200 -22.115500
O -7.133300 -23.159100 -22.251400
34
Fragment
N -17.965000 -20.445200 -13.792400
H -17.582600 -23.822300 -14.431000
O -17.386600 -26.170700 -14.922000
C -17.273700 -21.212500 -14.288400
C -16.766400 -23.542800 -14.852000
C -16.407600 -22.200300 -14.896300
N -16.304400 -25.888300 -15.418300
C -15.915200 -24.460600 -15.433200
O -15.548200 -26.696700 -15.935400
C -15.225700 -21.789800 -15.521100
H -14.981000 -20.862400 -15.561200
C -14.725200 -24.118000 -16.048700
C -14.418500 -22.765200 -16.072300
H -14.145000 -24.778700 -16.433800
N -13.156200 -22.357900 -16.716600
O -12.954900 -21.162300 -16.897100
O -12.371400 -23.247400 -17.033000
N -12.727000 -25.961300 -19.010900
H -12.344500 -22.584200 -19.649400
O -12.148600 -20.235800 -20.140500
C -12.035600 -25.194000 -19.506800
C -11.528300 -22.863700 -20.070400
C -11.169500 -24.206200 -20.114800
N -11.066300 -20.518200 -20.636700
C -10.677200 -21.945900 -20.651700
O -10.310200 -19.709800 -21.153900
C -9.987600 -24.616700 -20.739500
H -9.742900 -25.544100 -20.779600
C -9.487200 -22.288500 -21.267100
C -9.180400 -23.641300 -21.290700
H -8.906900 -21.627800 -21.652200
N -7.918100 -24.048600 -21.935100
O -7.716800 -25.244200 -22.115500
O -7.133300 -23.159100 -22.251400
