17
Fragment
O -13.823700 -12.616300 -39.662500
H -12.856600 -13.080700 -41.831100
N -12.740500 -12.961400 -39.208900
O -12.455700 -12.955100 -38.021200
C -12.011800 -13.405000 -41.510900
C -11.717400 -13.421300 -40.164300
N -11.436100 -13.881200 -44.944100
C -11.279200 -13.872500 -43.813200
C -11.039000 -13.872300 -42.391500
C -10.514900 -13.859500 -39.662800
H -10.327100 -13.843200 -38.721300
C -9.817800 -14.345000 -41.925700
C -9.585300 -14.318400 -40.572700
H -9.155500 -14.683700 -42.532600
N -8.289500 -14.809200 -40.070300
O -8.077600 -14.751900 -38.873700
O -7.499400 -15.246700 -40.890700
17
Fragment
O -8.751700 -17.783800 -39.662500
H -7.784600 -18.248200 -41.831100
N -7.668500 -18.128900 -39.208900
O -7.383700 -18.122600 -38.021200
C -6.939800 -18.572500 -41.510900
C -6.645400 -18.588800 -40.164300
N -6.364100 -19.048700 -44.944100
C -6.207200 -19.040000 -43.813200
C -5.967000 -19.039800 -42.391500
C -5.442900 -19.027000 -39.662800
H -5.255100 -19.010700 -38.721300
C -4.745800 -19.512500 -41.925700
C -4.513300 -19.485900 -40.572700
H -4.083500 -19.851200 -42.532600
N -3.217500 -19.976700 -40.070300
O -3.005600 -19.919400 -38.873700
O -2.427400 -20.414200 -40.890700
34
Fragment
O -13.823700 -12.616300 -39.662500
H -12.856600 -13.080700 -41.831100
N -12.740500 -12.961400 -39.208900
O -12.455700 -12.955100 -38.021200
C -12.011800 -13.405000 -41.510900
C -11.717400 -13.421300 -40.164300
N -11.436100 -13.881200 -44.944100
C -11.279200 -13.872500 -43.813200
C -11.039000 -13.872300 -42.391500
C -10.514900 -13.859500 -39.662800
H -10.327100 -13.843200 -38.721300
C -9.817800 -14.345000 -41.925700
C -9.585300 -14.318400 -40.572700
H -9.155500 -14.683700 -42.532600
N -8.289500 -14.809200 -40.070300
O -8.077600 -14.751900 -38.873700
O -7.499400 -15.246700 -40.890700
O -8.751700 -17.783800 -39.662500
H -7.784600 -18.248200 -41.831100
N -7.668500 -18.128900 -39.208900
O -7.383700 -18.122600 -38.021200
C -6.939800 -18.572500 -41.510900
C -6.645400 -18.588800 -40.164300
N -6.364100 -19.048700 -44.944100
C -6.207200 -19.040000 -43.813200
C -5.967000 -19.039800 -42.391500
C -5.442900 -19.027000 -39.662800
H -5.255100 -19.010700 -38.721300
C -4.745800 -19.512500 -41.925700
C -4.513300 -19.485900 -40.572700
H -4.083500 -19.851200 -42.532600
N -3.217500 -19.976700 -40.070300
O -3.005600 -19.919400 -38.873700
O -2.427400 -20.414200 -40.890700
