36
Fragment
F -15.013200 -22.479700 -55.627900
F -14.917100 -28.154200 -52.637900
F -14.163600 -24.102100 -56.762700
H -14.023400 -25.995500 -55.261900
C -13.995100 -23.340400 -55.681700
C -13.891100 -25.527700 -54.445400
C -13.850200 -24.137700 -54.419500
C -13.798200 -27.717500 -53.220600
F -13.773000 -28.248000 -54.445400
C -13.734400 -26.212800 -53.250000
C -13.656500 -23.452100 -53.228700
H -13.645500 -22.501900 -53.224600
O -13.642300 -22.188300 -50.720600
C -13.525000 -25.545500 -52.045300
C -13.477000 -24.153100 -52.041200
H -13.416300 -26.033400 -51.236900
C -13.210000 -23.330700 -50.810900
F -12.900700 -22.595900 -55.915400
F -12.782500 -28.244300 -52.542700
N -12.431300 -23.924600 -49.877300
H -12.184100 -24.764600 -49.963200
N -12.035300 -23.181100 -48.785700
H -11.787200 -21.338500 -47.041800
C -11.241600 -23.782000 -47.974200
Br -11.223300 -19.369000 -45.001800
C -11.158100 -21.780800 -46.482600
H -10.977000 -24.679100 -48.142400
C -10.746300 -23.080200 -46.786500
C -10.651000 -21.137100 -45.366900
C -9.816400 -23.710800 -45.954300
C -9.723500 -21.745500 -44.502900
H -9.543200 -20.428500 -43.285800
H -9.529000 -24.595100 -46.148400
C -9.317200 -23.045500 -44.848800
O -9.203000 -21.188300 -43.404500
Br -8.004500 -23.899000 -43.783500
6
Fragment
H -10.676200 -20.484400 -50.708200
H -10.396700 -20.639100 -49.137800
C -9.979400 -20.535900 -50.019500
H -9.399100 -21.305600 -50.198200
C -9.187300 -19.315700 -50.039900
N -8.567600 -18.366900 -50.057500
42
Fragment
F -15.013200 -22.479700 -55.627900
F -14.917100 -28.154200 -52.637900
F -14.163600 -24.102100 -56.762700
H -14.023400 -25.995500 -55.261900
C -13.995100 -23.340400 -55.681700
C -13.891100 -25.527700 -54.445400
C -13.850200 -24.137700 -54.419500
C -13.798200 -27.717500 -53.220600
F -13.773000 -28.248000 -54.445400
C -13.734400 -26.212800 -53.250000
C -13.656500 -23.452100 -53.228700
H -13.645500 -22.501900 -53.224600
O -13.642300 -22.188300 -50.720600
C -13.525000 -25.545500 -52.045300
C -13.477000 -24.153100 -52.041200
H -13.416300 -26.033400 -51.236900
C -13.210000 -23.330700 -50.810900
F -12.900700 -22.595900 -55.915400
F -12.782500 -28.244300 -52.542700
N -12.431300 -23.924600 -49.877300
H -12.184100 -24.764600 -49.963200
N -12.035300 -23.181100 -48.785700
H -11.787200 -21.338500 -47.041800
C -11.241600 -23.782000 -47.974200
Br -11.223300 -19.369000 -45.001800
C -11.158100 -21.780800 -46.482600
H -10.977000 -24.679100 -48.142400
C -10.746300 -23.080200 -46.786500
C -10.651000 -21.137100 -45.366900
C -9.816400 -23.710800 -45.954300
C -9.723500 -21.745500 -44.502900
H -9.543200 -20.428500 -43.285800
H -9.529000 -24.595100 -46.148400
C -9.317200 -23.045500 -44.848800
O -9.203000 -21.188300 -43.404500
Br -8.004500 -23.899000 -43.783500
H -10.676200 -20.484400 -50.708200
H -10.396700 -20.639100 -49.137800
C -9.979400 -20.535900 -50.019500
H -9.399100 -21.305600 -50.198200
C -9.187300 -19.315700 -50.039900
N -8.567600 -18.366900 -50.057500
