15
Fragment
H -22.702400 -14.658700 -21.910100
H -22.131600 -12.435200 -20.706900
C -21.726700 -14.821200 -21.960200
H -21.550700 -15.369300 -22.766100
H -21.366800 -12.980100 -22.858500
O -21.341300 -16.799200 -20.644300
C -21.286600 -15.578500 -20.739400
C -21.177900 -12.680200 -20.810000
C -21.000300 -13.486600 -22.091500
N -20.814500 -14.834800 -19.668000
C -20.730100 -13.455600 -19.602100
H -20.653100 -11.843000 -20.874700
H -20.542600 -15.283500 -18.962400
O -20.316500 -12.921200 -18.578000
H -20.037900 -13.644400 -22.256200
15
Fragment
H -17.999700 -12.101300 -16.769200
O -17.721100 -12.824500 -20.447300
H -17.495000 -10.462200 -20.062900
H -17.384600 -13.902700 -18.150700
C -17.307600 -12.290100 -19.423300
N -17.223200 -10.910900 -19.357400
C -17.037300 -12.259100 -16.933900
C -16.859800 -13.065500 -18.215400
C -16.751000 -10.167200 -18.286000
O -16.696300 -8.946500 -18.381100
H -16.670800 -12.765600 -16.166900
H -16.486900 -10.376400 -16.259300
C -16.310900 -10.924500 -17.065100
H -15.906000 -13.310500 -18.318500
H -15.335200 -11.087000 -17.115200
30
Fragment
H -22.702400 -14.658700 -21.910100
H -22.131600 -12.435200 -20.706900
C -21.726700 -14.821200 -21.960200
H -21.550700 -15.369300 -22.766100
H -21.366800 -12.980100 -22.858500
O -21.341300 -16.799200 -20.644300
C -21.286600 -15.578500 -20.739400
C -21.177900 -12.680200 -20.810000
C -21.000300 -13.486600 -22.091500
N -20.814500 -14.834800 -19.668000
C -20.730100 -13.455600 -19.602100
H -20.653100 -11.843000 -20.874700
H -20.542600 -15.283500 -18.962400
O -20.316500 -12.921200 -18.578000
H -20.037900 -13.644400 -22.256200
H -17.999700 -12.101300 -16.769200
O -17.721100 -12.824500 -20.447300
H -17.495000 -10.462200 -20.062900
H -17.384600 -13.902700 -18.150700
C -17.307600 -12.290100 -19.423300
N -17.223200 -10.910900 -19.357400
C -17.037300 -12.259100 -16.933900
C -16.859800 -13.065500 -18.215400
C -16.751000 -10.167200 -18.286000
O -16.696300 -8.946500 -18.381100
H -16.670800 -12.765600 -16.166900
H -16.486900 -10.376400 -16.259300
C -16.310900 -10.924500 -17.065100
H -15.906000 -13.310500 -18.318500
H -15.335200 -11.087000 -17.115200
