15
Fragment
H -20.761200 -13.670500 -19.210000
N -20.526900 -14.142000 -18.488500
H -20.500200 -15.017800 -18.451700
N -20.095200 -12.121900 -17.491400
C -20.052000 -13.469500 -17.434100
H -19.888500 -9.721200 -17.080500
N -19.597900 -14.193500 -16.400900
C -19.597900 -11.512200 -16.400900
N -19.597900 -10.176100 -16.400900
H -19.307300 -9.721200 -15.721200
C -19.143700 -13.469500 -15.367600
N -19.100600 -12.121900 -15.310400
H -18.695600 -15.017800 -14.350100
N -18.668900 -14.142000 -14.313300
H -18.434500 -13.670500 -13.591700
15
Fragment
H -18.984900 -9.367700 -10.402100
O -18.700100 -8.644300 -14.056300
H -18.474700 -10.967300 -13.649500
H -18.380300 -7.550900 -11.851900
C -18.295800 -9.177500 -13.032300
N -18.213400 -10.550000 -12.963800
C -18.042700 -9.211700 -10.545600
C -17.862700 -8.403400 -11.820600
C -17.750400 -11.295500 -11.893300
O -17.691100 -12.504700 -11.990900
H -17.681100 -8.726600 -9.805100
H -17.492000 -11.096000 -9.912700
C -17.325600 -10.538200 -10.671600
H -16.955300 -8.154200 -11.968700
H -16.342100 -10.381200 -10.791800
30
Fragment
H -20.761200 -13.670500 -19.210000
N -20.526900 -14.142000 -18.488500
H -20.500200 -15.017800 -18.451700
N -20.095200 -12.121900 -17.491400
C -20.052000 -13.469500 -17.434100
H -19.888500 -9.721200 -17.080500
N -19.597900 -14.193500 -16.400900
C -19.597900 -11.512200 -16.400900
N -19.597900 -10.176100 -16.400900
H -19.307300 -9.721200 -15.721200
C -19.143700 -13.469500 -15.367600
N -19.100600 -12.121900 -15.310400
H -18.695600 -15.017800 -14.350100
N -18.668900 -14.142000 -14.313300
H -18.434500 -13.670500 -13.591700
H -18.984900 -9.367700 -10.402100
O -18.700100 -8.644300 -14.056300
H -18.474700 -10.967300 -13.649500
H -18.380300 -7.550900 -11.851900
C -18.295800 -9.177500 -13.032300
N -18.213400 -10.550000 -12.963800
C -18.042700 -9.211700 -10.545600
C -17.862700 -8.403400 -11.820600
C -17.750400 -11.295500 -11.893300
O -17.691100 -12.504700 -11.990900
H -17.681100 -8.726600 -9.805100
H -17.492000 -11.096000 -9.912700
C -17.325600 -10.538200 -10.671600
H -16.955300 -8.154200 -11.968700
H -16.342100 -10.381200 -10.791800
