15
Fragment
H -22.702400 -14.658700 -21.910100
H -22.131600 -12.435200 -20.706900
C -21.726700 -14.821200 -21.960200
H -21.550700 -15.369300 -22.766100
H -21.366800 -12.980100 -22.858500
O -21.341300 -16.799200 -20.644300
C -21.286600 -15.578500 -20.739400
C -21.177900 -12.680200 -20.810000
C -21.000300 -13.486600 -22.091500
N -20.814500 -14.834800 -19.668000
C -20.730100 -13.455600 -19.602100
H -20.653100 -11.843000 -20.874700
H -20.542600 -15.283500 -18.962400
O -20.316500 -12.921200 -18.578000
H -20.037900 -13.644400 -22.256200
15
Fragment
H -25.133200 -16.392300 -16.769200
O -24.854600 -17.115500 -20.447300
H -24.628500 -14.753100 -20.062900
H -24.518100 -18.193600 -18.150700
C -24.441100 -16.581100 -19.423300
N -24.356700 -15.201900 -19.357400
C -24.170800 -16.550000 -16.933900
C -23.993300 -17.356500 -18.215400
C -23.884500 -14.458200 -18.286000
O -23.829800 -13.237500 -18.381100
H -23.804300 -17.056500 -16.166900
H -23.620400 -14.667300 -16.259300
C -23.444400 -15.215500 -17.065100
H -23.039500 -17.601500 -18.318500
H -22.468700 -15.377900 -17.115200
30
Fragment
H -22.702400 -14.658700 -21.910100
H -22.131600 -12.435200 -20.706900
C -21.726700 -14.821200 -21.960200
H -21.550700 -15.369300 -22.766100
H -21.366800 -12.980100 -22.858500
O -21.341300 -16.799200 -20.644300
C -21.286600 -15.578500 -20.739400
C -21.177900 -12.680200 -20.810000
C -21.000300 -13.486600 -22.091500
N -20.814500 -14.834800 -19.668000
C -20.730100 -13.455600 -19.602100
H -20.653100 -11.843000 -20.874700
H -20.542600 -15.283500 -18.962400
O -20.316500 -12.921200 -18.578000
H -20.037900 -13.644400 -22.256200
H -25.133200 -16.392300 -16.769200
O -24.854600 -17.115500 -20.447300
H -24.628500 -14.753100 -20.062900
H -24.518100 -18.193600 -18.150700
C -24.441100 -16.581100 -19.423300
N -24.356700 -15.201900 -19.357400
C -24.170800 -16.550000 -16.933900
C -23.993300 -17.356500 -18.215400
C -23.884500 -14.458200 -18.286000
O -23.829800 -13.237500 -18.381100
H -23.804300 -17.056500 -16.166900
H -23.620400 -14.667300 -16.259300
C -23.444400 -15.215500 -17.065100
H -23.039500 -17.601500 -18.318500
H -22.468700 -15.377900 -17.115200
