15
Fragment
H -22.702400 -14.658700 -21.910100
H -22.131600 -12.435200 -20.706900
C -21.726700 -14.821200 -21.960200
H -21.550700 -15.369300 -22.766100
H -21.366800 -12.980100 -22.858500
O -21.341300 -16.799200 -20.644300
C -21.286600 -15.578500 -20.739400
C -21.177900 -12.680200 -20.810000
C -21.000300 -13.486600 -22.091500
N -20.814500 -14.834800 -19.668000
C -20.730100 -13.455600 -19.602100
H -20.653100 -11.843000 -20.874700
H -20.542600 -15.283500 -18.962400
O -20.316500 -12.921200 -18.578000
H -20.037900 -13.644400 -22.256200
15
Fragment
H -19.870800 -7.744300 -25.553800
H -19.561200 -6.427000 -24.852700
N -19.559500 -7.307000 -24.856800
N -19.122700 -9.332700 -23.855800
C -19.082300 -7.982100 -23.798100
H -18.939700 -11.728000 -23.456800
N -18.621900 -11.287900 -22.764800
C -18.621900 -9.947400 -22.764800
N -18.621900 -7.255700 -22.764800
H -18.304000 -11.728000 -22.072700
C -18.161500 -7.982100 -21.731500
N -18.121000 -9.332700 -21.673800
N -17.684200 -7.307000 -20.672800
H -17.682600 -6.427000 -20.676900
H -17.372900 -7.744300 -19.975800
30
Fragment
H -22.702400 -14.658700 -21.910100
H -22.131600 -12.435200 -20.706900
C -21.726700 -14.821200 -21.960200
H -21.550700 -15.369300 -22.766100
H -21.366800 -12.980100 -22.858500
O -21.341300 -16.799200 -20.644300
C -21.286600 -15.578500 -20.739400
C -21.177900 -12.680200 -20.810000
C -21.000300 -13.486600 -22.091500
N -20.814500 -14.834800 -19.668000
C -20.730100 -13.455600 -19.602100
H -20.653100 -11.843000 -20.874700
H -20.542600 -15.283500 -18.962400
O -20.316500 -12.921200 -18.578000
H -20.037900 -13.644400 -22.256200
H -19.870800 -7.744300 -25.553800
H -19.561200 -6.427000 -24.852700
N -19.559500 -7.307000 -24.856800
N -19.122700 -9.332700 -23.855800
C -19.082300 -7.982100 -23.798100
H -18.939700 -11.728000 -23.456800
N -18.621900 -11.287900 -22.764800
C -18.621900 -9.947400 -22.764800
N -18.621900 -7.255700 -22.764800
H -18.304000 -11.728000 -22.072700
C -18.161500 -7.982100 -21.731500
N -18.121000 -9.332700 -21.673800
N -17.684200 -7.307000 -20.672800
H -17.682600 -6.427000 -20.676900
H -17.372900 -7.744300 -19.975800
