15
Fragment
H -22.702400 -14.658700 -21.910100
H -22.131600 -12.435200 -20.706900
C -21.726700 -14.821200 -21.960200
H -21.550700 -15.369300 -22.766100
H -21.366800 -12.980100 -22.858500
O -21.341300 -16.799200 -20.644300
C -21.286600 -15.578500 -20.739400
C -21.177900 -12.680200 -20.810000
C -21.000300 -13.486600 -22.091500
N -20.814500 -14.834800 -19.668000
C -20.730100 -13.455600 -19.602100
H -20.653100 -11.843000 -20.874700
H -20.542600 -15.283500 -18.962400
O -20.316500 -12.921200 -18.578000
H -20.037900 -13.644400 -22.256200
15
Fragment
H -21.908500 -11.087000 -28.414400
H -21.337700 -13.310500 -27.211100
C -20.932800 -10.924500 -28.464500
H -20.756800 -10.376400 -29.270300
H -20.572900 -12.765600 -29.362700
O -20.547400 -8.946500 -27.148500
C -20.492700 -10.167200 -27.243600
C -20.384000 -13.065500 -27.314200
C -20.206400 -12.259100 -28.595700
N -20.020600 -10.910900 -26.172200
C -19.936200 -12.290100 -26.106300
H -19.859200 -13.902700 -27.378900
H -19.748700 -10.462200 -25.466700
O -19.522600 -12.824500 -25.082300
H -19.244000 -12.101300 -28.760400
30
Fragment
H -22.702400 -14.658700 -21.910100
H -22.131600 -12.435200 -20.706900
C -21.726700 -14.821200 -21.960200
H -21.550700 -15.369300 -22.766100
H -21.366800 -12.980100 -22.858500
O -21.341300 -16.799200 -20.644300
C -21.286600 -15.578500 -20.739400
C -21.177900 -12.680200 -20.810000
C -21.000300 -13.486600 -22.091500
N -20.814500 -14.834800 -19.668000
C -20.730100 -13.455600 -19.602100
H -20.653100 -11.843000 -20.874700
H -20.542600 -15.283500 -18.962400
O -20.316500 -12.921200 -18.578000
H -20.037900 -13.644400 -22.256200
H -21.908500 -11.087000 -28.414400
H -21.337700 -13.310500 -27.211100
C -20.932800 -10.924500 -28.464500
H -20.756800 -10.376400 -29.270300
H -20.572900 -12.765600 -29.362700
O -20.547400 -8.946500 -27.148500
C -20.492700 -10.167200 -27.243600
C -20.384000 -13.065500 -27.314200
C -20.206400 -12.259100 -28.595700
N -20.020600 -10.910900 -26.172200
C -19.936200 -12.290100 -26.106300
H -19.859200 -13.902700 -27.378900
H -19.748700 -10.462200 -25.466700
O -19.522600 -12.824500 -25.082300
H -19.244000 -12.101300 -28.760400
