15
Fragment
H -20.761200 -13.670500 -19.210000
N -20.526900 -14.142000 -18.488500
H -20.500200 -15.017800 -18.451700
N -20.095200 -12.121900 -17.491400
C -20.052000 -13.469500 -17.434100
H -19.888500 -9.721200 -17.080500
N -19.597900 -14.193500 -16.400900
C -19.597900 -11.512200 -16.400900
N -19.597900 -10.176100 -16.400900
H -19.307300 -9.721200 -15.721200
C -19.143700 -13.469500 -15.367600
N -19.100600 -12.121900 -15.310400
H -18.695600 -15.017800 -14.350100
N -18.668900 -14.142000 -14.313300
H -18.434500 -13.670500 -13.591700
15
Fragment
H -22.853700 -18.962800 -22.010000
H -22.240500 -16.735800 -20.833100
C -21.870200 -19.119800 -22.130200
H -21.703800 -19.677600 -22.889100
H -21.514700 -17.308200 -22.996700
O -21.504700 -21.086300 -20.810900
C -21.445400 -19.877100 -20.908500
C -21.333100 -16.985000 -20.981200
C -21.153100 -17.793300 -22.256100
N -20.982400 -19.131600 -19.838000
C -20.900000 -17.759100 -19.769500
H -20.815500 -16.132500 -20.949800
H -20.721000 -19.548900 -19.152300
O -20.495600 -17.225900 -18.745400
H -20.210900 -17.949300 -22.399700
30
Fragment
H -20.761200 -13.670500 -19.210000
N -20.526900 -14.142000 -18.488500
H -20.500200 -15.017800 -18.451700
N -20.095200 -12.121900 -17.491400
C -20.052000 -13.469500 -17.434100
H -19.888500 -9.721200 -17.080500
N -19.597900 -14.193500 -16.400900
C -19.597900 -11.512200 -16.400900
N -19.597900 -10.176100 -16.400900
H -19.307300 -9.721200 -15.721200
C -19.143700 -13.469500 -15.367600
N -19.100600 -12.121900 -15.310400
H -18.695600 -15.017800 -14.350100
N -18.668900 -14.142000 -14.313300
H -18.434500 -13.670500 -13.591700
H -22.853700 -18.962800 -22.010000
H -22.240500 -16.735800 -20.833100
C -21.870200 -19.119800 -22.130200
H -21.703800 -19.677600 -22.889100
H -21.514700 -17.308200 -22.996700
O -21.504700 -21.086300 -20.810900
C -21.445400 -19.877100 -20.908500
C -21.333100 -16.985000 -20.981200
C -21.153100 -17.793300 -22.256100
N -20.982400 -19.131600 -19.838000
C -20.900000 -17.759100 -19.769500
H -20.815500 -16.132500 -20.949800
H -20.721000 -19.548900 -19.152300
O -20.495600 -17.225900 -18.745400
H -20.210900 -17.949300 -22.399700
