15
Fragment
H -20.761200 -13.670500 -19.210000
N -20.526900 -14.142000 -18.488500
H -20.500200 -15.017800 -18.451700
N -20.095200 -12.121900 -17.491400
C -20.052000 -13.469500 -17.434100
H -19.888500 -9.721200 -17.080500
N -19.597900 -14.193500 -16.400900
C -19.597900 -11.512200 -16.400900
N -19.597900 -10.176100 -16.400900
H -19.307300 -9.721200 -15.721200
C -19.143700 -13.469500 -15.367600
N -19.100600 -12.121900 -15.310400
H -18.695600 -15.017800 -14.350100
N -18.668900 -14.142000 -14.313300
H -18.434500 -13.670500 -13.591700
15
Fragment
H -23.740300 -15.363600 -15.449600
H -23.127100 -17.590600 -14.272700
C -22.756800 -15.206600 -15.569800
H -22.590400 -14.648800 -16.328700
H -22.401400 -17.018200 -16.436300
O -22.391400 -13.240100 -14.250500
C -22.332100 -14.449300 -14.348200
C -22.219700 -17.341400 -14.420800
C -22.039700 -16.533100 -15.695800
N -21.869000 -15.194800 -13.277600
C -21.786600 -16.567300 -13.209100
H -21.702200 -18.193900 -14.389500
H -21.607700 -14.777500 -12.591900
O -21.382300 -17.100500 -12.185100
H -21.097500 -16.377100 -15.839300
30
Fragment
H -20.761200 -13.670500 -19.210000
N -20.526900 -14.142000 -18.488500
H -20.500200 -15.017800 -18.451700
N -20.095200 -12.121900 -17.491400
C -20.052000 -13.469500 -17.434100
H -19.888500 -9.721200 -17.080500
N -19.597900 -14.193500 -16.400900
C -19.597900 -11.512200 -16.400900
N -19.597900 -10.176100 -16.400900
H -19.307300 -9.721200 -15.721200
C -19.143700 -13.469500 -15.367600
N -19.100600 -12.121900 -15.310400
H -18.695600 -15.017800 -14.350100
N -18.668900 -14.142000 -14.313300
H -18.434500 -13.670500 -13.591700
H -23.740300 -15.363600 -15.449600
H -23.127100 -17.590600 -14.272700
C -22.756800 -15.206600 -15.569800
H -22.590400 -14.648800 -16.328700
H -22.401400 -17.018200 -16.436300
O -22.391400 -13.240100 -14.250500
C -22.332100 -14.449300 -14.348200
C -22.219700 -17.341400 -14.420800
C -22.039700 -16.533100 -15.695800
N -21.869000 -15.194800 -13.277600
C -21.786600 -16.567300 -13.209100
H -21.702200 -18.193900 -14.389500
H -21.607700 -14.777500 -12.591900
O -21.382300 -17.100500 -12.185100
H -21.097500 -16.377100 -15.839300
