15
Fragment
H -20.761200 -13.670500 -19.210000
N -20.526900 -14.142000 -18.488500
H -20.500200 -15.017800 -18.451700
N -20.095200 -12.121900 -17.491400
C -20.052000 -13.469500 -17.434100
H -19.888500 -9.721200 -17.080500
N -19.597900 -14.193500 -16.400900
C -19.597900 -11.512200 -16.400900
N -19.597900 -10.176100 -16.400900
H -19.307300 -9.721200 -15.721200
C -19.143700 -13.469500 -15.367600
N -19.100600 -12.121900 -15.310400
H -18.695600 -15.017800 -14.350100
N -18.668900 -14.142000 -14.313300
H -18.434500 -13.670500 -13.591700
15
Fragment
H -25.369700 -12.086300 -16.962500
O -25.085000 -12.809700 -20.616700
H -24.859600 -10.486700 -20.209800
H -24.765100 -13.903100 -18.412300
C -24.680600 -12.276500 -19.592600
N -24.598300 -10.904000 -19.524100
C -24.427600 -12.242300 -17.106000
C -24.247600 -13.050600 -18.380900
C -24.135200 -10.158500 -18.453600
O -24.075900 -8.949300 -18.551200
H -24.065900 -12.727400 -16.365500
H -23.876900 -10.358000 -16.473100
C -23.710500 -10.915800 -17.232000
H -23.340100 -13.299800 -18.529100
H -22.727000 -11.072800 -17.352100
30
Fragment
H -20.761200 -13.670500 -19.210000
N -20.526900 -14.142000 -18.488500
H -20.500200 -15.017800 -18.451700
N -20.095200 -12.121900 -17.491400
C -20.052000 -13.469500 -17.434100
H -19.888500 -9.721200 -17.080500
N -19.597900 -14.193500 -16.400900
C -19.597900 -11.512200 -16.400900
N -19.597900 -10.176100 -16.400900
H -19.307300 -9.721200 -15.721200
C -19.143700 -13.469500 -15.367600
N -19.100600 -12.121900 -15.310400
H -18.695600 -15.017800 -14.350100
N -18.668900 -14.142000 -14.313300
H -18.434500 -13.670500 -13.591700
H -25.369700 -12.086300 -16.962500
O -25.085000 -12.809700 -20.616700
H -24.859600 -10.486700 -20.209800
H -24.765100 -13.903100 -18.412300
C -24.680600 -12.276500 -19.592600
N -24.598300 -10.904000 -19.524100
C -24.427600 -12.242300 -17.106000
C -24.247600 -13.050600 -18.380900
C -24.135200 -10.158500 -18.453600
O -24.075900 -8.949300 -18.551200
H -24.065900 -12.727400 -16.365500
H -23.876900 -10.358000 -16.473100
C -23.710500 -10.915800 -17.232000
H -23.340100 -13.299800 -18.529100
H -22.727000 -11.072800 -17.352100
