15
Fragment
H -22.702400 -14.658700 -21.910100
H -22.131600 -12.435200 -20.706900
C -21.726700 -14.821200 -21.960200
H -21.550700 -15.369300 -22.766100
H -21.366800 -12.980100 -22.858500
O -21.341300 -16.799200 -20.644300
C -21.286600 -15.578500 -20.739400
C -21.177900 -12.680200 -20.810000
C -21.000300 -13.486600 -22.091500
N -20.814500 -14.834800 -19.668000
C -20.730100 -13.455600 -19.602100
H -20.653100 -11.843000 -20.874700
H -20.542600 -15.283500 -18.962400
O -20.316500 -12.921200 -18.578000
H -20.037900 -13.644400 -22.256200
15
Fragment
H -24.339300 -17.935300 -23.273400
O -24.060700 -17.212100 -26.951600
H -23.834600 -19.574500 -26.567200
H -23.724200 -16.134000 -24.654900
C -23.647200 -17.746500 -25.927500
N -23.562800 -19.125700 -25.861600
C -23.376900 -17.777600 -23.438100
C -23.199400 -16.971100 -24.719600
C -23.090600 -19.869400 -24.790200
O -23.035900 -21.090100 -24.885300
H -23.010400 -17.271100 -22.671100
H -22.826500 -19.660300 -22.763500
C -22.650500 -19.112100 -23.569400
H -22.245600 -16.726100 -24.822700
H -21.674800 -18.949700 -23.619500
30
Fragment
H -22.702400 -14.658700 -21.910100
H -22.131600 -12.435200 -20.706900
C -21.726700 -14.821200 -21.960200
H -21.550700 -15.369300 -22.766100
H -21.366800 -12.980100 -22.858500
O -21.341300 -16.799200 -20.644300
C -21.286600 -15.578500 -20.739400
C -21.177900 -12.680200 -20.810000
C -21.000300 -13.486600 -22.091500
N -20.814500 -14.834800 -19.668000
C -20.730100 -13.455600 -19.602100
H -20.653100 -11.843000 -20.874700
H -20.542600 -15.283500 -18.962400
O -20.316500 -12.921200 -18.578000
H -20.037900 -13.644400 -22.256200
H -24.339300 -17.935300 -23.273400
O -24.060700 -17.212100 -26.951600
H -23.834600 -19.574500 -26.567200
H -23.724200 -16.134000 -24.654900
C -23.647200 -17.746500 -25.927500
N -23.562800 -19.125700 -25.861600
C -23.376900 -17.777600 -23.438100
C -23.199400 -16.971100 -24.719600
C -23.090600 -19.869400 -24.790200
O -23.035900 -21.090100 -24.885300
H -23.010400 -17.271100 -22.671100
H -22.826500 -19.660300 -22.763500
C -22.650500 -19.112100 -23.569400
H -22.245600 -16.726100 -24.822700
H -21.674800 -18.949700 -23.619500
