15
Fragment
H -20.761200 -13.670500 -19.210000
N -20.526900 -14.142000 -18.488500
H -20.500200 -15.017800 -18.451700
N -20.095200 -12.121900 -17.491400
C -20.052000 -13.469500 -17.434100
H -19.888500 -9.721200 -17.080500
N -19.597900 -14.193500 -16.400900
C -19.597900 -11.512200 -16.400900
N -19.597900 -10.176100 -16.400900
H -19.307300 -9.721200 -15.721200
C -19.143700 -13.469500 -15.367600
N -19.100600 -12.121900 -15.310400
H -18.695600 -15.017800 -14.350100
N -18.668900 -14.142000 -14.313300
H -18.434500 -13.670500 -13.591700
15
Fragment
H -18.098200 -7.795500 -16.962500
O -17.813500 -8.518900 -20.616700
H -17.588100 -6.195900 -20.209800
H -17.493600 -9.612300 -18.412300
C -17.409100 -7.985700 -19.592600
N -17.326800 -6.613200 -19.524100
C -17.156100 -7.951500 -17.106000
C -16.976100 -8.759800 -18.380900
C -16.863700 -5.867700 -18.453600
O -16.804400 -4.658500 -18.551200
H -16.794400 -8.436600 -16.365500
H -16.605400 -6.067200 -16.473100
C -16.439000 -6.625000 -17.232000
H -16.068600 -9.009000 -18.529100
H -15.455500 -6.782000 -17.352100
30
Fragment
H -20.761200 -13.670500 -19.210000
N -20.526900 -14.142000 -18.488500
H -20.500200 -15.017800 -18.451700
N -20.095200 -12.121900 -17.491400
C -20.052000 -13.469500 -17.434100
H -19.888500 -9.721200 -17.080500
N -19.597900 -14.193500 -16.400900
C -19.597900 -11.512200 -16.400900
N -19.597900 -10.176100 -16.400900
H -19.307300 -9.721200 -15.721200
C -19.143700 -13.469500 -15.367600
N -19.100600 -12.121900 -15.310400
H -18.695600 -15.017800 -14.350100
N -18.668900 -14.142000 -14.313300
H -18.434500 -13.670500 -13.591700
H -18.098200 -7.795500 -16.962500
O -17.813500 -8.518900 -20.616700
H -17.588100 -6.195900 -20.209800
H -17.493600 -9.612300 -18.412300
C -17.409100 -7.985700 -19.592600
N -17.326800 -6.613200 -19.524100
C -17.156100 -7.951500 -17.106000
C -16.976100 -8.759800 -18.380900
C -16.863700 -5.867700 -18.453600
O -16.804400 -4.658500 -18.551200
H -16.794400 -8.436600 -16.365500
H -16.605400 -6.067200 -16.473100
C -16.439000 -6.625000 -17.232000
H -16.068600 -9.009000 -18.529100
H -15.455500 -6.782000 -17.352100
