12
Fragment
H -13.886200 -19.551900 -21.997500
O -13.495000 -19.391000 -19.491700
N -13.102000 -19.825600 -21.692200
C -12.745700 -19.755000 -20.374800
O -12.185800 -20.295800 -23.719200
C -12.078700 -20.212600 -22.515300
H -11.311600 -20.982400 -19.636300
C -11.300900 -20.177200 -20.253300
C -10.864300 -20.505500 -21.671700
H -10.850100 -19.427900 -19.964300
H -10.576100 -21.447500 -21.845400
H -10.147900 -19.938100 -22.024000
15
Fragment
H -19.875800 -17.887500 -23.348400
H -19.537700 -18.463900 -24.787200
N -19.354600 -18.238400 -23.925900
C -18.124200 -18.519100 -23.487000
N -17.865000 -18.300300 -22.179200
N -17.248900 -19.002000 -24.390300
H -16.951400 -18.203200 -19.886100
C -16.614100 -18.600900 -21.811800
N -16.280400 -18.417900 -20.523000
C -16.032000 -19.260900 -23.899500
N -15.649100 -19.071500 -22.621600
H -15.377000 -18.688000 -20.195900
H -15.333400 -19.864800 -25.610500
N -15.116300 -19.749200 -24.736700
H -14.298000 -19.878900 -24.420100
27
Fragment
H -13.886200 -19.551900 -21.997500
O -13.495000 -19.391000 -19.491700
N -13.102000 -19.825600 -21.692200
C -12.745700 -19.755000 -20.374800
O -12.185800 -20.295800 -23.719200
C -12.078700 -20.212600 -22.515300
H -11.311600 -20.982400 -19.636300
C -11.300900 -20.177200 -20.253300
C -10.864300 -20.505500 -21.671700
H -10.850100 -19.427900 -19.964300
H -10.576100 -21.447500 -21.845400
H -10.147900 -19.938100 -22.024000
H -19.875800 -17.887500 -23.348400
H -19.537700 -18.463900 -24.787200
N -19.354600 -18.238400 -23.925900
C -18.124200 -18.519100 -23.487000
N -17.865000 -18.300300 -22.179200
N -17.248900 -19.002000 -24.390300
H -16.951400 -18.203200 -19.886100
C -16.614100 -18.600900 -21.811800
N -16.280400 -18.417900 -20.523000
C -16.032000 -19.260900 -23.899500
N -15.649100 -19.071500 -22.621600
H -15.377000 -18.688000 -20.195900
H -15.333400 -19.864800 -25.610500
N -15.116300 -19.749200 -24.736700
H -14.298000 -19.878900 -24.420100
