15
Fragment
H -22.702400 -14.658700 -21.910100
H -22.131600 -12.435200 -20.706900
C -21.726700 -14.821200 -21.960200
H -21.550700 -15.369300 -22.766100
H -21.366800 -12.980100 -22.858500
O -21.341300 -16.799200 -20.644300
C -21.286600 -15.578500 -20.739400
C -21.177900 -12.680200 -20.810000
C -21.000300 -13.486600 -22.091500
N -20.814500 -14.834800 -19.668000
C -20.730100 -13.455600 -19.602100
H -20.653100 -11.843000 -20.874700
H -20.542600 -15.283500 -18.962400
O -20.316500 -12.921200 -18.578000
H -20.037900 -13.644400 -22.256200
15
Fragment
H -20.664700 -9.419500 -19.049600
H -20.355100 -10.736800 -18.348400
N -20.353400 -9.856800 -18.352600
N -19.916600 -7.831100 -17.351600
C -19.876200 -9.181700 -17.293800
H -19.733600 -5.435800 -16.952600
N -19.415800 -9.908100 -16.260600
C -19.415800 -7.216400 -16.260600
N -19.415800 -5.875900 -16.260600
H -19.097900 -5.435800 -15.568500
C -18.955400 -9.181700 -15.227300
N -18.914900 -7.831100 -15.169600
N -18.478100 -9.856800 -14.168600
H -18.476500 -10.736800 -14.172700
H -18.166800 -9.419500 -13.471600
30
Fragment
H -22.702400 -14.658700 -21.910100
H -22.131600 -12.435200 -20.706900
C -21.726700 -14.821200 -21.960200
H -21.550700 -15.369300 -22.766100
H -21.366800 -12.980100 -22.858500
O -21.341300 -16.799200 -20.644300
C -21.286600 -15.578500 -20.739400
C -21.177900 -12.680200 -20.810000
C -21.000300 -13.486600 -22.091500
N -20.814500 -14.834800 -19.668000
C -20.730100 -13.455600 -19.602100
H -20.653100 -11.843000 -20.874700
H -20.542600 -15.283500 -18.962400
O -20.316500 -12.921200 -18.578000
H -20.037900 -13.644400 -22.256200
H -20.664700 -9.419500 -19.049600
H -20.355100 -10.736800 -18.348400
N -20.353400 -9.856800 -18.352600
N -19.916600 -7.831100 -17.351600
C -19.876200 -9.181700 -17.293800
H -19.733600 -5.435800 -16.952600
N -19.415800 -9.908100 -16.260600
C -19.415800 -7.216400 -16.260600
N -19.415800 -5.875900 -16.260600
H -19.097900 -5.435800 -15.568500
C -18.955400 -9.181700 -15.227300
N -18.914900 -7.831100 -15.169600
N -18.478100 -9.856800 -14.168600
H -18.476500 -10.736800 -14.172700
H -18.166800 -9.419500 -13.471600
