16
Fragment
N -13.731700 -40.416900 -13.526300
N -12.801000 -43.849600 -11.762900
C -12.688200 -40.839900 -13.670100
C -12.037200 -43.298200 -12.403400
C -11.387100 -41.422600 -13.858600
C -11.073500 -42.638100 -13.238700
H -10.649800 -39.974900 -15.058300
C -10.451700 -40.794600 -14.666400
C -9.838200 -43.223800 -13.446200
H -9.626600 -44.027000 -13.027500
C -9.220700 -41.389000 -14.889500
C -8.915600 -42.612300 -14.278500
C -8.268100 -40.747500 -15.755100
C -7.656900 -43.264900 -14.505400
N -7.528200 -40.226400 -16.447400
N -6.672800 -43.811500 -14.668800
32
Fragment
H -14.133700 -37.533800 -15.235200
H -13.779100 -35.499800 -14.219500
H -13.380000 -33.785700 -13.157400
C -13.310800 -37.110100 -15.327200
C -13.090900 -35.885700 -14.712600
H -12.936100 -31.797300 -12.057700
C -12.553400 -33.375500 -13.272600
H -12.490900 -38.515200 -16.455400
C -12.335600 -37.688900 -16.057900
C -12.286700 -32.171500 -12.608000
C -11.883000 -35.220800 -14.808000
C -11.615300 -33.964200 -14.091900
C -11.101000 -31.548300 -12.757200
C -11.082300 -37.059100 -16.229400
H -10.944500 -30.745700 -12.314100
C -10.843400 -35.806500 -15.588400
C -10.346600 -33.329300 -14.249000
H -10.206100 -38.463000 -17.399600
C -10.100700 -32.098300 -13.574500
C -10.059100 -37.643000 -16.986000
C -9.571900 -35.178200 -15.732500
C -9.322000 -33.897300 -15.058700
C -8.865900 -37.034800 -17.123600
C -8.852400 -31.459500 -13.766600
H -8.685200 -30.648800 -13.342300
C -8.610100 -35.814600 -16.494700
H -8.204600 -37.431800 -17.643500
C -8.128000 -33.220400 -15.195000
C -7.899400 -32.005600 -14.554500
H -7.772900 -35.420600 -16.590300
H -7.459300 -33.584700 -15.728300
H -7.087000 -31.567500 -14.668800
48
Fragment
N -13.731700 -40.416900 -13.526300
N -12.801000 -43.849600 -11.762900
C -12.688200 -40.839900 -13.670100
C -12.037200 -43.298200 -12.403400
C -11.387100 -41.422600 -13.858600
C -11.073500 -42.638100 -13.238700
H -10.649800 -39.974900 -15.058300
C -10.451700 -40.794600 -14.666400
C -9.838200 -43.223800 -13.446200
H -9.626600 -44.027000 -13.027500
C -9.220700 -41.389000 -14.889500
C -8.915600 -42.612300 -14.278500
C -8.268100 -40.747500 -15.755100
C -7.656900 -43.264900 -14.505400
N -7.528200 -40.226400 -16.447400
N -6.672800 -43.811500 -14.668800
H -14.133700 -37.533800 -15.235200
H -13.779100 -35.499800 -14.219500
H -13.380000 -33.785700 -13.157400
C -13.310800 -37.110100 -15.327200
C -13.090900 -35.885700 -14.712600
H -12.936100 -31.797300 -12.057700
C -12.553400 -33.375500 -13.272600
H -12.490900 -38.515200 -16.455400
C -12.335600 -37.688900 -16.057900
C -12.286700 -32.171500 -12.608000
C -11.883000 -35.220800 -14.808000
C -11.615300 -33.964200 -14.091900
C -11.101000 -31.548300 -12.757200
C -11.082300 -37.059100 -16.229400
H -10.944500 -30.745700 -12.314100
C -10.843400 -35.806500 -15.588400
C -10.346600 -33.329300 -14.249000
H -10.206100 -38.463000 -17.399600
C -10.100700 -32.098300 -13.574500
C -10.059100 -37.643000 -16.986000
C -9.571900 -35.178200 -15.732500
C -9.322000 -33.897300 -15.058700
C -8.865900 -37.034800 -17.123600
C -8.852400 -31.459500 -13.766600
H -8.685200 -30.648800 -13.342300
C -8.610100 -35.814600 -16.494700
H -8.204600 -37.431800 -17.643500
C -8.128000 -33.220400 -15.195000
C -7.899400 -32.005600 -14.554500
H -7.772900 -35.420600 -16.590300
H -7.459300 -33.584700 -15.728300
H -7.087000 -31.567500 -14.668800
