16
Fragment
N -13.731700 -40.416900 -13.526300
N -12.801000 -43.849600 -11.762900
C -12.688200 -40.839900 -13.670100
C -12.037200 -43.298200 -12.403400
C -11.387100 -41.422600 -13.858600
C -11.073500 -42.638100 -13.238700
H -10.649800 -39.974900 -15.058300
C -10.451700 -40.794600 -14.666400
C -9.838200 -43.223800 -13.446200
H -9.626600 -44.027000 -13.027500
C -9.220700 -41.389000 -14.889500
C -8.915600 -42.612300 -14.278500
C -8.268100 -40.747500 -15.755100
C -7.656900 -43.264900 -14.505400
N -7.528200 -40.226400 -16.447400
N -6.672800 -43.811500 -14.668800
32
Fragment
H -6.244700 -37.533800 -15.235200
H -5.890100 -35.499800 -14.219500
H -5.491000 -33.785700 -13.157400
C -5.421800 -37.110100 -15.327200
C -5.201900 -35.885700 -14.712600
H -5.047100 -31.797300 -12.057700
C -4.664400 -33.375500 -13.272600
H -4.601900 -38.515200 -16.455400
C -4.446600 -37.688900 -16.057900
C -4.397700 -32.171500 -12.608000
C -3.994000 -35.220800 -14.808000
C -3.726300 -33.964200 -14.091900
C -3.212000 -31.548300 -12.757200
C -3.193300 -37.059100 -16.229400
H -3.055500 -30.745700 -12.314100
C -2.954400 -35.806500 -15.588400
C -2.457600 -33.329300 -14.249000
H -2.317100 -38.463000 -17.399600
C -2.211700 -32.098300 -13.574500
C -2.170100 -37.643000 -16.986000
C -1.682900 -35.178200 -15.732500
C -1.433000 -33.897300 -15.058700
C -0.976900 -37.034800 -17.123600
C -0.963400 -31.459500 -13.766600
H -0.796200 -30.648800 -13.342300
C -0.721100 -35.814600 -16.494700
H -0.315600 -37.431800 -17.643500
C -0.239000 -33.220400 -15.195000
C -0.010400 -32.005600 -14.554500
H 0.116100 -35.420600 -16.590300
H 0.429700 -33.584700 -15.728300
H 0.802000 -31.567500 -14.668800
48
Fragment
N -13.731700 -40.416900 -13.526300
N -12.801000 -43.849600 -11.762900
C -12.688200 -40.839900 -13.670100
C -12.037200 -43.298200 -12.403400
C -11.387100 -41.422600 -13.858600
C -11.073500 -42.638100 -13.238700
H -10.649800 -39.974900 -15.058300
C -10.451700 -40.794600 -14.666400
C -9.838200 -43.223800 -13.446200
H -9.626600 -44.027000 -13.027500
C -9.220700 -41.389000 -14.889500
C -8.915600 -42.612300 -14.278500
C -8.268100 -40.747500 -15.755100
C -7.656900 -43.264900 -14.505400
N -7.528200 -40.226400 -16.447400
N -6.672800 -43.811500 -14.668800
H -6.244700 -37.533800 -15.235200
H -5.890100 -35.499800 -14.219500
H -5.491000 -33.785700 -13.157400
C -5.421800 -37.110100 -15.327200
C -5.201900 -35.885700 -14.712600
H -5.047100 -31.797300 -12.057700
C -4.664400 -33.375500 -13.272600
H -4.601900 -38.515200 -16.455400
C -4.446600 -37.688900 -16.057900
C -4.397700 -32.171500 -12.608000
C -3.994000 -35.220800 -14.808000
C -3.726300 -33.964200 -14.091900
C -3.212000 -31.548300 -12.757200
C -3.193300 -37.059100 -16.229400
H -3.055500 -30.745700 -12.314100
C -2.954400 -35.806500 -15.588400
C -2.457600 -33.329300 -14.249000
H -2.317100 -38.463000 -17.399600
C -2.211700 -32.098300 -13.574500
C -2.170100 -37.643000 -16.986000
C -1.682900 -35.178200 -15.732500
C -1.433000 -33.897300 -15.058700
C -0.976900 -37.034800 -17.123600
C -0.963400 -31.459500 -13.766600
H -0.796200 -30.648800 -13.342300
C -0.721100 -35.814600 -16.494700
H -0.315600 -37.431800 -17.643500
C -0.239000 -33.220400 -15.195000
C -0.010400 -32.005600 -14.554500
H 0.116100 -35.420600 -16.590300
H 0.429700 -33.584700 -15.728300
H 0.802000 -31.567500 -14.668800
