16
Fragment
N -13.731700 -40.416900 -13.526300
N -12.801000 -43.849600 -11.762900
C -12.688200 -40.839900 -13.670100
C -12.037200 -43.298200 -12.403400
C -11.387100 -41.422600 -13.858600
C -11.073500 -42.638100 -13.238700
H -10.649800 -39.974900 -15.058300
C -10.451700 -40.794600 -14.666400
C -9.838200 -43.223800 -13.446200
H -9.626600 -44.027000 -13.027500
C -9.220700 -41.389000 -14.889500
C -8.915600 -42.612300 -14.278500
C -8.268100 -40.747500 -15.755100
C -7.656900 -43.264900 -14.505400
N -7.528200 -40.226400 -16.447400
N -6.672800 -43.811500 -14.668800
32
Fragment
H -7.876100 -46.569500 -16.596600
H -7.503800 -48.586700 -15.537100
H -7.190200 -50.422600 -14.675100
C -7.063700 -47.007600 -16.710900
C -6.835100 -48.222400 -16.070400
H -6.758500 -52.433800 -13.621900
C -6.353000 -50.816600 -14.770700
H -6.278000 -45.650800 -17.923100
C -6.110700 -46.461500 -17.498800
C -6.097200 -52.036800 -14.141800
C -5.641100 -48.899300 -16.206700
C -5.391200 -50.180200 -15.532900
C -4.904000 -52.645000 -14.279300
C -4.862400 -47.100300 -17.690800
H -4.757000 -53.465000 -13.865800
C -4.616500 -48.331300 -17.016400
C -4.119700 -50.808500 -15.677000
H -4.018600 -45.747700 -18.951300
C -3.880800 -52.061100 -15.036000
C -3.862100 -46.550300 -18.508200
C -3.347800 -48.966200 -17.173400
C -3.080100 -50.222800 -16.457400
C -2.676400 -47.173500 -18.657400
C -2.627500 -52.690900 -15.207500
H -2.472200 -53.517200 -14.810000
C -2.409700 -48.377500 -17.992800
H -2.027000 -46.799300 -19.207700
C -1.872200 -50.887700 -16.552800
C -1.652300 -52.112100 -15.938200
H -1.583100 -48.787700 -18.108000
H -1.184000 -50.501800 -17.045900
H -0.829400 -52.535800 -16.030200
48
Fragment
N -13.731700 -40.416900 -13.526300
N -12.801000 -43.849600 -11.762900
C -12.688200 -40.839900 -13.670100
C -12.037200 -43.298200 -12.403400
C -11.387100 -41.422600 -13.858600
C -11.073500 -42.638100 -13.238700
H -10.649800 -39.974900 -15.058300
C -10.451700 -40.794600 -14.666400
C -9.838200 -43.223800 -13.446200
H -9.626600 -44.027000 -13.027500
C -9.220700 -41.389000 -14.889500
C -8.915600 -42.612300 -14.278500
C -8.268100 -40.747500 -15.755100
C -7.656900 -43.264900 -14.505400
N -7.528200 -40.226400 -16.447400
N -6.672800 -43.811500 -14.668800
H -7.876100 -46.569500 -16.596600
H -7.503800 -48.586700 -15.537100
H -7.190200 -50.422600 -14.675100
C -7.063700 -47.007600 -16.710900
C -6.835100 -48.222400 -16.070400
H -6.758500 -52.433800 -13.621900
C -6.353000 -50.816600 -14.770700
H -6.278000 -45.650800 -17.923100
C -6.110700 -46.461500 -17.498800
C -6.097200 -52.036800 -14.141800
C -5.641100 -48.899300 -16.206700
C -5.391200 -50.180200 -15.532900
C -4.904000 -52.645000 -14.279300
C -4.862400 -47.100300 -17.690800
H -4.757000 -53.465000 -13.865800
C -4.616500 -48.331300 -17.016400
C -4.119700 -50.808500 -15.677000
H -4.018600 -45.747700 -18.951300
C -3.880800 -52.061100 -15.036000
C -3.862100 -46.550300 -18.508200
C -3.347800 -48.966200 -17.173400
C -3.080100 -50.222800 -16.457400
C -2.676400 -47.173500 -18.657400
C -2.627500 -52.690900 -15.207500
H -2.472200 -53.517200 -14.810000
C -2.409700 -48.377500 -17.992800
H -2.027000 -46.799300 -19.207700
C -1.872200 -50.887700 -16.552800
C -1.652300 -52.112100 -15.938200
H -1.583100 -48.787700 -18.108000
H -1.184000 -50.501800 -17.045900
H -0.829400 -52.535800 -16.030200
