16
Fragment
N -13.731700 -40.416900 -13.526300
N -12.801000 -43.849600 -11.762900
C -12.688200 -40.839900 -13.670100
C -12.037200 -43.298200 -12.403400
C -11.387100 -41.422600 -13.858600
C -11.073500 -42.638100 -13.238700
H -10.649800 -39.974900 -15.058300
C -10.451700 -40.794600 -14.666400
C -9.838200 -43.223800 -13.446200
H -9.626600 -44.027000 -13.027500
C -9.220700 -41.389000 -14.889500
C -8.915600 -42.612300 -14.278500
C -8.268100 -40.747500 -15.755100
C -7.656900 -43.264900 -14.505400
N -7.528200 -40.226400 -16.447400
N -6.672800 -43.811500 -14.668800
16
Fragment
N -21.620700 -40.416900 -13.526300
N -20.690000 -43.849600 -11.762900
C -20.577200 -40.839900 -13.670100
C -19.926200 -43.298200 -12.403400
C -19.276100 -41.422600 -13.858600
C -18.962500 -42.638100 -13.238700
H -18.538800 -39.974900 -15.058300
C -18.340700 -40.794600 -14.666400
C -17.727200 -43.223800 -13.446200
H -17.515600 -44.027000 -13.027500
C -17.109700 -41.389000 -14.889500
C -16.804600 -42.612300 -14.278500
C -16.157100 -40.747500 -15.755100
C -15.545900 -43.264900 -14.505400
N -15.417200 -40.226400 -16.447400
N -14.561800 -43.811500 -14.668800
32
Fragment
N -13.731700 -40.416900 -13.526300
N -12.801000 -43.849600 -11.762900
C -12.688200 -40.839900 -13.670100
C -12.037200 -43.298200 -12.403400
C -11.387100 -41.422600 -13.858600
C -11.073500 -42.638100 -13.238700
H -10.649800 -39.974900 -15.058300
C -10.451700 -40.794600 -14.666400
C -9.838200 -43.223800 -13.446200
H -9.626600 -44.027000 -13.027500
C -9.220700 -41.389000 -14.889500
C -8.915600 -42.612300 -14.278500
C -8.268100 -40.747500 -15.755100
C -7.656900 -43.264900 -14.505400
N -7.528200 -40.226400 -16.447400
N -6.672800 -43.811500 -14.668800
N -21.620700 -40.416900 -13.526300
N -20.690000 -43.849600 -11.762900
C -20.577200 -40.839900 -13.670100
C -19.926200 -43.298200 -12.403400
C -19.276100 -41.422600 -13.858600
C -18.962500 -42.638100 -13.238700
H -18.538800 -39.974900 -15.058300
C -18.340700 -40.794600 -14.666400
C -17.727200 -43.223800 -13.446200
H -17.515600 -44.027000 -13.027500
C -17.109700 -41.389000 -14.889500
C -16.804600 -42.612300 -14.278500
C -16.157100 -40.747500 -15.755100
C -15.545900 -43.264900 -14.505400
N -15.417200 -40.226400 -16.447400
N -14.561800 -43.811500 -14.668800
