16
Fragment
N -13.731700 -40.416900 -13.526300
N -12.801000 -43.849600 -11.762900
C -12.688200 -40.839900 -13.670100
C -12.037200 -43.298200 -12.403400
C -11.387100 -41.422600 -13.858600
C -11.073500 -42.638100 -13.238700
H -10.649800 -39.974900 -15.058300
C -10.451700 -40.794600 -14.666400
C -9.838200 -43.223800 -13.446200
H -9.626600 -44.027000 -13.027500
C -9.220700 -41.389000 -14.889500
C -8.915600 -42.612300 -14.278500
C -8.268100 -40.747500 -15.755100
C -7.656900 -43.264900 -14.505400
N -7.528200 -40.226400 -16.447400
N -6.672800 -43.811500 -14.668800
32
Fragment
H -22.139100 -37.476200 -10.768700
H -21.784500 -39.510200 -9.753000
H -21.385400 -41.224300 -8.690900
C -21.316200 -37.899900 -10.860700
C -21.096400 -39.124300 -10.246100
H -20.941500 -43.212700 -7.591200
C -20.558800 -41.634500 -8.806100
H -20.496300 -36.494800 -11.988900
C -20.341000 -37.321100 -11.591400
C -20.292100 -42.838500 -8.141500
C -19.888400 -39.789200 -10.341500
C -19.620700 -41.045800 -9.625400
C -19.106400 -43.461700 -8.290700
C -19.087700 -37.950900 -11.762900
H -18.950000 -44.264300 -7.847600
C -18.848800 -39.203500 -11.121900
C -18.352000 -41.680700 -9.782500
H -18.211500 -36.547000 -12.933100
C -18.106100 -42.911700 -9.108100
C -18.064500 -37.367000 -12.519600
C -17.577300 -39.831800 -11.266000
C -17.327400 -41.112700 -10.592200
C -16.871300 -37.975200 -12.657100
C -16.857800 -43.550500 -9.300100
H -16.690600 -44.361200 -8.875800
C -16.615500 -39.195400 -12.028200
H -16.210000 -37.578200 -13.177000
C -16.133400 -41.789600 -10.728500
C -15.904800 -43.004400 -10.088000
H -15.778400 -39.589400 -12.123800
H -15.464800 -41.425300 -11.261800
H -15.092400 -43.442500 -10.202300
48
Fragment
N -13.731700 -40.416900 -13.526300
N -12.801000 -43.849600 -11.762900
C -12.688200 -40.839900 -13.670100
C -12.037200 -43.298200 -12.403400
C -11.387100 -41.422600 -13.858600
C -11.073500 -42.638100 -13.238700
H -10.649800 -39.974900 -15.058300
C -10.451700 -40.794600 -14.666400
C -9.838200 -43.223800 -13.446200
H -9.626600 -44.027000 -13.027500
C -9.220700 -41.389000 -14.889500
C -8.915600 -42.612300 -14.278500
C -8.268100 -40.747500 -15.755100
C -7.656900 -43.264900 -14.505400
N -7.528200 -40.226400 -16.447400
N -6.672800 -43.811500 -14.668800
H -22.139100 -37.476200 -10.768700
H -21.784500 -39.510200 -9.753000
H -21.385400 -41.224300 -8.690900
C -21.316200 -37.899900 -10.860700
C -21.096400 -39.124300 -10.246100
H -20.941500 -43.212700 -7.591200
C -20.558800 -41.634500 -8.806100
H -20.496300 -36.494800 -11.988900
C -20.341000 -37.321100 -11.591400
C -20.292100 -42.838500 -8.141500
C -19.888400 -39.789200 -10.341500
C -19.620700 -41.045800 -9.625400
C -19.106400 -43.461700 -8.290700
C -19.087700 -37.950900 -11.762900
H -18.950000 -44.264300 -7.847600
C -18.848800 -39.203500 -11.121900
C -18.352000 -41.680700 -9.782500
H -18.211500 -36.547000 -12.933100
C -18.106100 -42.911700 -9.108100
C -18.064500 -37.367000 -12.519600
C -17.577300 -39.831800 -11.266000
C -17.327400 -41.112700 -10.592200
C -16.871300 -37.975200 -12.657100
C -16.857800 -43.550500 -9.300100
H -16.690600 -44.361200 -8.875800
C -16.615500 -39.195400 -12.028200
H -16.210000 -37.578200 -13.177000
C -16.133400 -41.789600 -10.728500
C -15.904800 -43.004400 -10.088000
H -15.778400 -39.589400 -12.123800
H -15.464800 -41.425300 -11.261800
H -15.092400 -43.442500 -10.202300
