16
Fragment
N -10.400100 -8.898000 -18.722500
H -10.382200 -7.356000 -21.823600
C -10.039900 -8.968900 -19.794100
N -10.012400 -6.421500 -25.120500
C -9.905900 -8.111500 -22.082300
C -9.792800 -7.242500 -24.362300
C -9.602100 -9.095300 -21.158300
C -9.495600 -8.262000 -23.391300
C -8.886800 -10.242000 -21.541900
C -8.780300 -9.408700 -23.774900
C -8.589500 -11.261500 -20.570900
C -8.476500 -10.392500 -22.850900
N -8.370000 -12.082500 -19.812700
C -8.342500 -9.535100 -25.139100
H -8.000200 -11.148000 -23.109600
N -7.982300 -9.606000 -26.210700
14
Fragment
O -11.030800 -8.477400 -15.978700
H -10.932600 -7.695200 -13.582900
H -10.823900 -8.571700 -16.863400
C -10.518300 -7.081500 -14.145400
C -10.435600 -7.334400 -15.502200
H -10.048500 -5.744300 -12.711300
C -9.984900 -5.915100 -13.623300
C -9.808000 -6.420900 -16.332200
H -9.744500 -6.591700 -17.244200
C -9.357300 -5.001600 -14.453200
C -9.274600 -5.254500 -15.810000
H -8.969000 -3.764300 -13.092000
H -8.860300 -4.640800 -16.372600
O -8.762100 -3.858600 -13.976800
30
Fragment
N -10.400100 -8.898000 -18.722500
H -10.382200 -7.356000 -21.823600
C -10.039900 -8.968900 -19.794100
N -10.012400 -6.421500 -25.120500
C -9.905900 -8.111500 -22.082300
C -9.792800 -7.242500 -24.362300
C -9.602100 -9.095300 -21.158300
C -9.495600 -8.262000 -23.391300
C -8.886800 -10.242000 -21.541900
C -8.780300 -9.408700 -23.774900
C -8.589500 -11.261500 -20.570900
C -8.476500 -10.392500 -22.850900
N -8.370000 -12.082500 -19.812700
C -8.342500 -9.535100 -25.139100
H -8.000200 -11.148000 -23.109600
N -7.982300 -9.606000 -26.210700
O -11.030800 -8.477400 -15.978700
H -10.932600 -7.695200 -13.582900
H -10.823900 -8.571700 -16.863400
C -10.518300 -7.081500 -14.145400
C -10.435600 -7.334400 -15.502200
H -10.048500 -5.744300 -12.711300
C -9.984900 -5.915100 -13.623300
C -9.808000 -6.420900 -16.332200
H -9.744500 -6.591700 -17.244200
C -9.357300 -5.001600 -14.453200
C -9.274600 -5.254500 -15.810000
H -8.969000 -3.764300 -13.092000
H -8.860300 -4.640800 -16.372600
O -8.762100 -3.858600 -13.976800
