16
Fragment
N -10.400100 -8.898000 -18.722500
H -10.382200 -7.356000 -21.823600
C -10.039900 -8.968900 -19.794100
N -10.012400 -6.421500 -25.120500
C -9.905900 -8.111500 -22.082300
C -9.792800 -7.242500 -24.362300
C -9.602100 -9.095300 -21.158300
C -9.495600 -8.262000 -23.391300
C -8.886800 -10.242000 -21.541900
C -8.780300 -9.408700 -23.774900
C -8.589500 -11.261500 -20.570900
C -8.476500 -10.392500 -22.850900
N -8.370000 -12.082500 -19.812700
C -8.342500 -9.535100 -25.139100
H -8.000200 -11.148000 -23.109600
N -7.982300 -9.606000 -26.210700
16
Fragment
N -13.463800 -6.522000 -26.211300
H -13.446000 -8.064000 -29.312500
C -13.103600 -6.451100 -27.283000
N -13.076100 -8.998500 -32.609400
C -12.969600 -7.308500 -29.571100
C -12.856600 -8.177500 -31.851200
C -12.665900 -6.324700 -28.647200
C -12.559400 -7.158000 -30.880200
C -11.950500 -5.178000 -29.030700
C -11.844000 -6.011300 -31.263800
C -11.653300 -4.158500 -28.059700
C -11.540200 -5.027500 -30.339800
N -11.433700 -3.337500 -27.301600
C -11.406200 -5.884900 -32.627900
H -11.063900 -4.272000 -30.598400
N -11.046000 -5.814000 -33.699600
32
Fragment
N -10.400100 -8.898000 -18.722500
H -10.382200 -7.356000 -21.823600
C -10.039900 -8.968900 -19.794100
N -10.012400 -6.421500 -25.120500
C -9.905900 -8.111500 -22.082300
C -9.792800 -7.242500 -24.362300
C -9.602100 -9.095300 -21.158300
C -9.495600 -8.262000 -23.391300
C -8.886800 -10.242000 -21.541900
C -8.780300 -9.408700 -23.774900
C -8.589500 -11.261500 -20.570900
C -8.476500 -10.392500 -22.850900
N -8.370000 -12.082500 -19.812700
C -8.342500 -9.535100 -25.139100
H -8.000200 -11.148000 -23.109600
N -7.982300 -9.606000 -26.210700
N -13.463800 -6.522000 -26.211300
H -13.446000 -8.064000 -29.312500
C -13.103600 -6.451100 -27.283000
N -13.076100 -8.998500 -32.609400
C -12.969600 -7.308500 -29.571100
C -12.856600 -8.177500 -31.851200
C -12.665900 -6.324700 -28.647200
C -12.559400 -7.158000 -30.880200
C -11.950500 -5.178000 -29.030700
C -11.844000 -6.011300 -31.263800
C -11.653300 -4.158500 -28.059700
C -11.540200 -5.027500 -30.339800
N -11.433700 -3.337500 -27.301600
C -11.406200 -5.884900 -32.627900
H -11.063900 -4.272000 -30.598400
N -11.046000 -5.814000 -33.699600
