16
Fragment
N -10.400100 -8.898000 -18.722500
H -10.382200 -7.356000 -21.823600
C -10.039900 -8.968900 -19.794100
N -10.012400 -6.421500 -25.120500
C -9.905900 -8.111500 -22.082300
C -9.792800 -7.242500 -24.362300
C -9.602100 -9.095300 -21.158300
C -9.495600 -8.262000 -23.391300
C -8.886800 -10.242000 -21.541900
C -8.780300 -9.408700 -23.774900
C -8.589500 -11.261500 -20.570900
C -8.476500 -10.392500 -22.850900
N -8.370000 -12.082500 -19.812700
C -8.342500 -9.535100 -25.139100
H -8.000200 -11.148000 -23.109600
N -7.982300 -9.606000 -26.210700
14
Fragment
O -9.620300 -14.645400 -30.956400
H -9.522100 -13.863200 -28.560600
H -9.413400 -14.739700 -31.841200
C -9.107800 -13.249500 -29.123100
C -9.025100 -13.502400 -30.480000
H -8.637900 -11.912300 -27.689000
C -8.574400 -12.083100 -28.601000
C -8.397500 -12.588900 -31.309900
H -8.333900 -12.759700 -32.221900
C -7.946800 -11.169600 -29.430900
C -7.864100 -11.422500 -30.787800
H -7.558400 -9.932300 -28.069800
H -7.449800 -10.808800 -31.350300
O -7.351600 -10.026600 -28.954500
30
Fragment
N -10.400100 -8.898000 -18.722500
H -10.382200 -7.356000 -21.823600
C -10.039900 -8.968900 -19.794100
N -10.012400 -6.421500 -25.120500
C -9.905900 -8.111500 -22.082300
C -9.792800 -7.242500 -24.362300
C -9.602100 -9.095300 -21.158300
C -9.495600 -8.262000 -23.391300
C -8.886800 -10.242000 -21.541900
C -8.780300 -9.408700 -23.774900
C -8.589500 -11.261500 -20.570900
C -8.476500 -10.392500 -22.850900
N -8.370000 -12.082500 -19.812700
C -8.342500 -9.535100 -25.139100
H -8.000200 -11.148000 -23.109600
N -7.982300 -9.606000 -26.210700
O -9.620300 -14.645400 -30.956400
H -9.522100 -13.863200 -28.560600
H -9.413400 -14.739700 -31.841200
C -9.107800 -13.249500 -29.123100
C -9.025100 -13.502400 -30.480000
H -8.637900 -11.912300 -27.689000
C -8.574400 -12.083100 -28.601000
C -8.397500 -12.588900 -31.309900
H -8.333900 -12.759700 -32.221900
C -7.946800 -11.169600 -29.430900
C -7.864100 -11.422500 -30.787800
H -7.558400 -9.932300 -28.069800
H -7.449800 -10.808800 -31.350300
O -7.351600 -10.026600 -28.954500
