28
Fragment
O -10.981400 -17.843500 -14.041200
H -10.536100 -17.182500 -16.398400
O -10.325100 -14.145400 -14.605000
O -10.108700 -13.135800 -16.523800
H -10.068600 -15.840400 -18.023200
N -10.027200 -17.085800 -13.882500
N -9.768500 -13.948800 -15.679300
C -9.730500 -17.507700 -16.226400
H -9.720000 -18.469500 -16.078800
O -9.676200 -16.582100 -12.831500
C -9.275300 -16.119900 -18.308400
H -9.260900 -16.515200 -19.155100
N -9.241000 -16.875400 -14.998900
N -8.903900 -17.134700 -17.334000
N -8.693700 -14.745800 -15.960000
N -8.356600 -15.005100 -18.295100
H -8.336700 -15.365400 -14.138900
C -8.322300 -15.760700 -14.985600
O -7.921400 -15.298400 -20.462500
H -7.877600 -13.411100 -17.215200
C -7.867100 -14.372800 -17.067600
N -7.829100 -17.931700 -17.614700
N -7.570400 -14.794700 -19.411500
H -7.528900 -16.040200 -15.270800
O -7.488800 -18.744700 -16.770200
O -7.272500 -17.735100 -18.689000
H -7.061400 -14.698000 -16.895600
O -6.616200 -14.037000 -19.252800
19
Fragment
O -8.069800 -21.748900 -21.563400
H -7.844900 -21.506600 -18.934300
O -7.519200 -22.703200 -23.427900
H -7.490600 -23.476800 -19.844300
N -7.438100 -22.577800 -22.212600
H -6.997900 -21.605400 -17.737900
C -6.981300 -21.390800 -18.611300
H -6.764100 -20.533200 -18.806700
C -6.700900 -23.429000 -20.111800
N -6.561600 -23.351400 -21.554500
H -6.194300 -24.226000 -19.903200
H -6.178400 -25.051700 -22.335800
N -6.175300 -22.307900 -19.387100
C -5.788500 -24.293000 -22.335800
H -5.339600 -24.850900 -21.808700
H -5.214200 -23.837100 -22.930700
N -4.836300 -22.237700 -19.245000
O -4.373400 -21.375900 -18.511500
O -4.166900 -23.027300 -19.915400
47
Fragment
O -10.981400 -17.843500 -14.041200
H -10.536100 -17.182500 -16.398400
O -10.325100 -14.145400 -14.605000
O -10.108700 -13.135800 -16.523800
H -10.068600 -15.840400 -18.023200
N -10.027200 -17.085800 -13.882500
N -9.768500 -13.948800 -15.679300
C -9.730500 -17.507700 -16.226400
H -9.720000 -18.469500 -16.078800
O -9.676200 -16.582100 -12.831500
C -9.275300 -16.119900 -18.308400
H -9.260900 -16.515200 -19.155100
N -9.241000 -16.875400 -14.998900
N -8.903900 -17.134700 -17.334000
N -8.693700 -14.745800 -15.960000
N -8.356600 -15.005100 -18.295100
H -8.336700 -15.365400 -14.138900
C -8.322300 -15.760700 -14.985600
O -7.921400 -15.298400 -20.462500
H -7.877600 -13.411100 -17.215200
C -7.867100 -14.372800 -17.067600
N -7.829100 -17.931700 -17.614700
N -7.570400 -14.794700 -19.411500
H -7.528900 -16.040200 -15.270800
O -7.488800 -18.744700 -16.770200
O -7.272500 -17.735100 -18.689000
H -7.061400 -14.698000 -16.895600
O -6.616200 -14.037000 -19.252800
O -8.069800 -21.748900 -21.563400
H -7.844900 -21.506600 -18.934300
O -7.519200 -22.703200 -23.427900
H -7.490600 -23.476800 -19.844300
N -7.438100 -22.577800 -22.212600
H -6.997900 -21.605400 -17.737900
C -6.981300 -21.390800 -18.611300
H -6.764100 -20.533200 -18.806700
C -6.700900 -23.429000 -20.111800
N -6.561600 -23.351400 -21.554500
H -6.194300 -24.226000 -19.903200
H -6.178400 -25.051700 -22.335800
N -6.175300 -22.307900 -19.387100
C -5.788500 -24.293000 -22.335800
H -5.339600 -24.850900 -21.808700
H -5.214200 -23.837100 -22.930700
N -4.836300 -22.237700 -19.245000
O -4.373400 -21.375900 -18.511500
O -4.166900 -23.027300 -19.915400
