28
Fragment
O -10.981400 -17.843500 -14.041200
H -10.536100 -17.182500 -16.398400
O -10.325100 -14.145400 -14.605000
O -10.108700 -13.135800 -16.523800
H -10.068600 -15.840400 -18.023200
N -10.027200 -17.085800 -13.882500
N -9.768500 -13.948800 -15.679300
C -9.730500 -17.507700 -16.226400
H -9.720000 -18.469500 -16.078800
O -9.676200 -16.582100 -12.831500
C -9.275300 -16.119900 -18.308400
H -9.260900 -16.515200 -19.155100
N -9.241000 -16.875400 -14.998900
N -8.903900 -17.134700 -17.334000
N -8.693700 -14.745800 -15.960000
N -8.356600 -15.005100 -18.295100
H -8.336700 -15.365400 -14.138900
C -8.322300 -15.760700 -14.985600
O -7.921400 -15.298400 -20.462500
H -7.877600 -13.411100 -17.215200
C -7.867100 -14.372800 -17.067600
N -7.829100 -17.931700 -17.614700
N -7.570400 -14.794700 -19.411500
H -7.528900 -16.040200 -15.270800
O -7.488800 -18.744700 -16.770200
O -7.272500 -17.735100 -18.689000
H -7.061400 -14.698000 -16.895600
O -6.616200 -14.037000 -19.252800
19
Fragment
O -13.430700 -8.853200 -13.378600
O -13.224100 -10.504600 -14.782500
N -12.761300 -9.642800 -14.049000
H -12.383400 -8.043500 -10.363300
H -12.257900 -7.029700 -11.485300
C -11.809100 -7.587600 -10.958200
N -11.422200 -9.572700 -13.906900
H -11.419200 -6.828800 -10.958200
H -11.403300 -7.654500 -13.390800
N -11.036000 -8.529100 -11.739500
C -10.896700 -8.451500 -13.182200
H -10.833500 -11.347300 -14.487300
C -10.616300 -10.489800 -14.682700
H -10.599700 -10.275100 -15.556100
N -10.159400 -9.302700 -11.081400
H -10.107000 -8.403700 -13.449700
O -10.078400 -9.177300 -9.866100
H -9.752700 -10.373900 -14.359700
O -9.527800 -10.131600 -11.730600
47
Fragment
O -10.981400 -17.843500 -14.041200
H -10.536100 -17.182500 -16.398400
O -10.325100 -14.145400 -14.605000
O -10.108700 -13.135800 -16.523800
H -10.068600 -15.840400 -18.023200
N -10.027200 -17.085800 -13.882500
N -9.768500 -13.948800 -15.679300
C -9.730500 -17.507700 -16.226400
H -9.720000 -18.469500 -16.078800
O -9.676200 -16.582100 -12.831500
C -9.275300 -16.119900 -18.308400
H -9.260900 -16.515200 -19.155100
N -9.241000 -16.875400 -14.998900
N -8.903900 -17.134700 -17.334000
N -8.693700 -14.745800 -15.960000
N -8.356600 -15.005100 -18.295100
H -8.336700 -15.365400 -14.138900
C -8.322300 -15.760700 -14.985600
O -7.921400 -15.298400 -20.462500
H -7.877600 -13.411100 -17.215200
C -7.867100 -14.372800 -17.067600
N -7.829100 -17.931700 -17.614700
N -7.570400 -14.794700 -19.411500
H -7.528900 -16.040200 -15.270800
O -7.488800 -18.744700 -16.770200
O -7.272500 -17.735100 -18.689000
H -7.061400 -14.698000 -16.895600
O -6.616200 -14.037000 -19.252800
O -13.430700 -8.853200 -13.378600
O -13.224100 -10.504600 -14.782500
N -12.761300 -9.642800 -14.049000
H -12.383400 -8.043500 -10.363300
H -12.257900 -7.029700 -11.485300
C -11.809100 -7.587600 -10.958200
N -11.422200 -9.572700 -13.906900
H -11.419200 -6.828800 -10.958200
H -11.403300 -7.654500 -13.390800
N -11.036000 -8.529100 -11.739500
C -10.896700 -8.451500 -13.182200
H -10.833500 -11.347300 -14.487300
C -10.616300 -10.489800 -14.682700
H -10.599700 -10.275100 -15.556100
N -10.159400 -9.302700 -11.081400
H -10.107000 -8.403700 -13.449700
O -10.078400 -9.177300 -9.866100
H -9.752700 -10.373900 -14.359700
O -9.527800 -10.131600 -11.730600
