28
Fragment
O -10.981400 -17.843500 -14.041200
H -10.536100 -17.182500 -16.398400
O -10.325100 -14.145400 -14.605000
O -10.108700 -13.135800 -16.523800
H -10.068600 -15.840400 -18.023200
N -10.027200 -17.085800 -13.882500
N -9.768500 -13.948800 -15.679300
C -9.730500 -17.507700 -16.226400
H -9.720000 -18.469500 -16.078800
O -9.676200 -16.582100 -12.831500
C -9.275300 -16.119900 -18.308400
H -9.260900 -16.515200 -19.155100
N -9.241000 -16.875400 -14.998900
N -8.903900 -17.134700 -17.334000
N -8.693700 -14.745800 -15.960000
N -8.356600 -15.005100 -18.295100
H -8.336700 -15.365400 -14.138900
C -8.322300 -15.760700 -14.985600
O -7.921400 -15.298400 -20.462500
H -7.877600 -13.411100 -17.215200
C -7.867100 -14.372800 -17.067600
N -7.829100 -17.931700 -17.614700
N -7.570400 -14.794700 -19.411500
H -7.528900 -16.040200 -15.270800
O -7.488800 -18.744700 -16.770200
O -7.272500 -17.735100 -18.689000
H -7.061400 -14.698000 -16.895600
O -6.616200 -14.037000 -19.252800
28
Fragment
O -13.914300 -23.157000 -13.703800
H -13.469100 -22.496000 -11.346600
O -13.258000 -19.458800 -13.140000
O -13.041700 -18.449300 -11.221200
H -13.001600 -21.153800 -9.721800
N -12.960100 -22.399300 -13.862500
N -12.701400 -19.262200 -12.065700
C -12.663400 -22.821200 -11.518600
H -12.652900 -23.782900 -11.666200
O -12.609200 -21.895600 -14.913500
C -12.208200 -21.433300 -9.436600
H -12.193800 -21.828600 -8.589900
N -12.174000 -22.188900 -12.746100
N -11.836800 -22.448100 -10.411000
N -11.626600 -20.059200 -11.785000
N -11.289500 -20.318500 -9.449900
H -11.269700 -20.678800 -13.606100
C -11.255200 -21.074100 -12.759400
O -10.854300 -20.611800 -7.282500
H -10.810500 -18.724500 -10.529800
C -10.800000 -19.686200 -10.677400
N -10.762000 -23.245200 -10.130300
N -10.503400 -20.108100 -8.333500
H -10.461900 -21.353600 -12.474200
O -10.421800 -24.058100 -10.974800
O -10.205400 -23.048600 -9.056000
H -9.994400 -20.011400 -10.849400
O -9.549100 -19.350400 -8.492200
56
Fragment
O -10.981400 -17.843500 -14.041200
H -10.536100 -17.182500 -16.398400
O -10.325100 -14.145400 -14.605000
O -10.108700 -13.135800 -16.523800
H -10.068600 -15.840400 -18.023200
N -10.027200 -17.085800 -13.882500
N -9.768500 -13.948800 -15.679300
C -9.730500 -17.507700 -16.226400
H -9.720000 -18.469500 -16.078800
O -9.676200 -16.582100 -12.831500
C -9.275300 -16.119900 -18.308400
H -9.260900 -16.515200 -19.155100
N -9.241000 -16.875400 -14.998900
N -8.903900 -17.134700 -17.334000
N -8.693700 -14.745800 -15.960000
N -8.356600 -15.005100 -18.295100
H -8.336700 -15.365400 -14.138900
C -8.322300 -15.760700 -14.985600
O -7.921400 -15.298400 -20.462500
H -7.877600 -13.411100 -17.215200
C -7.867100 -14.372800 -17.067600
N -7.829100 -17.931700 -17.614700
N -7.570400 -14.794700 -19.411500
H -7.528900 -16.040200 -15.270800
O -7.488800 -18.744700 -16.770200
O -7.272500 -17.735100 -18.689000
H -7.061400 -14.698000 -16.895600
O -6.616200 -14.037000 -19.252800
O -13.914300 -23.157000 -13.703800
H -13.469100 -22.496000 -11.346600
O -13.258000 -19.458800 -13.140000
O -13.041700 -18.449300 -11.221200
H -13.001600 -21.153800 -9.721800
N -12.960100 -22.399300 -13.862500
N -12.701400 -19.262200 -12.065700
C -12.663400 -22.821200 -11.518600
H -12.652900 -23.782900 -11.666200
O -12.609200 -21.895600 -14.913500
C -12.208200 -21.433300 -9.436600
H -12.193800 -21.828600 -8.589900
N -12.174000 -22.188900 -12.746100
N -11.836800 -22.448100 -10.411000
N -11.626600 -20.059200 -11.785000
N -11.289500 -20.318500 -9.449900
H -11.269700 -20.678800 -13.606100
C -11.255200 -21.074100 -12.759400
O -10.854300 -20.611800 -7.282500
H -10.810500 -18.724500 -10.529800
C -10.800000 -19.686200 -10.677400
N -10.762000 -23.245200 -10.130300
N -10.503400 -20.108100 -8.333500
H -10.461900 -21.353600 -12.474200
O -10.421800 -24.058100 -10.974800
O -10.205400 -23.048600 -9.056000
H -9.994400 -20.011400 -10.849400
O -9.549100 -19.350400 -8.492200
