28
Fragment
O -10.981400 -17.843500 -14.041200
H -10.536100 -17.182500 -16.398400
O -10.325100 -14.145400 -14.605000
O -10.108700 -13.135800 -16.523800
H -10.068600 -15.840400 -18.023200
N -10.027200 -17.085800 -13.882500
N -9.768500 -13.948800 -15.679300
C -9.730500 -17.507700 -16.226400
H -9.720000 -18.469500 -16.078800
O -9.676200 -16.582100 -12.831500
C -9.275300 -16.119900 -18.308400
H -9.260900 -16.515200 -19.155100
N -9.241000 -16.875400 -14.998900
N -8.903900 -17.134700 -17.334000
N -8.693700 -14.745800 -15.960000
N -8.356600 -15.005100 -18.295100
H -8.336700 -15.365400 -14.138900
C -8.322300 -15.760700 -14.985600
O -7.921400 -15.298400 -20.462500
H -7.877600 -13.411100 -17.215200
C -7.867100 -14.372800 -17.067600
N -7.829100 -17.931700 -17.614700
N -7.570400 -14.794700 -19.411500
H -7.528900 -16.040200 -15.270800
O -7.488800 -18.744700 -16.770200
O -7.272500 -17.735100 -18.689000
H -7.061400 -14.698000 -16.895600
O -6.616200 -14.037000 -19.252800
19
Fragment
O -12.923900 -11.122100 -10.465400
H -12.699000 -10.879800 -7.836300
O -12.373300 -12.076300 -12.329900
H -12.344700 -12.850000 -8.746300
N -12.292300 -11.951000 -11.114600
H -11.852000 -10.978600 -6.639900
C -11.835400 -10.763900 -7.513300
H -11.618200 -9.906300 -7.708700
C -11.555100 -12.802200 -9.013800
N -11.415800 -12.724600 -10.456500
H -11.048400 -13.599200 -8.805200
H -11.032500 -14.424900 -11.237800
N -11.029500 -11.681000 -8.289100
C -10.642700 -13.666100 -11.237800
H -10.193800 -14.224000 -10.710700
H -10.068300 -13.210200 -11.832700
N -9.690400 -11.610900 -8.147000
O -9.227600 -10.749100 -7.413500
O -9.021000 -12.400500 -8.817400
47
Fragment
O -10.981400 -17.843500 -14.041200
H -10.536100 -17.182500 -16.398400
O -10.325100 -14.145400 -14.605000
O -10.108700 -13.135800 -16.523800
H -10.068600 -15.840400 -18.023200
N -10.027200 -17.085800 -13.882500
N -9.768500 -13.948800 -15.679300
C -9.730500 -17.507700 -16.226400
H -9.720000 -18.469500 -16.078800
O -9.676200 -16.582100 -12.831500
C -9.275300 -16.119900 -18.308400
H -9.260900 -16.515200 -19.155100
N -9.241000 -16.875400 -14.998900
N -8.903900 -17.134700 -17.334000
N -8.693700 -14.745800 -15.960000
N -8.356600 -15.005100 -18.295100
H -8.336700 -15.365400 -14.138900
C -8.322300 -15.760700 -14.985600
O -7.921400 -15.298400 -20.462500
H -7.877600 -13.411100 -17.215200
C -7.867100 -14.372800 -17.067600
N -7.829100 -17.931700 -17.614700
N -7.570400 -14.794700 -19.411500
H -7.528900 -16.040200 -15.270800
O -7.488800 -18.744700 -16.770200
O -7.272500 -17.735100 -18.689000
H -7.061400 -14.698000 -16.895600
O -6.616200 -14.037000 -19.252800
O -12.923900 -11.122100 -10.465400
H -12.699000 -10.879800 -7.836300
O -12.373300 -12.076300 -12.329900
H -12.344700 -12.850000 -8.746300
N -12.292300 -11.951000 -11.114600
H -11.852000 -10.978600 -6.639900
C -11.835400 -10.763900 -7.513300
H -11.618200 -9.906300 -7.708700
C -11.555100 -12.802200 -9.013800
N -11.415800 -12.724600 -10.456500
H -11.048400 -13.599200 -8.805200
H -11.032500 -14.424900 -11.237800
N -11.029500 -11.681000 -8.289100
C -10.642700 -13.666100 -11.237800
H -10.193800 -14.224000 -10.710700
H -10.068300 -13.210200 -11.832700
N -9.690400 -11.610900 -8.147000
O -9.227600 -10.749100 -7.413500
O -9.021000 -12.400500 -8.817400
