45
Fragment
H -13.057100 -22.508200 -29.460300
H -12.721300 -23.673300 -27.528700
H -12.482300 -23.841200 -30.044200
C -12.295800 -23.092000 -29.475000
C -11.942800 -23.522500 -28.068600
H -11.680200 -21.735900 -27.103900
O -11.436200 -15.357000 -30.768300
H -11.415400 -24.324000 -28.091700
H -11.373800 -15.462800 -28.031000
H -11.259000 -21.647100 -30.567400
C -11.109100 -22.385400 -27.518200
O -11.096900 -18.554300 -27.740100
C -11.048100 -22.362300 -29.964700
H -10.980600 -23.002000 -32.344200
N -10.806300 -15.872600 -28.596000
C -10.736000 -15.871400 -29.937500
N -10.484100 -21.822300 -28.717400
H -10.455400 -22.674800 -26.879900
N -10.336300 -23.473900 -31.929800
C -10.073000 -23.291400 -30.638600
C -9.959600 -18.120200 -27.876100
H -9.824000 -24.043100 -32.400700
H -9.664700 -20.477200 -26.758500
C -9.654000 -16.744600 -28.413900
H -9.645400 -17.624000 -30.339300
C -9.535600 -20.891900 -28.782300
C -9.508300 -16.758000 -29.952200
O -9.166800 -23.853300 -30.052600
O -9.070600 -20.512400 -29.845400
C -9.027600 -20.297200 -27.453400
H -8.912100 -16.328700 -27.968200
N -8.881900 -18.865700 -27.629100
H -8.724800 -16.329900 -30.303700
H -8.073300 -18.477700 -27.568500
N -8.026000 -20.906500 -24.586200
H -7.774800 -20.420000 -22.644100
H -7.731100 -21.869700 -27.064100
C -7.681600 -20.912600 -27.030600
C -7.467700 -20.308100 -23.548200
C -7.289800 -20.461300 -25.676600
H -7.007800 -20.626800 -27.652200
N -6.460400 -19.521200 -23.901900
C -6.329800 -19.618500 -25.270600
H -5.945200 -19.015300 -23.366100
H -5.700500 -19.179500 -25.846100
45
Fragment
H -16.644600 -7.896800 -33.323700
H -16.308800 -6.731700 -35.255300
H -16.069800 -6.563800 -32.739800
C -15.883300 -7.313000 -33.309000
C -15.530300 -6.882500 -34.715400
H -15.267700 -8.669100 -35.680100
O -15.023700 -15.048000 -32.015700
H -15.002900 -6.081000 -34.692300
H -14.961300 -14.942200 -34.753000
H -14.846500 -8.757900 -32.216600
C -14.696600 -8.019600 -35.265800
O -14.684400 -11.850700 -35.043900
C -14.635600 -8.042700 -32.819300
H -14.568100 -7.403000 -30.439800
N -14.393800 -14.532400 -34.188000
C -14.323500 -14.533600 -32.846500
N -14.071600 -8.582700 -34.066600
H -14.042900 -7.730200 -35.904100
N -13.923800 -6.931100 -30.854200
C -13.660500 -7.113600 -32.145400
C -13.547100 -12.284800 -34.907900
H -13.411500 -6.361900 -30.383300
H -13.252200 -9.927800 -36.025500
C -13.241500 -13.660400 -34.370100
H -13.232900 -12.781000 -32.444700
C -13.123100 -9.513100 -34.001700
C -13.095800 -13.647000 -32.831800
O -12.754300 -6.551700 -32.731400
O -12.658100 -9.892600 -32.938600
C -12.615100 -10.107800 -35.330600
H -12.499600 -14.076300 -34.815800
N -12.469400 -11.539300 -35.154900
H -12.312300 -14.075100 -32.480300
H -11.660800 -11.927300 -35.215500
N -11.613500 -9.498500 -38.197800
H -11.362300 -9.985000 -40.139900
H -11.318600 -8.535300 -35.719900
C -11.269100 -9.492400 -35.753400
C -11.055200 -10.096900 -39.235800
C -10.877300 -9.943700 -37.107400
H -10.595300 -9.778200 -35.131800
N -10.047900 -10.883800 -38.882100
C -9.917300 -10.786500 -37.513400
H -9.532700 -11.389700 -39.417900
H -9.288000 -11.225500 -36.937900
90
Fragment
H -13.057100 -22.508200 -29.460300
H -12.721300 -23.673300 -27.528700
H -12.482300 -23.841200 -30.044200
C -12.295800 -23.092000 -29.475000
C -11.942800 -23.522500 -28.068600
H -11.680200 -21.735900 -27.103900
O -11.436200 -15.357000 -30.768300
H -11.415400 -24.324000 -28.091700
H -11.373800 -15.462800 -28.031000
H -11.259000 -21.647100 -30.567400
C -11.109100 -22.385400 -27.518200
O -11.096900 -18.554300 -27.740100
C -11.048100 -22.362300 -29.964700
H -10.980600 -23.002000 -32.344200
N -10.806300 -15.872600 -28.596000
C -10.736000 -15.871400 -29.937500
N -10.484100 -21.822300 -28.717400
H -10.455400 -22.674800 -26.879900
N -10.336300 -23.473900 -31.929800
C -10.073000 -23.291400 -30.638600
C -9.959600 -18.120200 -27.876100
H -9.824000 -24.043100 -32.400700
H -9.664700 -20.477200 -26.758500
C -9.654000 -16.744600 -28.413900
H -9.645400 -17.624000 -30.339300
C -9.535600 -20.891900 -28.782300
C -9.508300 -16.758000 -29.952200
O -9.166800 -23.853300 -30.052600
O -9.070600 -20.512400 -29.845400
C -9.027600 -20.297200 -27.453400
H -8.912100 -16.328700 -27.968200
N -8.881900 -18.865700 -27.629100
H -8.724800 -16.329900 -30.303700
H -8.073300 -18.477700 -27.568500
N -8.026000 -20.906500 -24.586200
H -7.774800 -20.420000 -22.644100
H -7.731100 -21.869700 -27.064100
C -7.681600 -20.912600 -27.030600
C -7.467700 -20.308100 -23.548200
C -7.289800 -20.461300 -25.676600
H -7.007800 -20.626800 -27.652200
N -6.460400 -19.521200 -23.901900
C -6.329800 -19.618500 -25.270600
H -5.945200 -19.015300 -23.366100
H -5.700500 -19.179500 -25.846100
H -16.644600 -7.896800 -33.323700
H -16.308800 -6.731700 -35.255300
H -16.069800 -6.563800 -32.739800
C -15.883300 -7.313000 -33.309000
C -15.530300 -6.882500 -34.715400
H -15.267700 -8.669100 -35.680100
O -15.023700 -15.048000 -32.015700
H -15.002900 -6.081000 -34.692300
H -14.961300 -14.942200 -34.753000
H -14.846500 -8.757900 -32.216600
C -14.696600 -8.019600 -35.265800
O -14.684400 -11.850700 -35.043900
C -14.635600 -8.042700 -32.819300
H -14.568100 -7.403000 -30.439800
N -14.393800 -14.532400 -34.188000
C -14.323500 -14.533600 -32.846500
N -14.071600 -8.582700 -34.066600
H -14.042900 -7.730200 -35.904100
N -13.923800 -6.931100 -30.854200
C -13.660500 -7.113600 -32.145400
C -13.547100 -12.284800 -34.907900
H -13.411500 -6.361900 -30.383300
H -13.252200 -9.927800 -36.025500
C -13.241500 -13.660400 -34.370100
H -13.232900 -12.781000 -32.444700
C -13.123100 -9.513100 -34.001700
C -13.095800 -13.647000 -32.831800
O -12.754300 -6.551700 -32.731400
O -12.658100 -9.892600 -32.938600
C -12.615100 -10.107800 -35.330600
H -12.499600 -14.076300 -34.815800
N -12.469400 -11.539300 -35.154900
H -12.312300 -14.075100 -32.480300
H -11.660800 -11.927300 -35.215500
N -11.613500 -9.498500 -38.197800
H -11.362300 -9.985000 -40.139900
H -11.318600 -8.535300 -35.719900
C -11.269100 -9.492400 -35.753400
C -11.055200 -10.096900 -39.235800
C -10.877300 -9.943700 -37.107400
H -10.595300 -9.778200 -35.131800
N -10.047900 -10.883800 -38.882100
C -9.917300 -10.786500 -37.513400
H -9.532700 -11.389700 -39.417900
H -9.288000 -11.225500 -36.937900
