27
Fragment
H -22.740300 -23.041000 -24.076600
H -22.197700 -22.507200 -25.447100
H -22.106500 -21.609900 -24.165800
C -22.060800 -22.510100 -24.496500
H -21.149300 -25.030500 -24.214600
N -20.747600 -23.073200 -24.196800
H -20.600200 -24.502600 -25.585200
C -20.510000 -24.447900 -24.630400
N -20.155000 -21.102500 -23.179400
C -19.829500 -22.351000 -23.590700
H -19.631500 -18.602300 -22.296200
H -19.623100 -24.714900 -24.377200
C -19.141400 -20.442600 -22.706800
N -19.079700 -19.193200 -22.254400
N -18.596700 -22.938100 -23.427400
N -17.878800 -20.934200 -22.525900
N -17.828500 -18.854400 -21.805000
C -17.640700 -22.264900 -22.899700
O -17.296600 -24.641700 -21.652200
C -17.120700 -19.916600 -21.979800
C -16.343000 -22.842600 -22.633900
N -16.259700 -24.116700 -22.077200
H -16.253000 -19.997000 -21.689400
O -15.444400 -21.233700 -23.886600
N -15.215500 -22.211700 -23.137900
O -15.189600 -24.697000 -22.031600
O -14.075400 -22.567900 -22.876200
3
Fragment
H -17.221800 -27.790800 -22.750700
H -16.865700 -26.672400 -22.103500
O -16.603400 -27.536900 -22.262700
30
Fragment
H -22.740300 -23.041000 -24.076600
H -22.197700 -22.507200 -25.447100
H -22.106500 -21.609900 -24.165800
C -22.060800 -22.510100 -24.496500
H -21.149300 -25.030500 -24.214600
N -20.747600 -23.073200 -24.196800
H -20.600200 -24.502600 -25.585200
C -20.510000 -24.447900 -24.630400
N -20.155000 -21.102500 -23.179400
C -19.829500 -22.351000 -23.590700
H -19.631500 -18.602300 -22.296200
H -19.623100 -24.714900 -24.377200
C -19.141400 -20.442600 -22.706800
N -19.079700 -19.193200 -22.254400
N -18.596700 -22.938100 -23.427400
N -17.878800 -20.934200 -22.525900
N -17.828500 -18.854400 -21.805000
C -17.640700 -22.264900 -22.899700
O -17.296600 -24.641700 -21.652200
C -17.120700 -19.916600 -21.979800
C -16.343000 -22.842600 -22.633900
N -16.259700 -24.116700 -22.077200
H -16.253000 -19.997000 -21.689400
O -15.444400 -21.233700 -23.886600
N -15.215500 -22.211700 -23.137900
O -15.189600 -24.697000 -22.031600
O -14.075400 -22.567900 -22.876200
H -17.221800 -27.790800 -22.750700
H -16.865700 -26.672400 -22.103500
O -16.603400 -27.536900 -22.262700
