27
Fragment
H -22.740300 -23.041000 -24.076600
H -22.197700 -22.507200 -25.447100
H -22.106500 -21.609900 -24.165800
C -22.060800 -22.510100 -24.496500
H -21.149300 -25.030500 -24.214600
N -20.747600 -23.073200 -24.196800
H -20.600200 -24.502600 -25.585200
C -20.510000 -24.447900 -24.630400
N -20.155000 -21.102500 -23.179400
C -19.829500 -22.351000 -23.590700
H -19.631500 -18.602300 -22.296200
H -19.623100 -24.714900 -24.377200
C -19.141400 -20.442600 -22.706800
N -19.079700 -19.193200 -22.254400
N -18.596700 -22.938100 -23.427400
N -17.878800 -20.934200 -22.525900
N -17.828500 -18.854400 -21.805000
C -17.640700 -22.264900 -22.899700
O -17.296600 -24.641700 -21.652200
C -17.120700 -19.916600 -21.979800
C -16.343000 -22.842600 -22.633900
N -16.259700 -24.116700 -22.077200
H -16.253000 -19.997000 -21.689400
O -15.444400 -21.233700 -23.886600
N -15.215500 -22.211700 -23.137900
O -15.189600 -24.697000 -22.031600
O -14.075400 -22.567900 -22.876200
27
Fragment
H -33.522600 -23.041000 -24.076600
H -32.980000 -22.507200 -25.447100
H -32.888800 -21.609900 -24.165800
C -32.843100 -22.510100 -24.496500
H -31.931600 -25.030500 -24.214600
N -31.529900 -23.073200 -24.196800
H -31.382500 -24.502600 -25.585200
C -31.292300 -24.447900 -24.630400
N -30.937300 -21.102500 -23.179400
C -30.611800 -22.351000 -23.590700
H -30.413800 -18.602300 -22.296200
H -30.405400 -24.714900 -24.377200
C -29.923700 -20.442600 -22.706800
N -29.862000 -19.193200 -22.254400
N -29.379000 -22.938100 -23.427400
N -28.661100 -20.934200 -22.525900
N -28.610800 -18.854400 -21.805000
C -28.423000 -22.264900 -22.899700
O -28.078900 -24.641700 -21.652200
C -27.903000 -19.916600 -21.979800
C -27.125300 -22.842600 -22.633900
N -27.042000 -24.116700 -22.077200
H -27.035300 -19.997000 -21.689400
O -26.226700 -21.233700 -23.886600
N -25.997800 -22.211700 -23.137900
O -25.971900 -24.697000 -22.031600
O -24.857700 -22.567900 -22.876200
54
Fragment
H -22.740300 -23.041000 -24.076600
H -22.197700 -22.507200 -25.447100
H -22.106500 -21.609900 -24.165800
C -22.060800 -22.510100 -24.496500
H -21.149300 -25.030500 -24.214600
N -20.747600 -23.073200 -24.196800
H -20.600200 -24.502600 -25.585200
C -20.510000 -24.447900 -24.630400
N -20.155000 -21.102500 -23.179400
C -19.829500 -22.351000 -23.590700
H -19.631500 -18.602300 -22.296200
H -19.623100 -24.714900 -24.377200
C -19.141400 -20.442600 -22.706800
N -19.079700 -19.193200 -22.254400
N -18.596700 -22.938100 -23.427400
N -17.878800 -20.934200 -22.525900
N -17.828500 -18.854400 -21.805000
C -17.640700 -22.264900 -22.899700
O -17.296600 -24.641700 -21.652200
C -17.120700 -19.916600 -21.979800
C -16.343000 -22.842600 -22.633900
N -16.259700 -24.116700 -22.077200
H -16.253000 -19.997000 -21.689400
O -15.444400 -21.233700 -23.886600
N -15.215500 -22.211700 -23.137900
O -15.189600 -24.697000 -22.031600
O -14.075400 -22.567900 -22.876200
H -33.522600 -23.041000 -24.076600
H -32.980000 -22.507200 -25.447100
H -32.888800 -21.609900 -24.165800
C -32.843100 -22.510100 -24.496500
H -31.931600 -25.030500 -24.214600
N -31.529900 -23.073200 -24.196800
H -31.382500 -24.502600 -25.585200
C -31.292300 -24.447900 -24.630400
N -30.937300 -21.102500 -23.179400
C -30.611800 -22.351000 -23.590700
H -30.413800 -18.602300 -22.296200
H -30.405400 -24.714900 -24.377200
C -29.923700 -20.442600 -22.706800
N -29.862000 -19.193200 -22.254400
N -29.379000 -22.938100 -23.427400
N -28.661100 -20.934200 -22.525900
N -28.610800 -18.854400 -21.805000
C -28.423000 -22.264900 -22.899700
O -28.078900 -24.641700 -21.652200
C -27.903000 -19.916600 -21.979800
C -27.125300 -22.842600 -22.633900
N -27.042000 -24.116700 -22.077200
H -27.035300 -19.997000 -21.689400
O -26.226700 -21.233700 -23.886600
N -25.997800 -22.211700 -23.137900
O -25.971900 -24.697000 -22.031600
O -24.857700 -22.567900 -22.876200
