27
Fragment
H -22.740300 -23.041000 -24.076600
H -22.197700 -22.507200 -25.447100
H -22.106500 -21.609900 -24.165800
C -22.060800 -22.510100 -24.496500
H -21.149300 -25.030500 -24.214600
N -20.747600 -23.073200 -24.196800
H -20.600200 -24.502600 -25.585200
C -20.510000 -24.447900 -24.630400
N -20.155000 -21.102500 -23.179400
C -19.829500 -22.351000 -23.590700
H -19.631500 -18.602300 -22.296200
H -19.623100 -24.714900 -24.377200
C -19.141400 -20.442600 -22.706800
N -19.079700 -19.193200 -22.254400
N -18.596700 -22.938100 -23.427400
N -17.878800 -20.934200 -22.525900
N -17.828500 -18.854400 -21.805000
C -17.640700 -22.264900 -22.899700
O -17.296600 -24.641700 -21.652200
C -17.120700 -19.916600 -21.979800
C -16.343000 -22.842600 -22.633900
N -16.259700 -24.116700 -22.077200
H -16.253000 -19.997000 -21.689400
O -15.444400 -21.233700 -23.886600
N -15.215500 -22.211700 -23.137900
O -15.189600 -24.697000 -22.031600
O -14.075400 -22.567900 -22.876200
27
Fragment
O -20.586700 -22.591000 -27.475700
O -20.065100 -20.319500 -26.313000
N -19.365700 -22.779300 -27.484600
N -18.931200 -20.788600 -26.168700
O -18.858200 -23.732300 -28.121400
C -18.496500 -21.944400 -26.809000
O -18.083900 -20.242800 -25.432300
C -17.099000 -22.311900 -26.693900
H -17.036000 -19.690200 -27.857300
H -16.928400 -25.543900 -25.511800
N -16.720100 -23.455100 -26.243400
C -16.192000 -20.130400 -27.672500
N -16.143700 -21.393900 -27.105200
C -16.057400 -25.942500 -25.457200
H -16.011300 -26.694200 -26.052500
H -15.895800 -26.236100 -24.556900
C -15.365200 -23.738400 -26.238300
N -15.045800 -24.957200 -25.837500
N -15.019600 -19.692100 -27.897800
C -14.828200 -21.739900 -27.007000
N -14.381700 -22.883200 -26.565400
N -14.165500 -20.686000 -27.470600
C -13.651600 -25.369200 -25.812400
H -13.523900 -26.103800 -26.416400
H -13.414600 -25.641300 -24.923600
H -13.337700 -20.549700 -27.597000
H -13.095600 -24.633400 -26.081300
54
Fragment
H -22.740300 -23.041000 -24.076600
H -22.197700 -22.507200 -25.447100
H -22.106500 -21.609900 -24.165800
C -22.060800 -22.510100 -24.496500
H -21.149300 -25.030500 -24.214600
N -20.747600 -23.073200 -24.196800
H -20.600200 -24.502600 -25.585200
C -20.510000 -24.447900 -24.630400
N -20.155000 -21.102500 -23.179400
C -19.829500 -22.351000 -23.590700
H -19.631500 -18.602300 -22.296200
H -19.623100 -24.714900 -24.377200
C -19.141400 -20.442600 -22.706800
N -19.079700 -19.193200 -22.254400
N -18.596700 -22.938100 -23.427400
N -17.878800 -20.934200 -22.525900
N -17.828500 -18.854400 -21.805000
C -17.640700 -22.264900 -22.899700
O -17.296600 -24.641700 -21.652200
C -17.120700 -19.916600 -21.979800
C -16.343000 -22.842600 -22.633900
N -16.259700 -24.116700 -22.077200
H -16.253000 -19.997000 -21.689400
O -15.444400 -21.233700 -23.886600
N -15.215500 -22.211700 -23.137900
O -15.189600 -24.697000 -22.031600
O -14.075400 -22.567900 -22.876200
O -20.586700 -22.591000 -27.475700
O -20.065100 -20.319500 -26.313000
N -19.365700 -22.779300 -27.484600
N -18.931200 -20.788600 -26.168700
O -18.858200 -23.732300 -28.121400
C -18.496500 -21.944400 -26.809000
O -18.083900 -20.242800 -25.432300
C -17.099000 -22.311900 -26.693900
H -17.036000 -19.690200 -27.857300
H -16.928400 -25.543900 -25.511800
N -16.720100 -23.455100 -26.243400
C -16.192000 -20.130400 -27.672500
N -16.143700 -21.393900 -27.105200
C -16.057400 -25.942500 -25.457200
H -16.011300 -26.694200 -26.052500
H -15.895800 -26.236100 -24.556900
C -15.365200 -23.738400 -26.238300
N -15.045800 -24.957200 -25.837500
N -15.019600 -19.692100 -27.897800
C -14.828200 -21.739900 -27.007000
N -14.381700 -22.883200 -26.565400
N -14.165500 -20.686000 -27.470600
C -13.651600 -25.369200 -25.812400
H -13.523900 -26.103800 -26.416400
H -13.414600 -25.641300 -24.923600
H -13.337700 -20.549700 -27.597000
H -13.095600 -24.633400 -26.081300
