27
Fragment
H -22.740300 -23.041000 -24.076600
H -22.197700 -22.507200 -25.447100
H -22.106500 -21.609900 -24.165800
C -22.060800 -22.510100 -24.496500
H -21.149300 -25.030500 -24.214600
N -20.747600 -23.073200 -24.196800
H -20.600200 -24.502600 -25.585200
C -20.510000 -24.447900 -24.630400
N -20.155000 -21.102500 -23.179400
C -19.829500 -22.351000 -23.590700
H -19.631500 -18.602300 -22.296200
H -19.623100 -24.714900 -24.377200
C -19.141400 -20.442600 -22.706800
N -19.079700 -19.193200 -22.254400
N -18.596700 -22.938100 -23.427400
N -17.878800 -20.934200 -22.525900
N -17.828500 -18.854400 -21.805000
C -17.640700 -22.264900 -22.899700
O -17.296600 -24.641700 -21.652200
C -17.120700 -19.916600 -21.979800
C -16.343000 -22.842600 -22.633900
N -16.259700 -24.116700 -22.077200
H -16.253000 -19.997000 -21.689400
O -15.444400 -21.233700 -23.886600
N -15.215500 -22.211700 -23.137900
O -15.189600 -24.697000 -22.031600
O -14.075400 -22.567900 -22.876200
27
Fragment
H -15.082200 -17.361800 -24.252000
H -14.840100 -13.278000 -22.736300
H -14.763100 -18.369600 -25.409700
H -14.653900 -18.832100 -23.917000
C -14.526200 -18.097500 -24.521000
N -14.012300 -13.414300 -22.862700
N -13.796100 -15.611500 -23.768000
C -13.349600 -14.468300 -23.326300
N -13.158200 -12.420400 -22.435600
N -13.132000 -17.685500 -24.495800
C -12.812600 -16.466800 -24.095000
H -12.282000 -18.964500 -25.776400
H -12.166500 -19.422600 -24.280800
C -12.120400 -18.670800 -24.876200
N -12.034100 -14.122300 -23.228100
C -11.985800 -12.858700 -22.660800
N -11.457700 -16.183500 -24.090000
H -11.249400 -18.272200 -24.821500
H -11.141800 -12.418500 -22.476000
C -11.078800 -15.040200 -23.639400
O -10.093800 -12.971200 -24.901000
C -9.681300 -14.672700 -23.524400
O -9.319500 -16.460700 -22.212000
N -9.246500 -13.517000 -24.164600
N -8.812100 -15.507700 -22.848700
O -8.112700 -13.047800 -24.020400
O -7.591100 -15.319300 -22.857700
54
Fragment
H -22.740300 -23.041000 -24.076600
H -22.197700 -22.507200 -25.447100
H -22.106500 -21.609900 -24.165800
C -22.060800 -22.510100 -24.496500
H -21.149300 -25.030500 -24.214600
N -20.747600 -23.073200 -24.196800
H -20.600200 -24.502600 -25.585200
C -20.510000 -24.447900 -24.630400
N -20.155000 -21.102500 -23.179400
C -19.829500 -22.351000 -23.590700
H -19.631500 -18.602300 -22.296200
H -19.623100 -24.714900 -24.377200
C -19.141400 -20.442600 -22.706800
N -19.079700 -19.193200 -22.254400
N -18.596700 -22.938100 -23.427400
N -17.878800 -20.934200 -22.525900
N -17.828500 -18.854400 -21.805000
C -17.640700 -22.264900 -22.899700
O -17.296600 -24.641700 -21.652200
C -17.120700 -19.916600 -21.979800
C -16.343000 -22.842600 -22.633900
N -16.259700 -24.116700 -22.077200
H -16.253000 -19.997000 -21.689400
O -15.444400 -21.233700 -23.886600
N -15.215500 -22.211700 -23.137900
O -15.189600 -24.697000 -22.031600
O -14.075400 -22.567900 -22.876200
H -15.082200 -17.361800 -24.252000
H -14.840100 -13.278000 -22.736300
H -14.763100 -18.369600 -25.409700
H -14.653900 -18.832100 -23.917000
C -14.526200 -18.097500 -24.521000
N -14.012300 -13.414300 -22.862700
N -13.796100 -15.611500 -23.768000
C -13.349600 -14.468300 -23.326300
N -13.158200 -12.420400 -22.435600
N -13.132000 -17.685500 -24.495800
C -12.812600 -16.466800 -24.095000
H -12.282000 -18.964500 -25.776400
H -12.166500 -19.422600 -24.280800
C -12.120400 -18.670800 -24.876200
N -12.034100 -14.122300 -23.228100
C -11.985800 -12.858700 -22.660800
N -11.457700 -16.183500 -24.090000
H -11.249400 -18.272200 -24.821500
H -11.141800 -12.418500 -22.476000
C -11.078800 -15.040200 -23.639400
O -10.093800 -12.971200 -24.901000
C -9.681300 -14.672700 -23.524400
O -9.319500 -16.460700 -22.212000
N -9.246500 -13.517000 -24.164600
N -8.812100 -15.507700 -22.848700
O -8.112700 -13.047800 -24.020400
O -7.591100 -15.319300 -22.857700
