27
Fragment
H -22.740300 -23.041000 -24.076600
H -22.197700 -22.507200 -25.447100
H -22.106500 -21.609900 -24.165800
C -22.060800 -22.510100 -24.496500
H -21.149300 -25.030500 -24.214600
N -20.747600 -23.073200 -24.196800
H -20.600200 -24.502600 -25.585200
C -20.510000 -24.447900 -24.630400
N -20.155000 -21.102500 -23.179400
C -19.829500 -22.351000 -23.590700
H -19.631500 -18.602300 -22.296200
H -19.623100 -24.714900 -24.377200
C -19.141400 -20.442600 -22.706800
N -19.079700 -19.193200 -22.254400
N -18.596700 -22.938100 -23.427400
N -17.878800 -20.934200 -22.525900
N -17.828500 -18.854400 -21.805000
C -17.640700 -22.264900 -22.899700
O -17.296600 -24.641700 -21.652200
C -17.120700 -19.916600 -21.979800
C -16.343000 -22.842600 -22.633900
N -16.259700 -24.116700 -22.077200
H -16.253000 -19.997000 -21.689400
O -15.444400 -21.233700 -23.886600
N -15.215500 -22.211700 -23.137900
O -15.189600 -24.697000 -22.031600
O -14.075400 -22.567900 -22.876200
27
Fragment
O -21.182200 -13.767300 -20.285200
O -20.660700 -16.038800 -19.122500
N -19.961300 -13.578900 -20.294100
N -19.526800 -15.569600 -18.978300
O -19.453800 -12.625900 -20.930900
C -19.092100 -14.413900 -19.618500
O -18.679500 -16.115400 -18.241800
C -17.694600 -14.046400 -19.503400
H -17.631600 -16.668100 -20.666900
H -17.524000 -10.814400 -18.321300
N -17.315700 -12.903100 -19.052900
C -16.787600 -16.227900 -20.482100
N -16.739200 -14.964300 -19.914700
C -16.653000 -10.415800 -18.266700
H -16.606900 -9.664000 -18.862100
H -16.491400 -10.122100 -17.366400
C -15.960800 -12.619800 -19.047900
N -15.641400 -11.401100 -18.647100
N -15.615200 -16.666200 -20.707300
C -15.423700 -14.618300 -19.816500
N -14.977300 -13.475100 -19.374900
N -14.761000 -15.672300 -20.280200
C -14.247100 -10.989100 -18.621900
H -14.119500 -10.254500 -19.225900
H -14.010200 -10.717000 -17.733200
H -13.933300 -15.808600 -20.406600
H -13.691100 -11.724800 -18.890800
54
Fragment
H -22.740300 -23.041000 -24.076600
H -22.197700 -22.507200 -25.447100
H -22.106500 -21.609900 -24.165800
C -22.060800 -22.510100 -24.496500
H -21.149300 -25.030500 -24.214600
N -20.747600 -23.073200 -24.196800
H -20.600200 -24.502600 -25.585200
C -20.510000 -24.447900 -24.630400
N -20.155000 -21.102500 -23.179400
C -19.829500 -22.351000 -23.590700
H -19.631500 -18.602300 -22.296200
H -19.623100 -24.714900 -24.377200
C -19.141400 -20.442600 -22.706800
N -19.079700 -19.193200 -22.254400
N -18.596700 -22.938100 -23.427400
N -17.878800 -20.934200 -22.525900
N -17.828500 -18.854400 -21.805000
C -17.640700 -22.264900 -22.899700
O -17.296600 -24.641700 -21.652200
C -17.120700 -19.916600 -21.979800
C -16.343000 -22.842600 -22.633900
N -16.259700 -24.116700 -22.077200
H -16.253000 -19.997000 -21.689400
O -15.444400 -21.233700 -23.886600
N -15.215500 -22.211700 -23.137900
O -15.189600 -24.697000 -22.031600
O -14.075400 -22.567900 -22.876200
O -21.182200 -13.767300 -20.285200
O -20.660700 -16.038800 -19.122500
N -19.961300 -13.578900 -20.294100
N -19.526800 -15.569600 -18.978300
O -19.453800 -12.625900 -20.930900
C -19.092100 -14.413900 -19.618500
O -18.679500 -16.115400 -18.241800
C -17.694600 -14.046400 -19.503400
H -17.631600 -16.668100 -20.666900
H -17.524000 -10.814400 -18.321300
N -17.315700 -12.903100 -19.052900
C -16.787600 -16.227900 -20.482100
N -16.739200 -14.964300 -19.914700
C -16.653000 -10.415800 -18.266700
H -16.606900 -9.664000 -18.862100
H -16.491400 -10.122100 -17.366400
C -15.960800 -12.619800 -19.047900
N -15.641400 -11.401100 -18.647100
N -15.615200 -16.666200 -20.707300
C -15.423700 -14.618300 -19.816500
N -14.977300 -13.475100 -19.374900
N -14.761000 -15.672300 -20.280200
C -14.247100 -10.989100 -18.621900
H -14.119500 -10.254500 -19.225900
H -14.010200 -10.717000 -17.733200
H -13.933300 -15.808600 -20.406600
H -13.691100 -11.724800 -18.890800
