27
Fragment
H -22.740300 -23.041000 -24.076600
H -22.197700 -22.507200 -25.447100
H -22.106500 -21.609900 -24.165800
C -22.060800 -22.510100 -24.496500
H -21.149300 -25.030500 -24.214600
N -20.747600 -23.073200 -24.196800
H -20.600200 -24.502600 -25.585200
C -20.510000 -24.447900 -24.630400
N -20.155000 -21.102500 -23.179400
C -19.829500 -22.351000 -23.590700
H -19.631500 -18.602300 -22.296200
H -19.623100 -24.714900 -24.377200
C -19.141400 -20.442600 -22.706800
N -19.079700 -19.193200 -22.254400
N -18.596700 -22.938100 -23.427400
N -17.878800 -20.934200 -22.525900
N -17.828500 -18.854400 -21.805000
C -17.640700 -22.264900 -22.899700
O -17.296600 -24.641700 -21.652200
C -17.120700 -19.916600 -21.979800
C -16.343000 -22.842600 -22.633900
N -16.259700 -24.116700 -22.077200
H -16.253000 -19.997000 -21.689400
O -15.444400 -21.233700 -23.886600
N -15.215500 -22.211700 -23.137900
O -15.189600 -24.697000 -22.031600
O -14.075400 -22.567900 -22.876200
27
Fragment
H -25.864500 -31.905100 -24.252000
H -25.622400 -27.821300 -22.736300
H -25.545400 -32.912900 -25.409700
H -25.436200 -33.375400 -23.917000
C -25.308500 -32.640800 -24.521000
N -24.794600 -27.957600 -22.862700
N -24.578400 -30.154800 -23.768000
C -24.131900 -29.011600 -23.326300
N -23.940500 -26.963700 -22.435600
N -23.914300 -32.228800 -24.495800
C -23.594900 -31.010100 -24.095000
H -23.064300 -33.507800 -25.776400
H -22.948800 -33.965900 -24.280800
C -22.902700 -33.214100 -24.876200
N -22.816400 -28.665600 -23.228100
C -22.768100 -27.402000 -22.660800
N -22.240000 -30.726800 -24.090000
H -22.031700 -32.815500 -24.821500
H -21.924100 -26.961800 -22.476000
C -21.861100 -29.583500 -23.639400
O -20.876100 -27.514500 -24.901000
C -20.463600 -29.216000 -23.524400
O -20.101800 -31.004000 -22.212000
N -20.028800 -28.060300 -24.164600
N -19.594400 -30.051000 -22.848700
O -18.895000 -27.591100 -24.020400
O -18.373400 -29.862600 -22.857700
54
Fragment
H -22.740300 -23.041000 -24.076600
H -22.197700 -22.507200 -25.447100
H -22.106500 -21.609900 -24.165800
C -22.060800 -22.510100 -24.496500
H -21.149300 -25.030500 -24.214600
N -20.747600 -23.073200 -24.196800
H -20.600200 -24.502600 -25.585200
C -20.510000 -24.447900 -24.630400
N -20.155000 -21.102500 -23.179400
C -19.829500 -22.351000 -23.590700
H -19.631500 -18.602300 -22.296200
H -19.623100 -24.714900 -24.377200
C -19.141400 -20.442600 -22.706800
N -19.079700 -19.193200 -22.254400
N -18.596700 -22.938100 -23.427400
N -17.878800 -20.934200 -22.525900
N -17.828500 -18.854400 -21.805000
C -17.640700 -22.264900 -22.899700
O -17.296600 -24.641700 -21.652200
C -17.120700 -19.916600 -21.979800
C -16.343000 -22.842600 -22.633900
N -16.259700 -24.116700 -22.077200
H -16.253000 -19.997000 -21.689400
O -15.444400 -21.233700 -23.886600
N -15.215500 -22.211700 -23.137900
O -15.189600 -24.697000 -22.031600
O -14.075400 -22.567900 -22.876200
H -25.864500 -31.905100 -24.252000
H -25.622400 -27.821300 -22.736300
H -25.545400 -32.912900 -25.409700
H -25.436200 -33.375400 -23.917000
C -25.308500 -32.640800 -24.521000
N -24.794600 -27.957600 -22.862700
N -24.578400 -30.154800 -23.768000
C -24.131900 -29.011600 -23.326300
N -23.940500 -26.963700 -22.435600
N -23.914300 -32.228800 -24.495800
C -23.594900 -31.010100 -24.095000
H -23.064300 -33.507800 -25.776400
H -22.948800 -33.965900 -24.280800
C -22.902700 -33.214100 -24.876200
N -22.816400 -28.665600 -23.228100
C -22.768100 -27.402000 -22.660800
N -22.240000 -30.726800 -24.090000
H -22.031700 -32.815500 -24.821500
H -21.924100 -26.961800 -22.476000
C -21.861100 -29.583500 -23.639400
O -20.876100 -27.514500 -24.901000
C -20.463600 -29.216000 -23.524400
O -20.101800 -31.004000 -22.212000
N -20.028800 -28.060300 -24.164600
N -19.594400 -30.051000 -22.848700
O -18.895000 -27.591100 -24.020400
O -18.373400 -29.862600 -22.857700
