27
Fragment
H -22.740300 -23.041000 -24.076600
H -22.197700 -22.507200 -25.447100
H -22.106500 -21.609900 -24.165800
C -22.060800 -22.510100 -24.496500
H -21.149300 -25.030500 -24.214600
N -20.747600 -23.073200 -24.196800
H -20.600200 -24.502600 -25.585200
C -20.510000 -24.447900 -24.630400
N -20.155000 -21.102500 -23.179400
C -19.829500 -22.351000 -23.590700
H -19.631500 -18.602300 -22.296200
H -19.623100 -24.714900 -24.377200
C -19.141400 -20.442600 -22.706800
N -19.079700 -19.193200 -22.254400
N -18.596700 -22.938100 -23.427400
N -17.878800 -20.934200 -22.525900
N -17.828500 -18.854400 -21.805000
C -17.640700 -22.264900 -22.899700
O -17.296600 -24.641700 -21.652200
C -17.120700 -19.916600 -21.979800
C -16.343000 -22.842600 -22.633900
N -16.259700 -24.116700 -22.077200
H -16.253000 -19.997000 -21.689400
O -15.444400 -21.233700 -23.886600
N -15.215500 -22.211700 -23.137900
O -15.189600 -24.697000 -22.031600
O -14.075400 -22.567900 -22.876200
27
Fragment
O -24.884700 -29.839500 -27.457100
O -23.770500 -31.968600 -28.301700
N -23.744600 -29.483300 -27.195400
O -23.515700 -28.505300 -26.446700
H -22.707000 -27.268700 -28.644000
N -22.700400 -31.388400 -28.256100
C -22.617100 -30.114200 -27.699400
C -21.839400 -27.188300 -28.353500
O -21.663500 -31.913400 -28.681100
C -21.319300 -29.536600 -27.433700
N -21.131600 -26.126000 -28.528400
N -21.081300 -28.205900 -27.807400
N -20.363400 -30.209800 -26.905900
N -19.880400 -26.464900 -28.079000
C -19.818600 -27.714300 -27.626500
H -19.337000 -31.986500 -25.956200
H -19.328500 -25.874000 -28.037100
C -19.130600 -29.622700 -26.742700
N -18.805100 -28.374100 -27.154000
C -18.450100 -31.719500 -25.702900
H -18.359900 -31.774200 -24.748200
N -18.212500 -30.344900 -26.136500
H -17.810800 -32.302100 -26.118700
C -16.899300 -29.781800 -25.836800
H -16.853600 -28.881500 -26.167600
H -16.762400 -29.778900 -24.886200
H -16.219800 -30.312600 -26.256700
54
Fragment
H -22.740300 -23.041000 -24.076600
H -22.197700 -22.507200 -25.447100
H -22.106500 -21.609900 -24.165800
C -22.060800 -22.510100 -24.496500
H -21.149300 -25.030500 -24.214600
N -20.747600 -23.073200 -24.196800
H -20.600200 -24.502600 -25.585200
C -20.510000 -24.447900 -24.630400
N -20.155000 -21.102500 -23.179400
C -19.829500 -22.351000 -23.590700
H -19.631500 -18.602300 -22.296200
H -19.623100 -24.714900 -24.377200
C -19.141400 -20.442600 -22.706800
N -19.079700 -19.193200 -22.254400
N -18.596700 -22.938100 -23.427400
N -17.878800 -20.934200 -22.525900
N -17.828500 -18.854400 -21.805000
C -17.640700 -22.264900 -22.899700
O -17.296600 -24.641700 -21.652200
C -17.120700 -19.916600 -21.979800
C -16.343000 -22.842600 -22.633900
N -16.259700 -24.116700 -22.077200
H -16.253000 -19.997000 -21.689400
O -15.444400 -21.233700 -23.886600
N -15.215500 -22.211700 -23.137900
O -15.189600 -24.697000 -22.031600
O -14.075400 -22.567900 -22.876200
O -24.884700 -29.839500 -27.457100
O -23.770500 -31.968600 -28.301700
N -23.744600 -29.483300 -27.195400
O -23.515700 -28.505300 -26.446700
H -22.707000 -27.268700 -28.644000
N -22.700400 -31.388400 -28.256100
C -22.617100 -30.114200 -27.699400
C -21.839400 -27.188300 -28.353500
O -21.663500 -31.913400 -28.681100
C -21.319300 -29.536600 -27.433700
N -21.131600 -26.126000 -28.528400
N -21.081300 -28.205900 -27.807400
N -20.363400 -30.209800 -26.905900
N -19.880400 -26.464900 -28.079000
C -19.818600 -27.714300 -27.626500
H -19.337000 -31.986500 -25.956200
H -19.328500 -25.874000 -28.037100
C -19.130600 -29.622700 -26.742700
N -18.805100 -28.374100 -27.154000
C -18.450100 -31.719500 -25.702900
H -18.359900 -31.774200 -24.748200
N -18.212500 -30.344900 -26.136500
H -17.810800 -32.302100 -26.118700
C -16.899300 -29.781800 -25.836800
H -16.853600 -28.881500 -26.167600
H -16.762400 -29.778900 -24.886200
H -16.219800 -30.312600 -26.256700
