20
Fragment
O -11.575600 -13.396300 -30.239500
H -11.308300 -12.590400 -35.681800
N -11.276200 -15.322500 -32.086000
O -11.015000 -15.976700 -33.258500
N -10.985100 -13.092200 -31.263100
C -10.872700 -14.103400 -32.299700
N -10.567600 -12.297900 -35.387400
O -10.473900 -12.013400 -31.523400
N -10.462800 -15.129500 -34.203500
C -10.360100 -13.970000 -33.618300
N -9.978300 -11.236300 -35.947300
C -9.863700 -12.804400 -34.362300
C -8.863800 -11.073000 -35.254600
C -8.729800 -12.033500 -34.250500
O -8.148500 -9.441700 -36.698800
N -8.054800 -9.895400 -35.568300
O -7.794700 -13.268400 -32.594800
N -7.609300 -12.389900 -33.427900
O -7.395600 -9.406000 -34.675000
O -6.527400 -11.849500 -33.639900
20
Fragment
N -14.592500 -14.430500 -29.944300
H -14.563100 -17.280900 -26.375700
O -14.559700 -13.823600 -28.726800
O -14.515600 -16.324700 -31.862100
C -14.040400 -15.584800 -29.745300
N -13.986400 -14.637700 -27.765100
N -13.942500 -16.561100 -30.809300
N -13.795100 -17.491600 -26.706100
C -13.649400 -15.728800 -28.389900
O -13.293000 -17.558100 -30.554200
N -13.149800 -18.534900 -26.165400
C -13.082500 -16.860300 -27.653400
C -11.982700 -18.560600 -26.792900
C -11.870400 -17.526700 -27.734000
O -11.515600 -20.603100 -25.874800
N -11.043800 -19.585800 -26.363700
O -10.877600 -15.958600 -29.022900
N -10.770600 -17.085000 -28.548200
O -9.849000 -19.351800 -26.457000
O -9.803600 -17.816100 -28.695500
40
Fragment
O -11.575600 -13.396300 -30.239500
H -11.308300 -12.590400 -35.681800
N -11.276200 -15.322500 -32.086000
O -11.015000 -15.976700 -33.258500
N -10.985100 -13.092200 -31.263100
C -10.872700 -14.103400 -32.299700
N -10.567600 -12.297900 -35.387400
O -10.473900 -12.013400 -31.523400
N -10.462800 -15.129500 -34.203500
C -10.360100 -13.970000 -33.618300
N -9.978300 -11.236300 -35.947300
C -9.863700 -12.804400 -34.362300
C -8.863800 -11.073000 -35.254600
C -8.729800 -12.033500 -34.250500
O -8.148500 -9.441700 -36.698800
N -8.054800 -9.895400 -35.568300
O -7.794700 -13.268400 -32.594800
N -7.609300 -12.389900 -33.427900
O -7.395600 -9.406000 -34.675000
O -6.527400 -11.849500 -33.639900
N -14.592500 -14.430500 -29.944300
H -14.563100 -17.280900 -26.375700
O -14.559700 -13.823600 -28.726800
O -14.515600 -16.324700 -31.862100
C -14.040400 -15.584800 -29.745300
N -13.986400 -14.637700 -27.765100
N -13.942500 -16.561100 -30.809300
N -13.795100 -17.491600 -26.706100
C -13.649400 -15.728800 -28.389900
O -13.293000 -17.558100 -30.554200
N -13.149800 -18.534900 -26.165400
C -13.082500 -16.860300 -27.653400
C -11.982700 -18.560600 -26.792900
C -11.870400 -17.526700 -27.734000
O -11.515600 -20.603100 -25.874800
N -11.043800 -19.585800 -26.363700
O -10.877600 -15.958600 -29.022900
N -10.770600 -17.085000 -28.548200
O -9.849000 -19.351800 -26.457000
O -9.803600 -17.816100 -28.695500
