20
Fragment
O -11.575600 -13.396300 -30.239500
H -11.308300 -12.590400 -35.681800
N -11.276200 -15.322500 -32.086000
O -11.015000 -15.976700 -33.258500
N -10.985100 -13.092200 -31.263100
C -10.872700 -14.103400 -32.299700
N -10.567600 -12.297900 -35.387400
O -10.473900 -12.013400 -31.523400
N -10.462800 -15.129500 -34.203500
C -10.360100 -13.970000 -33.618300
N -9.978300 -11.236300 -35.947300
C -9.863700 -12.804400 -34.362300
C -8.863800 -11.073000 -35.254600
C -8.729800 -12.033500 -34.250500
O -8.148500 -9.441700 -36.698800
N -8.054800 -9.895400 -35.568300
O -7.794700 -13.268400 -32.594800
N -7.609300 -12.389900 -33.427900
O -7.395600 -9.406000 -34.675000
O -6.527400 -11.849500 -33.639900
20
Fragment
O -11.651900 -6.908400 -30.239500
H -11.384700 -6.102600 -35.681800
N -11.352600 -8.834700 -32.086000
O -11.091300 -9.488800 -33.258500
N -11.061400 -6.604400 -31.263100
C -10.949000 -7.615600 -32.299700
N -10.644000 -5.810000 -35.387400
O -10.550200 -5.525500 -31.523400
N -10.539200 -8.641600 -34.203500
C -10.436400 -7.482100 -33.618300
N -10.054600 -4.748400 -35.947300
C -9.940100 -6.316500 -34.362300
C -8.940100 -4.585200 -35.254600
C -8.806100 -5.545700 -34.250500
O -8.224800 -2.953900 -36.698800
N -8.131200 -3.407500 -35.568300
O -7.871000 -6.780500 -32.594800
N -7.685600 -5.902100 -33.427900
O -7.472000 -2.918100 -34.675000
O -6.603700 -5.361700 -33.639900
40
Fragment
O -11.575600 -13.396300 -30.239500
H -11.308300 -12.590400 -35.681800
N -11.276200 -15.322500 -32.086000
O -11.015000 -15.976700 -33.258500
N -10.985100 -13.092200 -31.263100
C -10.872700 -14.103400 -32.299700
N -10.567600 -12.297900 -35.387400
O -10.473900 -12.013400 -31.523400
N -10.462800 -15.129500 -34.203500
C -10.360100 -13.970000 -33.618300
N -9.978300 -11.236300 -35.947300
C -9.863700 -12.804400 -34.362300
C -8.863800 -11.073000 -35.254600
C -8.729800 -12.033500 -34.250500
O -8.148500 -9.441700 -36.698800
N -8.054800 -9.895400 -35.568300
O -7.794700 -13.268400 -32.594800
N -7.609300 -12.389900 -33.427900
O -7.395600 -9.406000 -34.675000
O -6.527400 -11.849500 -33.639900
O -11.651900 -6.908400 -30.239500
H -11.384700 -6.102600 -35.681800
N -11.352600 -8.834700 -32.086000
O -11.091300 -9.488800 -33.258500
N -11.061400 -6.604400 -31.263100
C -10.949000 -7.615600 -32.299700
N -10.644000 -5.810000 -35.387400
O -10.550200 -5.525500 -31.523400
N -10.539200 -8.641600 -34.203500
C -10.436400 -7.482100 -33.618300
N -10.054600 -4.748400 -35.947300
C -9.940100 -6.316500 -34.362300
C -8.940100 -4.585200 -35.254600
C -8.806100 -5.545700 -34.250500
O -8.224800 -2.953900 -36.698800
N -8.131200 -3.407500 -35.568300
O -7.871000 -6.780500 -32.594800
N -7.685600 -5.902100 -33.427900
O -7.472000 -2.918100 -34.675000
O -6.603700 -5.361700 -33.639900
