20
Fragment
O -11.575600 -13.396300 -30.239500
H -11.308300 -12.590400 -35.681800
N -11.276200 -15.322500 -32.086000
O -11.015000 -15.976700 -33.258500
N -10.985100 -13.092200 -31.263100
C -10.872700 -14.103400 -32.299700
N -10.567600 -12.297900 -35.387400
O -10.473900 -12.013400 -31.523400
N -10.462800 -15.129500 -34.203500
C -10.360100 -13.970000 -33.618300
N -9.978300 -11.236300 -35.947300
C -9.863700 -12.804400 -34.362300
C -8.863800 -11.073000 -35.254600
C -8.729800 -12.033500 -34.250500
O -8.148500 -9.441700 -36.698800
N -8.054800 -9.895400 -35.568300
O -7.794700 -13.268400 -32.594800
N -7.609300 -12.389900 -33.427900
O -7.395600 -9.406000 -34.675000
O -6.527400 -11.849500 -33.639900
3
Fragment
H -6.882400 -12.947800 -37.139900
H -6.832600 -14.017400 -36.507900
O -6.575000 -13.259500 -36.511100
23
Fragment
O -11.575600 -13.396300 -30.239500
H -11.308300 -12.590400 -35.681800
N -11.276200 -15.322500 -32.086000
O -11.015000 -15.976700 -33.258500
N -10.985100 -13.092200 -31.263100
C -10.872700 -14.103400 -32.299700
N -10.567600 -12.297900 -35.387400
O -10.473900 -12.013400 -31.523400
N -10.462800 -15.129500 -34.203500
C -10.360100 -13.970000 -33.618300
N -9.978300 -11.236300 -35.947300
C -9.863700 -12.804400 -34.362300
C -8.863800 -11.073000 -35.254600
C -8.729800 -12.033500 -34.250500
O -8.148500 -9.441700 -36.698800
N -8.054800 -9.895400 -35.568300
O -7.794700 -13.268400 -32.594800
N -7.609300 -12.389900 -33.427900
O -7.395600 -9.406000 -34.675000
O -6.527400 -11.849500 -33.639900
H -6.882400 -12.947800 -37.139900
H -6.832600 -14.017400 -36.507900
O -6.575000 -13.259500 -36.511100
