20
Fragment
O -11.575600 -13.396300 -30.239500
H -11.308300 -12.590400 -35.681800
N -11.276200 -15.322500 -32.086000
O -11.015000 -15.976700 -33.258500
N -10.985100 -13.092200 -31.263100
C -10.872700 -14.103400 -32.299700
N -10.567600 -12.297900 -35.387400
O -10.473900 -12.013400 -31.523400
N -10.462800 -15.129500 -34.203500
C -10.360100 -13.970000 -33.618300
N -9.978300 -11.236300 -35.947300
C -9.863700 -12.804400 -34.362300
C -8.863800 -11.073000 -35.254600
C -8.729800 -12.033500 -34.250500
O -8.148500 -9.441700 -36.698800
N -8.054800 -9.895400 -35.568300
O -7.794700 -13.268400 -32.594800
N -7.609300 -12.389900 -33.427900
O -7.395600 -9.406000 -34.675000
O -6.527400 -11.849500 -33.639900
20
Fragment
O -5.410000 -6.908400 -30.239500
H -5.142800 -6.102600 -35.681800
N -5.110700 -8.834700 -32.086000
O -4.849400 -9.488800 -33.258500
N -4.819500 -6.604400 -31.263100
C -4.707100 -7.615600 -32.299700
N -4.402100 -5.810000 -35.387400
O -4.308300 -5.525500 -31.523400
N -4.297300 -8.641600 -34.203500
C -4.194500 -7.482100 -33.618300
N -3.812700 -4.748400 -35.947300
C -3.698200 -6.316500 -34.362300
C -2.698200 -4.585200 -35.254600
C -2.564200 -5.545700 -34.250500
O -1.982900 -2.953900 -36.698800
N -1.889300 -3.407500 -35.568300
O -1.629100 -6.780500 -32.594800
N -1.443700 -5.902100 -33.427900
O -1.230100 -2.918100 -34.675000
O -0.361800 -5.361700 -33.639900
40
Fragment
O -11.575600 -13.396300 -30.239500
H -11.308300 -12.590400 -35.681800
N -11.276200 -15.322500 -32.086000
O -11.015000 -15.976700 -33.258500
N -10.985100 -13.092200 -31.263100
C -10.872700 -14.103400 -32.299700
N -10.567600 -12.297900 -35.387400
O -10.473900 -12.013400 -31.523400
N -10.462800 -15.129500 -34.203500
C -10.360100 -13.970000 -33.618300
N -9.978300 -11.236300 -35.947300
C -9.863700 -12.804400 -34.362300
C -8.863800 -11.073000 -35.254600
C -8.729800 -12.033500 -34.250500
O -8.148500 -9.441700 -36.698800
N -8.054800 -9.895400 -35.568300
O -7.794700 -13.268400 -32.594800
N -7.609300 -12.389900 -33.427900
O -7.395600 -9.406000 -34.675000
O -6.527400 -11.849500 -33.639900
O -5.410000 -6.908400 -30.239500
H -5.142800 -6.102600 -35.681800
N -5.110700 -8.834700 -32.086000
O -4.849400 -9.488800 -33.258500
N -4.819500 -6.604400 -31.263100
C -4.707100 -7.615600 -32.299700
N -4.402100 -5.810000 -35.387400
O -4.308300 -5.525500 -31.523400
N -4.297300 -8.641600 -34.203500
C -4.194500 -7.482100 -33.618300
N -3.812700 -4.748400 -35.947300
C -3.698200 -6.316500 -34.362300
C -2.698200 -4.585200 -35.254600
C -2.564200 -5.545700 -34.250500
O -1.982900 -2.953900 -36.698800
N -1.889300 -3.407500 -35.568300
O -1.629100 -6.780500 -32.594800
N -1.443700 -5.902100 -33.427900
O -1.230100 -2.918100 -34.675000
O -0.361800 -5.361700 -33.639900
