3
Fragment
H -15.484700 -25.364400 -27.070300
O -15.395100 -26.044900 -27.596900
H -14.536300 -26.223500 -27.642100
23
Fragment
H -16.331200 -23.711200 -25.023900
H -16.080000 -23.034500 -26.339300
N -15.780100 -23.601100 -25.793800
H -15.232500 -25.657800 -23.983500
H -14.910800 -28.276900 -20.619800
H -14.784200 -26.690200 -20.493200
N -14.711600 -27.410700 -21.006700
C -14.428200 -23.526200 -25.560200
O -14.252900 -22.485600 -27.534800
C -14.249400 -25.543800 -23.991300
H -14.237000 -23.528100 -23.529400
C -14.032900 -27.319400 -22.162200
O -14.027700 -29.569500 -22.231100
H -13.978600 -25.279600 -21.964200
C -13.895700 -24.083300 -24.275400
H -13.875200 -26.125600 -24.700000
C -13.670500 -25.935200 -22.639700
N -13.653400 -28.330500 -22.867700
H -13.622900 -30.208500 -22.733200
H -13.604300 -21.986200 -27.906300
N -13.583000 -23.019500 -26.390500
H -12.909500 -23.996400 -24.282100
H -12.684300 -25.868900 -22.689800
26
Fragment
H -15.484700 -25.364400 -27.070300
O -15.395100 -26.044900 -27.596900
H -14.536300 -26.223500 -27.642100
H -16.331200 -23.711200 -25.023900
H -16.080000 -23.034500 -26.339300
N -15.780100 -23.601100 -25.793800
H -15.232500 -25.657800 -23.983500
H -14.910800 -28.276900 -20.619800
H -14.784200 -26.690200 -20.493200
N -14.711600 -27.410700 -21.006700
C -14.428200 -23.526200 -25.560200
O -14.252900 -22.485600 -27.534800
C -14.249400 -25.543800 -23.991300
H -14.237000 -23.528100 -23.529400
C -14.032900 -27.319400 -22.162200
O -14.027700 -29.569500 -22.231100
H -13.978600 -25.279600 -21.964200
C -13.895700 -24.083300 -24.275400
H -13.875200 -26.125600 -24.700000
C -13.670500 -25.935200 -22.639700
N -13.653400 -28.330500 -22.867700
H -13.622900 -30.208500 -22.733200
H -13.604300 -21.986200 -27.906300
N -13.583000 -23.019500 -26.390500
H -12.909500 -23.996400 -24.282100
H -12.684300 -25.868900 -22.689800
