3
Fragment
H -15.484700 -25.364400 -27.070300
O -15.395100 -26.044900 -27.596900
H -14.536300 -26.223500 -27.642100
23
Fragment
H -15.711700 -28.751300 -32.666800
H -15.622000 -27.406000 -30.417700
N -15.259000 -28.110100 -30.088400
H -15.082100 -28.166200 -29.263300
H -15.074900 -27.410000 -34.715000
C -14.755300 -28.757100 -32.410900
C -14.648600 -28.977600 -30.929200
H -14.592700 -26.680400 -32.476800
N -14.384000 -25.130000 -35.296900
H -14.322100 -29.513100 -32.880300
H -14.296700 -23.442000 -35.970700
C -14.138900 -27.335000 -34.402500
C -14.107600 -27.446900 -32.873800
N -13.975500 -30.008500 -30.526500
O -13.955100 -30.050300 -29.095600
O -13.678400 -23.929900 -35.625100
H -13.625800 -28.086400 -34.794600
C -13.559200 -26.034400 -34.886700
H -13.540400 -30.804700 -28.939400
H -13.169600 -27.413900 -32.560000
N -12.215800 -25.849300 -34.805100
H -11.865500 -25.155500 -35.266900
H -11.745500 -26.537700 -34.700500
26
Fragment
H -15.484700 -25.364400 -27.070300
O -15.395100 -26.044900 -27.596900
H -14.536300 -26.223500 -27.642100
H -15.711700 -28.751300 -32.666800
H -15.622000 -27.406000 -30.417700
N -15.259000 -28.110100 -30.088400
H -15.082100 -28.166200 -29.263300
H -15.074900 -27.410000 -34.715000
C -14.755300 -28.757100 -32.410900
C -14.648600 -28.977600 -30.929200
H -14.592700 -26.680400 -32.476800
N -14.384000 -25.130000 -35.296900
H -14.322100 -29.513100 -32.880300
H -14.296700 -23.442000 -35.970700
C -14.138900 -27.335000 -34.402500
C -14.107600 -27.446900 -32.873800
N -13.975500 -30.008500 -30.526500
O -13.955100 -30.050300 -29.095600
O -13.678400 -23.929900 -35.625100
H -13.625800 -28.086400 -34.794600
C -13.559200 -26.034400 -34.886700
H -13.540400 -30.804700 -28.939400
H -13.169600 -27.413900 -32.560000
N -12.215800 -25.849300 -34.805100
H -11.865500 -25.155500 -35.266900
H -11.745500 -26.537700 -34.700500
