14
Fragment
H -10.293000 -22.678400 -12.947200
H -9.695800 -20.288700 -12.449300
H -9.572500 -22.636100 -14.208300
N -9.499700 -22.790400 -13.334800
C -8.822600 -20.473500 -12.802300
H -8.768700 -20.153600 -13.705500
N -8.586200 -21.894000 -12.781200
H -8.160200 -20.030700 -12.266400
H -7.915500 -24.370300 -12.232900
C -7.557400 -22.442400 -12.129000
N -7.383000 -23.752400 -11.959000
N -6.541800 -21.802600 -11.571200
N -6.233500 -23.947200 -11.286700
N -5.744400 -22.785900 -11.058800
14
Fragment
N -9.316600 -29.613400 -13.380500
N -8.827500 -30.774800 -13.152600
N -8.519200 -28.630100 -12.868000
N -7.678100 -30.579900 -12.480200
C -7.503700 -29.270000 -12.310200
H -7.145600 -31.197800 -12.206300
H -6.900900 -26.858200 -12.172800
N -6.474800 -28.721600 -11.658000
H -6.292400 -26.981100 -10.733700
C -6.238500 -27.301100 -11.636900
N -5.561300 -29.617900 -11.104400
H -5.488600 -29.463600 -10.231000
H -5.365300 -27.116300 -11.989900
H -4.768000 -29.505900 -11.492000
28
Fragment
H -10.293000 -22.678400 -12.947200
H -9.695800 -20.288700 -12.449300
H -9.572500 -22.636100 -14.208300
N -9.499700 -22.790400 -13.334800
C -8.822600 -20.473500 -12.802300
H -8.768700 -20.153600 -13.705500
N -8.586200 -21.894000 -12.781200
H -8.160200 -20.030700 -12.266400
H -7.915500 -24.370300 -12.232900
C -7.557400 -22.442400 -12.129000
N -7.383000 -23.752400 -11.959000
N -6.541800 -21.802600 -11.571200
N -6.233500 -23.947200 -11.286700
N -5.744400 -22.785900 -11.058800
N -9.316600 -29.613400 -13.380500
N -8.827500 -30.774800 -13.152600
N -8.519200 -28.630100 -12.868000
N -7.678100 -30.579900 -12.480200
C -7.503700 -29.270000 -12.310200
H -7.145600 -31.197800 -12.206300
H -6.900900 -26.858200 -12.172800
N -6.474800 -28.721600 -11.658000
H -6.292400 -26.981100 -10.733700
C -6.238500 -27.301100 -11.636900
N -5.561300 -29.617900 -11.104400
H -5.488600 -29.463600 -10.231000
H -5.365300 -27.116300 -11.989900
H -4.768000 -29.505900 -11.492000
