14
Fragment
H -10.293000 -22.678400 -12.947200
H -9.695800 -20.288700 -12.449300
H -9.572500 -22.636100 -14.208300
N -9.499700 -22.790400 -13.334800
C -8.822600 -20.473500 -12.802300
H -8.768700 -20.153600 -13.705500
N -8.586200 -21.894000 -12.781200
H -8.160200 -20.030700 -12.266400
H -7.915500 -24.370300 -12.232900
C -7.557400 -22.442400 -12.129000
N -7.383000 -23.752400 -11.959000
N -6.541800 -21.802600 -11.571200
N -6.233500 -23.947200 -11.286700
N -5.744400 -22.785900 -11.058800
14
Fragment
N -9.848500 -18.179400 -9.889200
N -9.359400 -17.018100 -9.661200
N -9.051100 -19.162700 -9.376700
N -8.210000 -17.212900 -8.988900
C -8.035600 -18.522900 -8.818900
H -7.677500 -16.595000 -8.715000
H -7.432700 -20.934600 -8.681500
N -7.006700 -19.071300 -8.166700
H -6.824200 -20.811700 -7.242400
C -6.770400 -20.491800 -8.145600
N -6.093200 -18.174900 -7.613100
H -6.020500 -18.329200 -6.739600
H -5.897100 -20.676600 -8.498600
H -5.299900 -18.286900 -8.000700
28
Fragment
H -10.293000 -22.678400 -12.947200
H -9.695800 -20.288700 -12.449300
H -9.572500 -22.636100 -14.208300
N -9.499700 -22.790400 -13.334800
C -8.822600 -20.473500 -12.802300
H -8.768700 -20.153600 -13.705500
N -8.586200 -21.894000 -12.781200
H -8.160200 -20.030700 -12.266400
H -7.915500 -24.370300 -12.232900
C -7.557400 -22.442400 -12.129000
N -7.383000 -23.752400 -11.959000
N -6.541800 -21.802600 -11.571200
N -6.233500 -23.947200 -11.286700
N -5.744400 -22.785900 -11.058800
N -9.848500 -18.179400 -9.889200
N -9.359400 -17.018100 -9.661200
N -9.051100 -19.162700 -9.376700
N -8.210000 -17.212900 -8.988900
C -8.035600 -18.522900 -8.818900
H -7.677500 -16.595000 -8.715000
H -7.432700 -20.934600 -8.681500
N -7.006700 -19.071300 -8.166700
H -6.824200 -20.811700 -7.242400
C -6.770400 -20.491800 -8.145600
N -6.093200 -18.174900 -7.613100
H -6.020500 -18.329200 -6.739600
H -5.897100 -20.676600 -8.498600
H -5.299900 -18.286900 -8.000700
