14
Fragment
H -10.293000 -22.678400 -12.947200
H -9.695800 -20.288700 -12.449300
H -9.572500 -22.636100 -14.208300
N -9.499700 -22.790400 -13.334800
C -8.822600 -20.473500 -12.802300
H -8.768700 -20.153600 -13.705500
N -8.586200 -21.894000 -12.781200
H -8.160200 -20.030700 -12.266400
H -7.915500 -24.370300 -12.232900
C -7.557400 -22.442400 -12.129000
N -7.383000 -23.752400 -11.959000
N -6.541800 -21.802600 -11.571200
N -6.233500 -23.947200 -11.286700
N -5.744400 -22.785900 -11.058800
14
Fragment
H -16.022600 -25.114500 -16.438500
H -15.425300 -27.504100 -15.940700
H -15.302000 -25.156800 -17.699600
N -15.229200 -25.002500 -16.826100
C -14.552100 -27.319300 -16.293600
H -14.498200 -27.639300 -17.196800
N -14.315800 -25.898800 -16.272500
H -13.889700 -27.762200 -15.757700
H -13.645000 -23.422600 -15.724200
C -13.286900 -25.350400 -15.620300
N -13.112500 -24.040500 -15.450300
N -12.271400 -25.990300 -15.062500
N -11.963100 -23.845600 -14.778000
N -11.474000 -25.007000 -14.550100
28
Fragment
H -10.293000 -22.678400 -12.947200
H -9.695800 -20.288700 -12.449300
H -9.572500 -22.636100 -14.208300
N -9.499700 -22.790400 -13.334800
C -8.822600 -20.473500 -12.802300
H -8.768700 -20.153600 -13.705500
N -8.586200 -21.894000 -12.781200
H -8.160200 -20.030700 -12.266400
H -7.915500 -24.370300 -12.232900
C -7.557400 -22.442400 -12.129000
N -7.383000 -23.752400 -11.959000
N -6.541800 -21.802600 -11.571200
N -6.233500 -23.947200 -11.286700
N -5.744400 -22.785900 -11.058800
H -16.022600 -25.114500 -16.438500
H -15.425300 -27.504100 -15.940700
H -15.302000 -25.156800 -17.699600
N -15.229200 -25.002500 -16.826100
C -14.552100 -27.319300 -16.293600
H -14.498200 -27.639300 -17.196800
N -14.315800 -25.898800 -16.272500
H -13.889700 -27.762200 -15.757700
H -13.645000 -23.422600 -15.724200
C -13.286900 -25.350400 -15.620300
N -13.112500 -24.040500 -15.450300
N -12.271400 -25.990300 -15.062500
N -11.963100 -23.845600 -14.778000
N -11.474000 -25.007000 -14.550100
