20
Fragment
H -14.349100 -9.887000 -8.421900
H -14.257000 -8.352800 -8.112900
C -13.753300 -9.164500 -8.209500
H -13.297000 -9.357600 -7.387200
N -12.823700 -7.783900 -9.910800
N -12.775100 -9.006600 -9.285200
N -12.007400 -7.508200 -10.847500
C -11.925100 -10.042600 -9.572900
O -11.920100 -11.110700 -9.024300
C -11.080100 -8.451300 -11.207200
N -11.044400 -9.687500 -10.593100
O -10.291500 -6.335500 -13.070800
C -10.060800 -8.471300 -12.132800
C -10.016900 -10.389500 -11.158900
H -9.776300 -11.256100 -10.921600
C -9.682200 -7.405200 -13.079800
N -9.419200 -9.682700 -12.073900
N -8.678500 -7.655900 -13.897700
H -8.421600 -7.057500 -14.459200
H -8.280900 -8.418100 -13.869500
20
Fragment
H -16.688100 -7.743900 -12.155500
H -15.914700 -8.770100 -11.257400
C -15.852000 -7.932800 -11.723100
H -15.650400 -7.233200 -11.097300
O -15.229500 -5.946100 -13.577800
N -14.790000 -8.011000 -12.726800
C -14.586200 -6.962800 -13.578400
N -14.094700 -9.199100 -12.701600
N -13.522700 -7.220300 -14.441700
H -13.234800 -5.584500 -15.611800
N -13.159700 -9.407600 -13.542100
C -12.964600 -6.450800 -15.409800
C -12.845200 -8.437200 -14.442100
N -11.999700 -7.083300 -16.019300
C -11.909200 -8.321500 -15.439400
C -10.891100 -9.311800 -15.890200
O -10.790200 -10.425200 -15.399800
H -10.168600 -8.079700 -17.173100
N -10.104300 -8.870000 -16.862000
H -9.606200 -9.472900 -17.106800
40
Fragment
H -14.349100 -9.887000 -8.421900
H -14.257000 -8.352800 -8.112900
C -13.753300 -9.164500 -8.209500
H -13.297000 -9.357600 -7.387200
N -12.823700 -7.783900 -9.910800
N -12.775100 -9.006600 -9.285200
N -12.007400 -7.508200 -10.847500
C -11.925100 -10.042600 -9.572900
O -11.920100 -11.110700 -9.024300
C -11.080100 -8.451300 -11.207200
N -11.044400 -9.687500 -10.593100
O -10.291500 -6.335500 -13.070800
C -10.060800 -8.471300 -12.132800
C -10.016900 -10.389500 -11.158900
H -9.776300 -11.256100 -10.921600
C -9.682200 -7.405200 -13.079800
N -9.419200 -9.682700 -12.073900
N -8.678500 -7.655900 -13.897700
H -8.421600 -7.057500 -14.459200
H -8.280900 -8.418100 -13.869500
H -16.688100 -7.743900 -12.155500
H -15.914700 -8.770100 -11.257400
C -15.852000 -7.932800 -11.723100
H -15.650400 -7.233200 -11.097300
O -15.229500 -5.946100 -13.577800
N -14.790000 -8.011000 -12.726800
C -14.586200 -6.962800 -13.578400
N -14.094700 -9.199100 -12.701600
N -13.522700 -7.220300 -14.441700
H -13.234800 -5.584500 -15.611800
N -13.159700 -9.407600 -13.542100
C -12.964600 -6.450800 -15.409800
C -12.845200 -8.437200 -14.442100
N -11.999700 -7.083300 -16.019300
C -11.909200 -8.321500 -15.439400
C -10.891100 -9.311800 -15.890200
O -10.790200 -10.425200 -15.399800
H -10.168600 -8.079700 -17.173100
N -10.104300 -8.870000 -16.862000
H -9.606200 -9.472900 -17.106800
