20
Fragment
H -14.349100 -9.887000 -8.421900
H -14.257000 -8.352800 -8.112900
C -13.753300 -9.164500 -8.209500
H -13.297000 -9.357600 -7.387200
N -12.823700 -7.783900 -9.910800
N -12.775100 -9.006600 -9.285200
N -12.007400 -7.508200 -10.847500
C -11.925100 -10.042600 -9.572900
O -11.920100 -11.110700 -9.024300
C -11.080100 -8.451300 -11.207200
N -11.044400 -9.687500 -10.593100
O -10.291500 -6.335500 -13.070800
C -10.060800 -8.471300 -12.132800
C -10.016900 -10.389500 -11.158900
H -9.776300 -11.256100 -10.921600
C -9.682200 -7.405200 -13.079800
N -9.419200 -9.682700 -12.073900
N -8.678500 -7.655900 -13.897700
H -8.421600 -7.057500 -14.459200
H -8.280900 -8.418100 -13.869500
16
Fragment
H -16.106100 -0.590800 -10.742500
O -15.640100 -2.705400 -10.102900
O -15.453600 -0.780700 -11.201400
C -15.088500 -1.990600 -10.949200
C -13.957100 -2.487600 -11.744400
H -13.900100 -4.343700 -10.940600
H -13.651500 -0.813100 -12.827200
C -13.500100 -3.794800 -11.575800
C -13.349200 -1.683400 -12.699500
C -12.460000 -4.282600 -12.341300
C -12.309000 -2.156700 -13.456100
H -12.163800 -5.156900 -12.228300
H -11.904500 -1.606200 -14.087000
C -11.861700 -3.456700 -13.280400
O -10.828400 -3.879000 -14.063100
H -10.640100 -4.654000 -13.872600
36
Fragment
H -14.349100 -9.887000 -8.421900
H -14.257000 -8.352800 -8.112900
C -13.753300 -9.164500 -8.209500
H -13.297000 -9.357600 -7.387200
N -12.823700 -7.783900 -9.910800
N -12.775100 -9.006600 -9.285200
N -12.007400 -7.508200 -10.847500
C -11.925100 -10.042600 -9.572900
O -11.920100 -11.110700 -9.024300
C -11.080100 -8.451300 -11.207200
N -11.044400 -9.687500 -10.593100
O -10.291500 -6.335500 -13.070800
C -10.060800 -8.471300 -12.132800
C -10.016900 -10.389500 -11.158900
H -9.776300 -11.256100 -10.921600
C -9.682200 -7.405200 -13.079800
N -9.419200 -9.682700 -12.073900
N -8.678500 -7.655900 -13.897700
H -8.421600 -7.057500 -14.459200
H -8.280900 -8.418100 -13.869500
H -16.106100 -0.590800 -10.742500
O -15.640100 -2.705400 -10.102900
O -15.453600 -0.780700 -11.201400
C -15.088500 -1.990600 -10.949200
C -13.957100 -2.487600 -11.744400
H -13.900100 -4.343700 -10.940600
H -13.651500 -0.813100 -12.827200
C -13.500100 -3.794800 -11.575800
C -13.349200 -1.683400 -12.699500
C -12.460000 -4.282600 -12.341300
C -12.309000 -2.156700 -13.456100
H -12.163800 -5.156900 -12.228300
H -11.904500 -1.606200 -14.087000
C -11.861700 -3.456700 -13.280400
O -10.828400 -3.879000 -14.063100
H -10.640100 -4.654000 -13.872600
