20
Fragment
H -14.349100 -9.887000 -8.421900
H -14.257000 -8.352800 -8.112900
C -13.753300 -9.164500 -8.209500
H -13.297000 -9.357600 -7.387200
N -12.823700 -7.783900 -9.910800
N -12.775100 -9.006600 -9.285200
N -12.007400 -7.508200 -10.847500
C -11.925100 -10.042600 -9.572900
O -11.920100 -11.110700 -9.024300
C -11.080100 -8.451300 -11.207200
N -11.044400 -9.687500 -10.593100
O -10.291500 -6.335500 -13.070800
C -10.060800 -8.471300 -12.132800
C -10.016900 -10.389500 -11.158900
H -9.776300 -11.256100 -10.921600
C -9.682200 -7.405200 -13.079800
N -9.419200 -9.682700 -12.073900
N -8.678500 -7.655900 -13.897700
H -8.421600 -7.057500 -14.459200
H -8.280900 -8.418100 -13.869500
16
Fragment
H -11.045200 -8.885900 -6.131000
O -10.856900 -9.660800 -5.940500
C -9.823600 -10.083100 -6.723200
H -9.780800 -11.933600 -5.916600
H -9.521500 -8.382900 -7.775300
C -9.376300 -11.383200 -6.547500
C -9.225300 -9.257200 -7.662300
C -8.336100 -11.856500 -7.304100
C -8.185200 -9.745000 -8.427800
H -8.033800 -12.726800 -7.176400
H -7.785200 -9.196100 -9.063000
C -7.728200 -11.052200 -8.259200
C -6.596800 -11.549200 -9.054400
O -6.231700 -12.759100 -8.802200
O -6.045200 -10.834400 -9.900700
H -5.579200 -12.949000 -9.261100
36
Fragment
H -14.349100 -9.887000 -8.421900
H -14.257000 -8.352800 -8.112900
C -13.753300 -9.164500 -8.209500
H -13.297000 -9.357600 -7.387200
N -12.823700 -7.783900 -9.910800
N -12.775100 -9.006600 -9.285200
N -12.007400 -7.508200 -10.847500
C -11.925100 -10.042600 -9.572900
O -11.920100 -11.110700 -9.024300
C -11.080100 -8.451300 -11.207200
N -11.044400 -9.687500 -10.593100
O -10.291500 -6.335500 -13.070800
C -10.060800 -8.471300 -12.132800
C -10.016900 -10.389500 -11.158900
H -9.776300 -11.256100 -10.921600
C -9.682200 -7.405200 -13.079800
N -9.419200 -9.682700 -12.073900
N -8.678500 -7.655900 -13.897700
H -8.421600 -7.057500 -14.459200
H -8.280900 -8.418100 -13.869500
H -11.045200 -8.885900 -6.131000
O -10.856900 -9.660800 -5.940500
C -9.823600 -10.083100 -6.723200
H -9.780800 -11.933600 -5.916600
H -9.521500 -8.382900 -7.775300
C -9.376300 -11.383200 -6.547500
C -9.225300 -9.257200 -7.662300
C -8.336100 -11.856500 -7.304100
C -8.185200 -9.745000 -8.427800
H -8.033800 -12.726800 -7.176400
H -7.785200 -9.196100 -9.063000
C -7.728200 -11.052200 -8.259200
C -6.596800 -11.549200 -9.054400
O -6.231700 -12.759100 -8.802200
O -6.045200 -10.834400 -9.900700
H -5.579200 -12.949000 -9.261100
