20
Fragment
H -14.349100 -9.887000 -8.421900
H -14.257000 -8.352800 -8.112900
C -13.753300 -9.164500 -8.209500
H -13.297000 -9.357600 -7.387200
N -12.823700 -7.783900 -9.910800
N -12.775100 -9.006600 -9.285200
N -12.007400 -7.508200 -10.847500
C -11.925100 -10.042600 -9.572900
O -11.920100 -11.110700 -9.024300
C -11.080100 -8.451300 -11.207200
N -11.044400 -9.687500 -10.593100
O -10.291500 -6.335500 -13.070800
C -10.060800 -8.471300 -12.132800
C -10.016900 -10.389500 -11.158900
H -9.776300 -11.256100 -10.921600
C -9.682200 -7.405200 -13.079800
N -9.419200 -9.682700 -12.073900
N -8.678500 -7.655900 -13.897700
H -8.421600 -7.057500 -14.459200
H -8.280900 -8.418100 -13.869500
20
Fragment
H -12.069200 -16.060900 -6.134100
H -11.928500 -17.421500 -5.544400
N -11.671600 -16.823000 -6.105900
N -10.930900 -14.796200 -7.929700
C -10.667900 -17.073700 -6.923700
H -10.573800 -13.222900 -9.082000
C -10.333200 -14.089400 -8.844700
C -10.289300 -16.007600 -7.870800
O -10.058600 -18.143400 -6.932700
N -9.305700 -14.791500 -9.410500
C -9.270000 -16.027600 -8.796400
O -8.430000 -13.368200 -10.979300
C -8.425000 -14.436300 -10.430700
N -8.342700 -16.970700 -9.156000
N -7.575000 -15.472300 -10.718400
N -7.526400 -16.695000 -10.092800
H -7.053100 -15.121400 -12.616400
C -6.596800 -15.314500 -11.794100
H -6.093100 -16.126100 -11.890700
H -6.001000 -14.591900 -11.581700
40
Fragment
H -14.349100 -9.887000 -8.421900
H -14.257000 -8.352800 -8.112900
C -13.753300 -9.164500 -8.209500
H -13.297000 -9.357600 -7.387200
N -12.823700 -7.783900 -9.910800
N -12.775100 -9.006600 -9.285200
N -12.007400 -7.508200 -10.847500
C -11.925100 -10.042600 -9.572900
O -11.920100 -11.110700 -9.024300
C -11.080100 -8.451300 -11.207200
N -11.044400 -9.687500 -10.593100
O -10.291500 -6.335500 -13.070800
C -10.060800 -8.471300 -12.132800
C -10.016900 -10.389500 -11.158900
H -9.776300 -11.256100 -10.921600
C -9.682200 -7.405200 -13.079800
N -9.419200 -9.682700 -12.073900
N -8.678500 -7.655900 -13.897700
H -8.421600 -7.057500 -14.459200
H -8.280900 -8.418100 -13.869500
H -12.069200 -16.060900 -6.134100
H -11.928500 -17.421500 -5.544400
N -11.671600 -16.823000 -6.105900
N -10.930900 -14.796200 -7.929700
C -10.667900 -17.073700 -6.923700
H -10.573800 -13.222900 -9.082000
C -10.333200 -14.089400 -8.844700
C -10.289300 -16.007600 -7.870800
O -10.058600 -18.143400 -6.932700
N -9.305700 -14.791500 -9.410500
C -9.270000 -16.027600 -8.796400
O -8.430000 -13.368200 -10.979300
C -8.425000 -14.436300 -10.430700
N -8.342700 -16.970700 -9.156000
N -7.575000 -15.472300 -10.718400
N -7.526400 -16.695000 -10.092800
H -7.053100 -15.121400 -12.616400
C -6.596800 -15.314500 -11.794100
H -6.093100 -16.126100 -11.890700
H -6.001000 -14.591900 -11.581700
