31
Fragment
H -9.863200 -16.758600 -19.497300
H -9.679600 -16.206800 -16.169000
O -9.597500 -14.377700 -19.098400
H -9.103400 -17.893100 -17.393700
C -8.917500 -16.578100 -19.731100
H -8.832100 -16.709200 -20.708500
H -8.794300 -14.883400 -16.012400
C -8.785500 -15.862000 -15.963800
C -8.651400 -15.099800 -19.443300
H -8.525900 -16.142600 -15.061800
C -8.180700 -17.641900 -17.649800
N -8.107900 -17.597700 -19.083500
H -7.946000 -12.763700 -18.978900
N -7.825000 -16.389900 -16.933900
H -7.580000 -18.362300 -17.331600
N -7.406200 -14.602900 -19.616800
C -7.166300 -13.167500 -19.415300
H -7.017200 -12.736500 -20.283200
H -6.837000 -17.874600 -20.597800
C -6.768600 -17.716200 -19.622400
C -6.628500 -15.775200 -17.047400
H -6.486600 -15.673500 -21.069000
H -6.376000 -13.045200 -18.849200
O -6.351100 -14.785800 -16.343300
H -6.340400 -18.514100 -19.221900
C -6.267300 -15.397100 -20.143300
N -5.899900 -16.569900 -19.403000
C -5.572200 -16.330400 -17.997800
H -5.476200 -14.804400 -20.192700
H -5.257400 -17.189500 -17.619200
H -4.802000 -15.708000 -17.977000
31
Fragment
H -12.592400 -8.982400 -22.530000
H -12.137000 -7.500900 -22.887800
H -11.918200 -9.886000 -20.314200
C -11.822200 -8.360000 -22.509200
N -11.494500 -8.120500 -21.104000
C -11.127100 -9.293300 -20.363700
H -11.054000 -6.176300 -21.285100
O -11.043300 -9.904600 -24.163600
H -11.018400 -11.645200 -21.657700
H -10.907800 -9.016900 -19.437900
C -10.765900 -8.915200 -23.459600
C -10.625800 -6.974200 -20.884600
H -10.557400 -6.815800 -19.909200
H -10.377200 -11.953900 -20.223800
C -10.228100 -11.522900 -21.091700
N -9.988200 -10.087500 -20.890100
H -9.814400 -6.328100 -23.175400
N -9.569400 -8.300500 -23.573000
H -9.448400 -11.926700 -21.528100
N -9.286500 -7.092700 -21.423500
C -9.213700 -7.048500 -22.857100
H -8.868500 -8.547800 -25.445100
C -8.743000 -9.590600 -21.063600
C -8.608900 -8.828400 -24.543200
H -8.600100 -9.807000 -24.494600
H -8.562300 -7.981200 -19.798500
C -8.476900 -8.112300 -20.775900
H -8.291000 -6.797300 -23.113300
O -7.796900 -10.312700 -21.408600
H -7.714800 -8.483600 -24.337900
H -7.531200 -7.931800 -21.009600
62
Fragment
H -9.863200 -16.758600 -19.497300
H -9.679600 -16.206800 -16.169000
O -9.597500 -14.377700 -19.098400
H -9.103400 -17.893100 -17.393700
C -8.917500 -16.578100 -19.731100
H -8.832100 -16.709200 -20.708500
H -8.794300 -14.883400 -16.012400
C -8.785500 -15.862000 -15.963800
C -8.651400 -15.099800 -19.443300
H -8.525900 -16.142600 -15.061800
C -8.180700 -17.641900 -17.649800
N -8.107900 -17.597700 -19.083500
H -7.946000 -12.763700 -18.978900
N -7.825000 -16.389900 -16.933900
H -7.580000 -18.362300 -17.331600
N -7.406200 -14.602900 -19.616800
C -7.166300 -13.167500 -19.415300
H -7.017200 -12.736500 -20.283200
H -6.837000 -17.874600 -20.597800
C -6.768600 -17.716200 -19.622400
C -6.628500 -15.775200 -17.047400
H -6.486600 -15.673500 -21.069000
H -6.376000 -13.045200 -18.849200
O -6.351100 -14.785800 -16.343300
H -6.340400 -18.514100 -19.221900
C -6.267300 -15.397100 -20.143300
N -5.899900 -16.569900 -19.403000
C -5.572200 -16.330400 -17.997800
H -5.476200 -14.804400 -20.192700
H -5.257400 -17.189500 -17.619200
H -4.802000 -15.708000 -17.977000
H -12.592400 -8.982400 -22.530000
H -12.137000 -7.500900 -22.887800
H -11.918200 -9.886000 -20.314200
C -11.822200 -8.360000 -22.509200
N -11.494500 -8.120500 -21.104000
C -11.127100 -9.293300 -20.363700
H -11.054000 -6.176300 -21.285100
O -11.043300 -9.904600 -24.163600
H -11.018400 -11.645200 -21.657700
H -10.907800 -9.016900 -19.437900
C -10.765900 -8.915200 -23.459600
C -10.625800 -6.974200 -20.884600
H -10.557400 -6.815800 -19.909200
H -10.377200 -11.953900 -20.223800
C -10.228100 -11.522900 -21.091700
N -9.988200 -10.087500 -20.890100
H -9.814400 -6.328100 -23.175400
N -9.569400 -8.300500 -23.573000
H -9.448400 -11.926700 -21.528100
N -9.286500 -7.092700 -21.423500
C -9.213700 -7.048500 -22.857100
H -8.868500 -8.547800 -25.445100
C -8.743000 -9.590600 -21.063600
C -8.608900 -8.828400 -24.543200
H -8.600100 -9.807000 -24.494600
H -8.562300 -7.981200 -19.798500
C -8.476900 -8.112300 -20.775900
H -8.291000 -6.797300 -23.113300
O -7.796900 -10.312700 -21.408600
H -7.714800 -8.483600 -24.337900
H -7.531200 -7.931800 -21.009600
