31
Fragment
H -9.863200 -16.758600 -19.497300
H -9.679600 -16.206800 -16.169000
O -9.597500 -14.377700 -19.098400
H -9.103400 -17.893100 -17.393700
C -8.917500 -16.578100 -19.731100
H -8.832100 -16.709200 -20.708500
H -8.794300 -14.883400 -16.012400
C -8.785500 -15.862000 -15.963800
C -8.651400 -15.099800 -19.443300
H -8.525900 -16.142600 -15.061800
C -8.180700 -17.641900 -17.649800
N -8.107900 -17.597700 -19.083500
H -7.946000 -12.763700 -18.978900
N -7.825000 -16.389900 -16.933900
H -7.580000 -18.362300 -17.331600
N -7.406200 -14.602900 -19.616800
C -7.166300 -13.167500 -19.415300
H -7.017200 -12.736500 -20.283200
H -6.837000 -17.874600 -20.597800
C -6.768600 -17.716200 -19.622400
C -6.628500 -15.775200 -17.047400
H -6.486600 -15.673500 -21.069000
H -6.376000 -13.045200 -18.849200
O -6.351100 -14.785800 -16.343300
H -6.340400 -18.514100 -19.221900
C -6.267300 -15.397100 -20.143300
N -5.899900 -16.569900 -19.403000
C -5.572200 -16.330400 -17.997800
H -5.476200 -14.804400 -20.192700
H -5.257400 -17.189500 -17.619200
H -4.802000 -15.708000 -17.977000
31
Fragment
H -4.948100 -14.104400 -26.248500
H -4.764400 -14.656200 -22.920200
O -4.682300 -16.485300 -25.849500
H -4.188300 -12.969900 -24.144800
C -4.002400 -14.284900 -26.482200
H -3.916900 -14.153800 -27.459700
H -3.879100 -15.979600 -22.763600
C -3.870300 -15.001000 -22.715000
C -3.736200 -15.763200 -26.194500
H -3.610700 -14.720400 -21.813000
C -3.265500 -13.221100 -24.401000
N -3.192800 -13.265300 -25.834700
H -3.030900 -18.099300 -25.730000
N -2.909800 -14.473100 -23.685100
H -2.664900 -12.500700 -24.082700
N -2.491000 -16.260100 -26.368000
C -2.251100 -17.695500 -26.166400
H -2.102000 -18.126500 -27.034300
H -1.921900 -12.988400 -27.348900
C -1.853400 -13.146800 -26.373500
C -1.713400 -15.087800 -23.798500
H -1.571400 -15.189500 -27.820200
H -1.460800 -17.817800 -25.600400
O -1.436000 -16.077200 -23.094500
H -1.425300 -12.348900 -25.973100
C -1.352200 -15.465900 -26.894500
N -0.984700 -14.293100 -26.154100
C -0.657000 -14.532600 -24.748900
H -0.561100 -16.058600 -26.943900
H -0.342300 -13.673500 -24.370300
H 0.113100 -15.155000 -24.728100
62
Fragment
H -9.863200 -16.758600 -19.497300
H -9.679600 -16.206800 -16.169000
O -9.597500 -14.377700 -19.098400
H -9.103400 -17.893100 -17.393700
C -8.917500 -16.578100 -19.731100
H -8.832100 -16.709200 -20.708500
H -8.794300 -14.883400 -16.012400
C -8.785500 -15.862000 -15.963800
C -8.651400 -15.099800 -19.443300
H -8.525900 -16.142600 -15.061800
C -8.180700 -17.641900 -17.649800
N -8.107900 -17.597700 -19.083500
H -7.946000 -12.763700 -18.978900
N -7.825000 -16.389900 -16.933900
H -7.580000 -18.362300 -17.331600
N -7.406200 -14.602900 -19.616800
C -7.166300 -13.167500 -19.415300
H -7.017200 -12.736500 -20.283200
H -6.837000 -17.874600 -20.597800
C -6.768600 -17.716200 -19.622400
C -6.628500 -15.775200 -17.047400
H -6.486600 -15.673500 -21.069000
H -6.376000 -13.045200 -18.849200
O -6.351100 -14.785800 -16.343300
H -6.340400 -18.514100 -19.221900
C -6.267300 -15.397100 -20.143300
N -5.899900 -16.569900 -19.403000
C -5.572200 -16.330400 -17.997800
H -5.476200 -14.804400 -20.192700
H -5.257400 -17.189500 -17.619200
H -4.802000 -15.708000 -17.977000
H -4.948100 -14.104400 -26.248500
H -4.764400 -14.656200 -22.920200
O -4.682300 -16.485300 -25.849500
H -4.188300 -12.969900 -24.144800
C -4.002400 -14.284900 -26.482200
H -3.916900 -14.153800 -27.459700
H -3.879100 -15.979600 -22.763600
C -3.870300 -15.001000 -22.715000
C -3.736200 -15.763200 -26.194500
H -3.610700 -14.720400 -21.813000
C -3.265500 -13.221100 -24.401000
N -3.192800 -13.265300 -25.834700
H -3.030900 -18.099300 -25.730000
N -2.909800 -14.473100 -23.685100
H -2.664900 -12.500700 -24.082700
N -2.491000 -16.260100 -26.368000
C -2.251100 -17.695500 -26.166400
H -2.102000 -18.126500 -27.034300
H -1.921900 -12.988400 -27.348900
C -1.853400 -13.146800 -26.373500
C -1.713400 -15.087800 -23.798500
H -1.571400 -15.189500 -27.820200
H -1.460800 -17.817800 -25.600400
O -1.436000 -16.077200 -23.094500
H -1.425300 -12.348900 -25.973100
C -1.352200 -15.465900 -26.894500
N -0.984700 -14.293100 -26.154100
C -0.657000 -14.532600 -24.748900
H -0.561100 -16.058600 -26.943900
H -0.342300 -13.673500 -24.370300
H 0.113100 -15.155000 -24.728100
