31
Fragment
H -9.863200 -16.758600 -19.497300
H -9.679600 -16.206800 -16.169000
O -9.597500 -14.377700 -19.098400
H -9.103400 -17.893100 -17.393700
C -8.917500 -16.578100 -19.731100
H -8.832100 -16.709200 -20.708500
H -8.794300 -14.883400 -16.012400
C -8.785500 -15.862000 -15.963800
C -8.651400 -15.099800 -19.443300
H -8.525900 -16.142600 -15.061800
C -8.180700 -17.641900 -17.649800
N -8.107900 -17.597700 -19.083500
H -7.946000 -12.763700 -18.978900
N -7.825000 -16.389900 -16.933900
H -7.580000 -18.362300 -17.331600
N -7.406200 -14.602900 -19.616800
C -7.166300 -13.167500 -19.415300
H -7.017200 -12.736500 -20.283200
H -6.837000 -17.874600 -20.597800
C -6.768600 -17.716200 -19.622400
C -6.628500 -15.775200 -17.047400
H -6.486600 -15.673500 -21.069000
H -6.376000 -13.045200 -18.849200
O -6.351100 -14.785800 -16.343300
H -6.340400 -18.514100 -19.221900
C -6.267300 -15.397100 -20.143300
N -5.899900 -16.569900 -19.403000
C -5.572200 -16.330400 -17.997800
H -5.476200 -14.804400 -20.192700
H -5.257400 -17.189500 -17.619200
H -4.802000 -15.708000 -17.977000
31
Fragment
H -10.809600 -9.535400 -15.778800
H -10.354200 -11.016900 -16.136600
H -10.135400 -8.631800 -13.563100
C -10.039500 -10.157800 -15.758000
N -9.711800 -10.397300 -14.352800
C -9.344300 -9.224500 -13.612500
H -9.271200 -12.341500 -14.533900
O -9.260500 -8.613200 -17.412500
H -9.235700 -6.872600 -14.906600
H -9.125100 -9.500900 -12.686800
C -8.983100 -9.602600 -16.708400
C -8.843000 -11.543600 -14.133400
H -8.774600 -11.702000 -13.158000
H -8.594500 -6.563900 -13.472600
C -8.445400 -6.994900 -14.340500
N -8.205500 -8.430300 -14.139000
H -8.031600 -12.189700 -16.424200
N -7.786700 -10.217300 -16.821900
H -7.665600 -6.591100 -14.776900
N -7.503700 -11.425100 -14.672300
C -7.431000 -11.469300 -16.106000
H -7.085800 -9.970000 -18.694000
C -6.960300 -8.927200 -14.312500
C -6.826200 -9.689400 -17.792000
H -6.817400 -8.710800 -17.743400
H -6.779600 -10.536600 -13.047300
C -6.694100 -10.405500 -14.024700
H -6.508200 -11.720500 -16.362100
O -6.014200 -8.205100 -14.657400
H -5.932100 -10.034200 -17.586800
H -5.748400 -10.586000 -14.258400
62
Fragment
H -9.863200 -16.758600 -19.497300
H -9.679600 -16.206800 -16.169000
O -9.597500 -14.377700 -19.098400
H -9.103400 -17.893100 -17.393700
C -8.917500 -16.578100 -19.731100
H -8.832100 -16.709200 -20.708500
H -8.794300 -14.883400 -16.012400
C -8.785500 -15.862000 -15.963800
C -8.651400 -15.099800 -19.443300
H -8.525900 -16.142600 -15.061800
C -8.180700 -17.641900 -17.649800
N -8.107900 -17.597700 -19.083500
H -7.946000 -12.763700 -18.978900
N -7.825000 -16.389900 -16.933900
H -7.580000 -18.362300 -17.331600
N -7.406200 -14.602900 -19.616800
C -7.166300 -13.167500 -19.415300
H -7.017200 -12.736500 -20.283200
H -6.837000 -17.874600 -20.597800
C -6.768600 -17.716200 -19.622400
C -6.628500 -15.775200 -17.047400
H -6.486600 -15.673500 -21.069000
H -6.376000 -13.045200 -18.849200
O -6.351100 -14.785800 -16.343300
H -6.340400 -18.514100 -19.221900
C -6.267300 -15.397100 -20.143300
N -5.899900 -16.569900 -19.403000
C -5.572200 -16.330400 -17.997800
H -5.476200 -14.804400 -20.192700
H -5.257400 -17.189500 -17.619200
H -4.802000 -15.708000 -17.977000
H -10.809600 -9.535400 -15.778800
H -10.354200 -11.016900 -16.136600
H -10.135400 -8.631800 -13.563100
C -10.039500 -10.157800 -15.758000
N -9.711800 -10.397300 -14.352800
C -9.344300 -9.224500 -13.612500
H -9.271200 -12.341500 -14.533900
O -9.260500 -8.613200 -17.412500
H -9.235700 -6.872600 -14.906600
H -9.125100 -9.500900 -12.686800
C -8.983100 -9.602600 -16.708400
C -8.843000 -11.543600 -14.133400
H -8.774600 -11.702000 -13.158000
H -8.594500 -6.563900 -13.472600
C -8.445400 -6.994900 -14.340500
N -8.205500 -8.430300 -14.139000
H -8.031600 -12.189700 -16.424200
N -7.786700 -10.217300 -16.821900
H -7.665600 -6.591100 -14.776900
N -7.503700 -11.425100 -14.672300
C -7.431000 -11.469300 -16.106000
H -7.085800 -9.970000 -18.694000
C -6.960300 -8.927200 -14.312500
C -6.826200 -9.689400 -17.792000
H -6.817400 -8.710800 -17.743400
H -6.779600 -10.536600 -13.047300
C -6.694100 -10.405500 -14.024700
H -6.508200 -11.720500 -16.362100
O -6.014200 -8.205100 -14.657400
H -5.932100 -10.034200 -17.586800
H -5.748400 -10.586000 -14.258400
