21
Fragment
H -14.475100 -10.076500 -17.583100
H -14.426500 -11.523100 -18.275600
C -13.887800 -10.788100 -17.978400
H -13.361100 -11.046500 -20.984100
H -13.262100 -11.113400 -17.285800
N -13.168500 -10.257200 -19.132000
N -13.065900 -8.172500 -18.135800
H -12.948400 -6.305100 -17.420400
H -12.947400 -12.091700 -19.829000
C -12.823800 -11.187500 -20.194400
C -12.813500 -8.966800 -19.206400
C -12.729100 -6.873100 -18.202100
C -12.204200 -8.382400 -20.356400
N -12.149700 -6.208900 -19.190600
C -11.908600 -7.015700 -20.255000
H -11.853500 -11.096600 -20.433200
H -11.848200 -9.574700 -22.139300
C -11.794400 -8.715000 -21.679600
N -11.370900 -6.627000 -21.425600
N -11.300500 -7.667700 -22.313600
H -11.076700 -5.778300 -21.707500
3
Fragment
O -10.719000 -4.118100 -22.357800
H -10.635700 -4.089100 -23.230000
H -10.068500 -3.553900 -22.004800
24
Fragment
H -14.475100 -10.076500 -17.583100
H -14.426500 -11.523100 -18.275600
C -13.887800 -10.788100 -17.978400
H -13.361100 -11.046500 -20.984100
H -13.262100 -11.113400 -17.285800
N -13.168500 -10.257200 -19.132000
N -13.065900 -8.172500 -18.135800
H -12.948400 -6.305100 -17.420400
H -12.947400 -12.091700 -19.829000
C -12.823800 -11.187500 -20.194400
C -12.813500 -8.966800 -19.206400
C -12.729100 -6.873100 -18.202100
C -12.204200 -8.382400 -20.356400
N -12.149700 -6.208900 -19.190600
C -11.908600 -7.015700 -20.255000
H -11.853500 -11.096600 -20.433200
H -11.848200 -9.574700 -22.139300
C -11.794400 -8.715000 -21.679600
N -11.370900 -6.627000 -21.425600
N -11.300500 -7.667700 -22.313600
H -11.076700 -5.778300 -21.707500
O -10.719000 -4.118100 -22.357800
H -10.635700 -4.089100 -23.230000
H -10.068500 -3.553900 -22.004800
