21
Fragment
H -14.475100 -10.076500 -17.583100
H -14.426500 -11.523100 -18.275600
C -13.887800 -10.788100 -17.978400
H -13.361100 -11.046500 -20.984100
H -13.262100 -11.113400 -17.285800
N -13.168500 -10.257200 -19.132000
N -13.065900 -8.172500 -18.135800
H -12.948400 -6.305100 -17.420400
H -12.947400 -12.091700 -19.829000
C -12.823800 -11.187500 -20.194400
C -12.813500 -8.966800 -19.206400
C -12.729100 -6.873100 -18.202100
C -12.204200 -8.382400 -20.356400
N -12.149700 -6.208900 -19.190600
C -11.908600 -7.015700 -20.255000
H -11.853500 -11.096600 -20.433200
H -11.848200 -9.574700 -22.139300
C -11.794400 -8.715000 -21.679600
N -11.370900 -6.627000 -21.425600
N -11.300500 -7.667700 -22.313600
H -11.076700 -5.778300 -21.707500
21
Fragment
H -19.216000 -9.959400 -13.340800
N -18.992200 -11.848800 -12.734700
N -18.921700 -10.808100 -13.622700
C -18.498300 -12.896100 -13.368700
H -18.444400 -13.755800 -12.909000
H -18.439100 -15.277700 -14.615200
C -18.384000 -11.196800 -14.793300
N -18.142900 -10.390000 -15.857700
C -18.088500 -12.563500 -14.692000
C -17.563500 -11.054200 -16.846200
C -17.479200 -13.147900 -15.842000
C -17.468900 -15.368600 -14.853900
H -17.345300 -16.272800 -15.219400
H -17.344300 -10.486200 -17.627900
N -17.226700 -12.353600 -16.912500
N -17.124100 -14.438300 -15.916300
H -17.030600 -15.294500 -17.762500
H -16.931600 -15.227600 -14.064200
C -16.404800 -14.969200 -17.069900
H -15.866200 -15.704200 -16.772700
H -15.817500 -14.257600 -17.465300
42
Fragment
H -14.475100 -10.076500 -17.583100
H -14.426500 -11.523100 -18.275600
C -13.887800 -10.788100 -17.978400
H -13.361100 -11.046500 -20.984100
H -13.262100 -11.113400 -17.285800
N -13.168500 -10.257200 -19.132000
N -13.065900 -8.172500 -18.135800
H -12.948400 -6.305100 -17.420400
H -12.947400 -12.091700 -19.829000
C -12.823800 -11.187500 -20.194400
C -12.813500 -8.966800 -19.206400
C -12.729100 -6.873100 -18.202100
C -12.204200 -8.382400 -20.356400
N -12.149700 -6.208900 -19.190600
C -11.908600 -7.015700 -20.255000
H -11.853500 -11.096600 -20.433200
H -11.848200 -9.574700 -22.139300
C -11.794400 -8.715000 -21.679600
N -11.370900 -6.627000 -21.425600
N -11.300500 -7.667700 -22.313600
H -11.076700 -5.778300 -21.707500
H -19.216000 -9.959400 -13.340800
N -18.992200 -11.848800 -12.734700
N -18.921700 -10.808100 -13.622700
C -18.498300 -12.896100 -13.368700
H -18.444400 -13.755800 -12.909000
H -18.439100 -15.277700 -14.615200
C -18.384000 -11.196800 -14.793300
N -18.142900 -10.390000 -15.857700
C -18.088500 -12.563500 -14.692000
C -17.563500 -11.054200 -16.846200
C -17.479200 -13.147900 -15.842000
C -17.468900 -15.368600 -14.853900
H -17.345300 -16.272800 -15.219400
H -17.344300 -10.486200 -17.627900
N -17.226700 -12.353600 -16.912500
N -17.124100 -14.438300 -15.916300
H -17.030600 -15.294500 -17.762500
H -16.931600 -15.227600 -14.064200
C -16.404800 -14.969200 -17.069900
H -15.866200 -15.704200 -16.772700
H -15.817500 -14.257600 -17.465300
