21
Fragment
H -14.475100 -10.076500 -17.583100
H -14.426500 -11.523100 -18.275600
C -13.887800 -10.788100 -17.978400
H -13.361100 -11.046500 -20.984100
H -13.262100 -11.113400 -17.285800
N -13.168500 -10.257200 -19.132000
N -13.065900 -8.172500 -18.135800
H -12.948400 -6.305100 -17.420400
H -12.947400 -12.091700 -19.829000
C -12.823800 -11.187500 -20.194400
C -12.813500 -8.966800 -19.206400
C -12.729100 -6.873100 -18.202100
C -12.204200 -8.382400 -20.356400
N -12.149700 -6.208900 -19.190600
C -11.908600 -7.015700 -20.255000
H -11.853500 -11.096600 -20.433200
H -11.848200 -9.574700 -22.139300
C -11.794400 -8.715000 -21.679600
N -11.370900 -6.627000 -21.425600
N -11.300500 -7.667700 -22.313600
H -11.076700 -5.778300 -21.707500
21
Fragment
H -17.127200 -10.829000 -10.573400
H -17.078600 -9.382400 -11.265900
C -16.539900 -10.117400 -10.968700
H -16.013200 -9.859000 -13.974500
H -15.914200 -9.792100 -10.276200
N -15.820600 -10.648300 -12.122400
N -15.718000 -12.733000 -11.126200
H -15.600500 -14.600400 -10.410800
H -15.599500 -8.813800 -12.819300
C -15.475900 -9.718000 -13.184800
C -15.465600 -11.938700 -12.196700
C -15.381200 -14.032400 -11.192500
C -14.856300 -12.523100 -13.346700
N -14.801800 -14.696600 -12.181000
C -14.560700 -13.889800 -13.245300
H -14.505600 -9.808900 -13.423500
H -14.500300 -11.330800 -15.129700
C -14.446500 -12.190500 -14.670000
N -14.023000 -14.278500 -14.415900
N -13.952600 -13.237800 -15.303900
H -13.728800 -15.127200 -14.697900
42
Fragment
H -14.475100 -10.076500 -17.583100
H -14.426500 -11.523100 -18.275600
C -13.887800 -10.788100 -17.978400
H -13.361100 -11.046500 -20.984100
H -13.262100 -11.113400 -17.285800
N -13.168500 -10.257200 -19.132000
N -13.065900 -8.172500 -18.135800
H -12.948400 -6.305100 -17.420400
H -12.947400 -12.091700 -19.829000
C -12.823800 -11.187500 -20.194400
C -12.813500 -8.966800 -19.206400
C -12.729100 -6.873100 -18.202100
C -12.204200 -8.382400 -20.356400
N -12.149700 -6.208900 -19.190600
C -11.908600 -7.015700 -20.255000
H -11.853500 -11.096600 -20.433200
H -11.848200 -9.574700 -22.139300
C -11.794400 -8.715000 -21.679600
N -11.370900 -6.627000 -21.425600
N -11.300500 -7.667700 -22.313600
H -11.076700 -5.778300 -21.707500
H -17.127200 -10.829000 -10.573400
H -17.078600 -9.382400 -11.265900
C -16.539900 -10.117400 -10.968700
H -16.013200 -9.859000 -13.974500
H -15.914200 -9.792100 -10.276200
N -15.820600 -10.648300 -12.122400
N -15.718000 -12.733000 -11.126200
H -15.600500 -14.600400 -10.410800
H -15.599500 -8.813800 -12.819300
C -15.475900 -9.718000 -13.184800
C -15.465600 -11.938700 -12.196700
C -15.381200 -14.032400 -11.192500
C -14.856300 -12.523100 -13.346700
N -14.801800 -14.696600 -12.181000
C -14.560700 -13.889800 -13.245300
H -14.505600 -9.808900 -13.423500
H -14.500300 -11.330800 -15.129700
C -14.446500 -12.190500 -14.670000
N -14.023000 -14.278500 -14.415900
N -13.952600 -13.237800 -15.303900
H -13.728800 -15.127200 -14.697900
