21
Fragment
H -14.475100 -10.076500 -17.583100
H -14.426500 -11.523100 -18.275600
C -13.887800 -10.788100 -17.978400
H -13.361100 -11.046500 -20.984100
H -13.262100 -11.113400 -17.285800
N -13.168500 -10.257200 -19.132000
N -13.065900 -8.172500 -18.135800
H -12.948400 -6.305100 -17.420400
H -12.947400 -12.091700 -19.829000
C -12.823800 -11.187500 -20.194400
C -12.813500 -8.966800 -19.206400
C -12.729100 -6.873100 -18.202100
C -12.204200 -8.382400 -20.356400
N -12.149700 -6.208900 -19.190600
C -11.908600 -7.015700 -20.255000
H -11.853500 -11.096600 -20.433200
H -11.848200 -9.574700 -22.139300
C -11.794400 -8.715000 -21.679600
N -11.370900 -6.627000 -21.425600
N -11.300500 -7.667700 -22.313600
H -11.076700 -5.778300 -21.707500
21
Fragment
H -14.475100 -1.714300 -17.583100
H -14.426500 -3.160900 -18.275600
C -13.887800 -2.425900 -17.978400
H -13.361100 -2.684300 -20.984100
H -13.262100 -2.751200 -17.285800
N -13.168500 -1.895000 -19.132000
N -13.065900 0.189700 -18.135800
H -12.948400 2.057100 -17.420400
H -12.947400 -3.729500 -19.829000
C -12.823800 -2.825300 -20.194400
C -12.813500 -0.604600 -19.206400
C -12.729100 1.489100 -18.202100
C -12.204200 -0.020200 -20.356400
N -12.149700 2.153300 -19.190600
C -11.908600 1.346500 -20.255000
H -11.853500 -2.734400 -20.433200
H -11.848200 -1.212500 -22.139300
C -11.794400 -0.352800 -21.679600
N -11.370900 1.735200 -21.425600
N -11.300500 0.694500 -22.313600
H -11.076700 2.583900 -21.707500
42
Fragment
H -14.475100 -10.076500 -17.583100
H -14.426500 -11.523100 -18.275600
C -13.887800 -10.788100 -17.978400
H -13.361100 -11.046500 -20.984100
H -13.262100 -11.113400 -17.285800
N -13.168500 -10.257200 -19.132000
N -13.065900 -8.172500 -18.135800
H -12.948400 -6.305100 -17.420400
H -12.947400 -12.091700 -19.829000
C -12.823800 -11.187500 -20.194400
C -12.813500 -8.966800 -19.206400
C -12.729100 -6.873100 -18.202100
C -12.204200 -8.382400 -20.356400
N -12.149700 -6.208900 -19.190600
C -11.908600 -7.015700 -20.255000
H -11.853500 -11.096600 -20.433200
H -11.848200 -9.574700 -22.139300
C -11.794400 -8.715000 -21.679600
N -11.370900 -6.627000 -21.425600
N -11.300500 -7.667700 -22.313600
H -11.076700 -5.778300 -21.707500
H -14.475100 -1.714300 -17.583100
H -14.426500 -3.160900 -18.275600
C -13.887800 -2.425900 -17.978400
H -13.361100 -2.684300 -20.984100
H -13.262100 -2.751200 -17.285800
N -13.168500 -1.895000 -19.132000
N -13.065900 0.189700 -18.135800
H -12.948400 2.057100 -17.420400
H -12.947400 -3.729500 -19.829000
C -12.823800 -2.825300 -20.194400
C -12.813500 -0.604600 -19.206400
C -12.729100 1.489100 -18.202100
C -12.204200 -0.020200 -20.356400
N -12.149700 2.153300 -19.190600
C -11.908600 1.346500 -20.255000
H -11.853500 -2.734400 -20.433200
H -11.848200 -1.212500 -22.139300
C -11.794400 -0.352800 -21.679600
N -11.370900 1.735200 -21.425600
N -11.300500 0.694500 -22.313600
H -11.076700 2.583900 -21.707500
