21
Fragment
H -14.475100 -10.076500 -17.583100
H -14.426500 -11.523100 -18.275600
C -13.887800 -10.788100 -17.978400
H -13.361100 -11.046500 -20.984100
H -13.262100 -11.113400 -17.285800
N -13.168500 -10.257200 -19.132000
N -13.065900 -8.172500 -18.135800
H -12.948400 -6.305100 -17.420400
H -12.947400 -12.091700 -19.829000
C -12.823800 -11.187500 -20.194400
C -12.813500 -8.966800 -19.206400
C -12.729100 -6.873100 -18.202100
C -12.204200 -8.382400 -20.356400
N -12.149700 -6.208900 -19.190600
C -11.908600 -7.015700 -20.255000
H -11.853500 -11.096600 -20.433200
H -11.848200 -9.574700 -22.139300
C -11.794400 -8.715000 -21.679600
N -11.370900 -6.627000 -21.425600
N -11.300500 -7.667700 -22.313600
H -11.076700 -5.778300 -21.707500
21
Fragment
H -17.127200 -2.466800 -10.573400
H -17.078600 -1.020200 -11.265900
C -16.539900 -1.755200 -10.968700
H -16.013200 -1.496800 -13.974500
H -15.914200 -1.429900 -10.276200
N -15.820600 -2.286100 -12.122400
N -15.718000 -4.370800 -11.126200
H -15.600500 -6.238200 -10.410800
H -15.599500 -0.451600 -12.819300
C -15.475900 -1.355800 -13.184800
C -15.465600 -3.576500 -12.196700
C -15.381200 -5.670200 -11.192500
C -14.856300 -4.160900 -13.346700
N -14.801800 -6.334400 -12.181000
C -14.560700 -5.527600 -13.245300
H -14.505600 -1.446700 -13.423500
H -14.500300 -2.968600 -15.129700
C -14.446500 -3.828300 -14.670000
N -14.023000 -5.916300 -14.415900
N -13.952600 -4.875600 -15.303900
H -13.728800 -6.765000 -14.697900
42
Fragment
H -14.475100 -10.076500 -17.583100
H -14.426500 -11.523100 -18.275600
C -13.887800 -10.788100 -17.978400
H -13.361100 -11.046500 -20.984100
H -13.262100 -11.113400 -17.285800
N -13.168500 -10.257200 -19.132000
N -13.065900 -8.172500 -18.135800
H -12.948400 -6.305100 -17.420400
H -12.947400 -12.091700 -19.829000
C -12.823800 -11.187500 -20.194400
C -12.813500 -8.966800 -19.206400
C -12.729100 -6.873100 -18.202100
C -12.204200 -8.382400 -20.356400
N -12.149700 -6.208900 -19.190600
C -11.908600 -7.015700 -20.255000
H -11.853500 -11.096600 -20.433200
H -11.848200 -9.574700 -22.139300
C -11.794400 -8.715000 -21.679600
N -11.370900 -6.627000 -21.425600
N -11.300500 -7.667700 -22.313600
H -11.076700 -5.778300 -21.707500
H -17.127200 -2.466800 -10.573400
H -17.078600 -1.020200 -11.265900
C -16.539900 -1.755200 -10.968700
H -16.013200 -1.496800 -13.974500
H -15.914200 -1.429900 -10.276200
N -15.820600 -2.286100 -12.122400
N -15.718000 -4.370800 -11.126200
H -15.600500 -6.238200 -10.410800
H -15.599500 -0.451600 -12.819300
C -15.475900 -1.355800 -13.184800
C -15.465600 -3.576500 -12.196700
C -15.381200 -5.670200 -11.192500
C -14.856300 -4.160900 -13.346700
N -14.801800 -6.334400 -12.181000
C -14.560700 -5.527600 -13.245300
H -14.505600 -1.446700 -13.423500
H -14.500300 -2.968600 -15.129700
C -14.446500 -3.828300 -14.670000
N -14.023000 -5.916300 -14.415900
N -13.952600 -4.875600 -15.303900
H -13.728800 -6.765000 -14.697900
