3
Fragment
H -6.758900 -16.527700 -15.714700
O -6.147600 -16.141600 -15.288800
H -5.409200 -16.279300 -15.709300
22
Fragment
H -4.014900 -10.197600 -17.512900
H -3.823300 -11.893300 -17.906900
N -3.441200 -11.114200 -17.478400
O -3.334100 -13.784400 -16.666100
H -3.116900 -15.324700 -14.581800
C -2.995100 -11.520300 -16.183500
H -2.955800 -8.826400 -16.230400
C -2.938400 -12.887800 -15.898400
N -2.569800 -9.278400 -15.504500
C -2.547400 -10.587000 -15.261900
H -2.433200 -8.661100 -14.980700
N -2.392600 -13.263000 -14.663400
H -2.319200 -9.635600 -12.907900
H -2.318600 -14.796700 -13.590000
C -2.272300 -14.695400 -14.374500
N -2.069000 -11.028100 -14.037800
C -1.985800 -12.366200 -13.702400
H -1.786500 -15.123000 -14.921700
C -1.671700 -10.056000 -13.018900
O -1.581000 -12.740800 -12.603700
H -1.496800 -10.545300 -12.199100
H -0.986900 -9.513800 -13.390200
25
Fragment
H -6.758900 -16.527700 -15.714700
O -6.147600 -16.141600 -15.288800
H -5.409200 -16.279300 -15.709300
H -4.014900 -10.197600 -17.512900
H -3.823300 -11.893300 -17.906900
N -3.441200 -11.114200 -17.478400
O -3.334100 -13.784400 -16.666100
H -3.116900 -15.324700 -14.581800
C -2.995100 -11.520300 -16.183500
H -2.955800 -8.826400 -16.230400
C -2.938400 -12.887800 -15.898400
N -2.569800 -9.278400 -15.504500
C -2.547400 -10.587000 -15.261900
H -2.433200 -8.661100 -14.980700
N -2.392600 -13.263000 -14.663400
H -2.319200 -9.635600 -12.907900
H -2.318600 -14.796700 -13.590000
C -2.272300 -14.695400 -14.374500
N -2.069000 -11.028100 -14.037800
C -1.985800 -12.366200 -13.702400
H -1.786500 -15.123000 -14.921700
C -1.671700 -10.056000 -13.018900
O -1.581000 -12.740800 -12.603700
H -1.496800 -10.545300 -12.199100
H -0.986900 -9.513800 -13.390200
