3
Fragment
H -6.758900 -16.527700 -15.714700
O -6.147600 -16.141600 -15.288800
H -5.409200 -16.279300 -15.709300
22
Fragment
H -7.376500 -24.863200 -16.037000
H -6.866500 -23.831700 -17.228000
O -6.782400 -21.636200 -16.823500
C -6.691700 -24.321000 -16.408300
H -6.576900 -19.254000 -14.505400
C -6.377600 -22.010800 -15.724800
N -6.294400 -23.348900 -15.389300
C -6.091100 -19.681600 -15.052700
H -6.044800 -19.580300 -15.837200
H -6.044200 -24.741400 -16.519200
N -5.970800 -21.114000 -14.763800
H -5.930200 -25.715900 -14.446500
C -5.816000 -23.790000 -14.165300
N -5.793600 -25.098600 -13.922700
C -5.424900 -21.489200 -13.528800
H -5.407600 -25.550600 -13.196800
C -5.368200 -22.856700 -13.243700
H -5.246500 -19.052300 -14.845400
O -5.029300 -20.592600 -12.761100
N -4.922200 -23.262800 -11.948800
H -4.540000 -22.483700 -11.520300
H -4.348500 -24.179400 -11.914300
25
Fragment
H -6.758900 -16.527700 -15.714700
O -6.147600 -16.141600 -15.288800
H -5.409200 -16.279300 -15.709300
H -7.376500 -24.863200 -16.037000
H -6.866500 -23.831700 -17.228000
O -6.782400 -21.636200 -16.823500
C -6.691700 -24.321000 -16.408300
H -6.576900 -19.254000 -14.505400
C -6.377600 -22.010800 -15.724800
N -6.294400 -23.348900 -15.389300
C -6.091100 -19.681600 -15.052700
H -6.044800 -19.580300 -15.837200
H -6.044200 -24.741400 -16.519200
N -5.970800 -21.114000 -14.763800
H -5.930200 -25.715900 -14.446500
C -5.816000 -23.790000 -14.165300
N -5.793600 -25.098600 -13.922700
C -5.424900 -21.489200 -13.528800
H -5.407600 -25.550600 -13.196800
C -5.368200 -22.856700 -13.243700
H -5.246500 -19.052300 -14.845400
O -5.029300 -20.592600 -12.761100
N -4.922200 -23.262800 -11.948800
H -4.540000 -22.483700 -11.520300
H -4.348500 -24.179400 -11.914300
