17
Fragment
H -5.137400 -9.499200 -9.215100
H -5.098600 -8.047600 -9.556900
N -4.696900 -8.745400 -9.220500
O -4.010200 -5.951200 -9.661900
C -3.463600 -8.638900 -8.691400
H -3.049800 -10.598100 -8.073400
H -2.993200 -3.478200 -8.798100
C -2.960100 -6.175700 -9.025700
N -2.792000 -9.683300 -8.163800
C -2.616800 -7.512100 -8.559500
H -2.573400 -3.997900 -10.158400
N -2.314200 -3.863900 -9.249200
N -2.099800 -5.170900 -8.731200
N -1.541100 -9.326600 -7.694300
C -1.458100 -8.020200 -7.933300
H -1.252100 -5.351500 -8.394700
H -0.672900 -7.544000 -7.683800
17
Fragment
H 1.275400 -8.283100 -5.988400
H 1.854600 -10.475700 -5.277500
C 2.060600 -7.807000 -5.738900
N 2.143700 -6.500500 -5.977900
N 2.702400 -10.656300 -4.941000
N 2.916800 -11.963200 -4.423000
H 3.175900 -11.829200 -3.513800
C 3.219400 -8.315000 -5.112700
N 3.394600 -6.143800 -5.508400
C 3.562700 -9.651400 -4.646500
H 3.595800 -12.348900 -4.874100
H 3.652300 -5.229000 -5.598800
C 4.066100 -7.188200 -4.980800
O 4.612800 -9.875900 -4.010300
N 5.299400 -7.081700 -4.451700
H 5.701100 -7.779500 -4.115300
H 5.740000 -6.327900 -4.457100
34
Fragment
H -5.137400 -9.499200 -9.215100
H -5.098600 -8.047600 -9.556900
N -4.696900 -8.745400 -9.220500
O -4.010200 -5.951200 -9.661900
C -3.463600 -8.638900 -8.691400
H -3.049800 -10.598100 -8.073400
H -2.993200 -3.478200 -8.798100
C -2.960100 -6.175700 -9.025700
N -2.792000 -9.683300 -8.163800
C -2.616800 -7.512100 -8.559500
H -2.573400 -3.997900 -10.158400
N -2.314200 -3.863900 -9.249200
N -2.099800 -5.170900 -8.731200
N -1.541100 -9.326600 -7.694300
C -1.458100 -8.020200 -7.933300
H -1.252100 -5.351500 -8.394700
H -0.672900 -7.544000 -7.683800
H 1.275400 -8.283100 -5.988400
H 1.854600 -10.475700 -5.277500
C 2.060600 -7.807000 -5.738900
N 2.143700 -6.500500 -5.977900
N 2.702400 -10.656300 -4.941000
N 2.916800 -11.963200 -4.423000
H 3.175900 -11.829200 -3.513800
C 3.219400 -8.315000 -5.112700
N 3.394600 -6.143800 -5.508400
C 3.562700 -9.651400 -4.646500
H 3.595800 -12.348900 -4.874100
H 3.652300 -5.229000 -5.598800
C 4.066100 -7.188200 -4.980800
O 4.612800 -9.875900 -4.010300
N 5.299400 -7.081700 -4.451700
H 5.701100 -7.779500 -4.115300
H 5.740000 -6.327900 -4.457100
