17
Fragment
H -5.137400 -9.499200 -9.215100
H -5.098600 -8.047600 -9.556900
N -4.696900 -8.745400 -9.220500
O -4.010200 -5.951200 -9.661900
C -3.463600 -8.638900 -8.691400
H -3.049800 -10.598100 -8.073400
H -2.993200 -3.478200 -8.798100
C -2.960100 -6.175700 -9.025700
N -2.792000 -9.683300 -8.163800
C -2.616800 -7.512100 -8.559500
H -2.573400 -3.997900 -10.158400
N -2.314200 -3.863900 -9.249200
N -2.099800 -5.170900 -8.731200
N -1.541100 -9.326600 -7.694300
C -1.458100 -8.020200 -7.933300
H -1.252100 -5.351500 -8.394700
H -0.672900 -7.544000 -7.683800
17
Fragment
H -2.235400 -16.800900 -9.215100
H -2.196600 -15.349200 -9.556900
N -1.794900 -16.047100 -9.220500
O -1.108200 -13.252800 -9.661900
C -0.561600 -15.940600 -8.691400
H -0.147800 -17.899800 -8.073400
H -0.091200 -10.779800 -8.798100
C -0.058100 -13.477400 -9.025700
N 0.110000 -16.985000 -8.163800
C 0.285100 -14.813700 -8.559500
H 0.328600 -11.299600 -10.158400
N 0.587700 -11.165600 -9.249200
N 0.802200 -12.472500 -8.731200
N 1.360800 -16.628200 -7.694300
C 1.443900 -15.321800 -7.933300
H 1.649900 -12.653100 -8.394700
H 2.229100 -14.845700 -7.683800
34
Fragment
H -5.137400 -9.499200 -9.215100
H -5.098600 -8.047600 -9.556900
N -4.696900 -8.745400 -9.220500
O -4.010200 -5.951200 -9.661900
C -3.463600 -8.638900 -8.691400
H -3.049800 -10.598100 -8.073400
H -2.993200 -3.478200 -8.798100
C -2.960100 -6.175700 -9.025700
N -2.792000 -9.683300 -8.163800
C -2.616800 -7.512100 -8.559500
H -2.573400 -3.997900 -10.158400
N -2.314200 -3.863900 -9.249200
N -2.099800 -5.170900 -8.731200
N -1.541100 -9.326600 -7.694300
C -1.458100 -8.020200 -7.933300
H -1.252100 -5.351500 -8.394700
H -0.672900 -7.544000 -7.683800
H -2.235400 -16.800900 -9.215100
H -2.196600 -15.349200 -9.556900
N -1.794900 -16.047100 -9.220500
O -1.108200 -13.252800 -9.661900
C -0.561600 -15.940600 -8.691400
H -0.147800 -17.899800 -8.073400
H -0.091200 -10.779800 -8.798100
C -0.058100 -13.477400 -9.025700
N 0.110000 -16.985000 -8.163800
C 0.285100 -14.813700 -8.559500
H 0.328600 -11.299600 -10.158400
N 0.587700 -11.165600 -9.249200
N 0.802200 -12.472500 -8.731200
N 1.360800 -16.628200 -7.694300
C 1.443900 -15.321800 -7.933300
H 1.649900 -12.653100 -8.394700
H 2.229100 -14.845700 -7.683800
