17
Fragment
H -5.137400 -9.499200 -9.215100
H -5.098600 -8.047600 -9.556900
N -4.696900 -8.745400 -9.220500
O -4.010200 -5.951200 -9.661900
C -3.463600 -8.638900 -8.691400
H -3.049800 -10.598100 -8.073400
H -2.993200 -3.478200 -8.798100
C -2.960100 -6.175700 -9.025700
N -2.792000 -9.683300 -8.163800
C -2.616800 -7.512100 -8.559500
H -2.573400 -3.997900 -10.158400
N -2.314200 -3.863900 -9.249200
N -2.099800 -5.170900 -8.731200
N -1.541100 -9.326600 -7.694300
C -1.458100 -8.020200 -7.933300
H -1.252100 -5.351500 -8.394700
H -0.672900 -7.544000 -7.683800
17
Fragment
H -6.958300 -12.545800 -12.824500
H -6.379100 -14.738400 -12.113600
C -6.173100 -12.069700 -12.575000
N -6.090000 -10.763300 -12.814000
N -5.531300 -14.919000 -11.777100
N -5.316900 -16.225900 -11.259100
H -5.057800 -16.092000 -10.349900
C -5.014300 -12.577800 -11.948800
N -4.839100 -10.406600 -12.344500
C -4.671100 -13.914100 -11.482600
H -4.637900 -16.611700 -11.710200
H -4.581400 -9.491700 -12.434900
C -4.167600 -11.450900 -11.816900
O -3.620900 -14.138700 -10.846400
N -2.934300 -11.344400 -11.287800
H -2.532600 -12.042300 -10.951400
H -2.493700 -10.590600 -11.293200
34
Fragment
H -5.137400 -9.499200 -9.215100
H -5.098600 -8.047600 -9.556900
N -4.696900 -8.745400 -9.220500
O -4.010200 -5.951200 -9.661900
C -3.463600 -8.638900 -8.691400
H -3.049800 -10.598100 -8.073400
H -2.993200 -3.478200 -8.798100
C -2.960100 -6.175700 -9.025700
N -2.792000 -9.683300 -8.163800
C -2.616800 -7.512100 -8.559500
H -2.573400 -3.997900 -10.158400
N -2.314200 -3.863900 -9.249200
N -2.099800 -5.170900 -8.731200
N -1.541100 -9.326600 -7.694300
C -1.458100 -8.020200 -7.933300
H -1.252100 -5.351500 -8.394700
H -0.672900 -7.544000 -7.683800
H -6.958300 -12.545800 -12.824500
H -6.379100 -14.738400 -12.113600
C -6.173100 -12.069700 -12.575000
N -6.090000 -10.763300 -12.814000
N -5.531300 -14.919000 -11.777100
N -5.316900 -16.225900 -11.259100
H -5.057800 -16.092000 -10.349900
C -5.014300 -12.577800 -11.948800
N -4.839100 -10.406600 -12.344500
C -4.671100 -13.914100 -11.482600
H -4.637900 -16.611700 -11.710200
H -4.581400 -9.491700 -12.434900
C -4.167600 -11.450900 -11.816900
O -3.620900 -14.138700 -10.846400
N -2.934300 -11.344400 -11.287800
H -2.532600 -12.042300 -10.951400
H -2.493700 -10.590600 -11.293200
