17
Fragment
H -5.137400 -9.499200 -9.215100
H -5.098600 -8.047600 -9.556900
N -4.696900 -8.745400 -9.220500
O -4.010200 -5.951200 -9.661900
C -3.463600 -8.638900 -8.691400
H -3.049800 -10.598100 -8.073400
H -2.993200 -3.478200 -8.798100
C -2.960100 -6.175700 -9.025700
N -2.792000 -9.683300 -8.163800
C -2.616800 -7.512100 -8.559500
H -2.573400 -3.997900 -10.158400
N -2.314200 -3.863900 -9.249200
N -2.099800 -5.170900 -8.731200
N -1.541100 -9.326600 -7.694300
C -1.458100 -8.020200 -7.933300
H -1.252100 -5.351500 -8.394700
H -0.672900 -7.544000 -7.683800
17
Fragment
H -2.776300 -5.244200 -12.824500
H -2.197100 -7.436700 -12.113600
C -1.991100 -4.768000 -12.575000
N -1.908000 -3.461600 -12.814000
N -1.349300 -7.617400 -11.777100
N -1.134900 -8.924300 -11.259100
H -0.875800 -8.790300 -10.349900
C -0.832300 -5.276100 -11.948800
N -0.657100 -3.104900 -12.344500
C -0.489000 -6.612500 -11.482600
H -0.455900 -9.310000 -11.710200
H -0.399400 -2.190100 -12.434900
C 0.014400 -4.149300 -11.816900
O 0.561100 -6.837000 -10.846400
N 1.247700 -4.042800 -11.287800
H 1.649400 -4.740600 -10.951400
H 1.688300 -3.289000 -11.293200
34
Fragment
H -5.137400 -9.499200 -9.215100
H -5.098600 -8.047600 -9.556900
N -4.696900 -8.745400 -9.220500
O -4.010200 -5.951200 -9.661900
C -3.463600 -8.638900 -8.691400
H -3.049800 -10.598100 -8.073400
H -2.993200 -3.478200 -8.798100
C -2.960100 -6.175700 -9.025700
N -2.792000 -9.683300 -8.163800
C -2.616800 -7.512100 -8.559500
H -2.573400 -3.997900 -10.158400
N -2.314200 -3.863900 -9.249200
N -2.099800 -5.170900 -8.731200
N -1.541100 -9.326600 -7.694300
C -1.458100 -8.020200 -7.933300
H -1.252100 -5.351500 -8.394700
H -0.672900 -7.544000 -7.683800
H -2.776300 -5.244200 -12.824500
H -2.197100 -7.436700 -12.113600
C -1.991100 -4.768000 -12.575000
N -1.908000 -3.461600 -12.814000
N -1.349300 -7.617400 -11.777100
N -1.134900 -8.924300 -11.259100
H -0.875800 -8.790300 -10.349900
C -0.832300 -5.276100 -11.948800
N -0.657100 -3.104900 -12.344500
C -0.489000 -6.612500 -11.482600
H -0.455900 -9.310000 -11.710200
H -0.399400 -2.190100 -12.434900
C 0.014400 -4.149300 -11.816900
O 0.561100 -6.837000 -10.846400
N 1.247700 -4.042800 -11.287800
H 1.649400 -4.740600 -10.951400
H 1.688300 -3.289000 -11.293200
