17
Fragment
H -5.137400 -9.499200 -9.215100
H -5.098600 -8.047600 -9.556900
N -4.696900 -8.745400 -9.220500
O -4.010200 -5.951200 -9.661900
C -3.463600 -8.638900 -8.691400
H -3.049800 -10.598100 -8.073400
H -2.993200 -3.478200 -8.798100
C -2.960100 -6.175700 -9.025700
N -2.792000 -9.683300 -8.163800
C -2.616800 -7.512100 -8.559500
H -2.573400 -3.997900 -10.158400
N -2.314200 -3.863900 -9.249200
N -2.099800 -5.170900 -8.731200
N -1.541100 -9.326600 -7.694300
C -1.458100 -8.020200 -7.933300
H -1.252100 -5.351500 -8.394700
H -0.672900 -7.544000 -7.683800
17
Fragment
H -5.808600 -8.283100 -5.988400
H -5.229400 -10.475700 -5.277500
C -5.023400 -7.807000 -5.738900
N -4.940300 -6.500500 -5.977900
N -4.381600 -10.656300 -4.941000
N -4.167200 -11.963200 -4.423000
H -3.908100 -11.829200 -3.513800
C -3.864600 -8.315000 -5.112700
N -3.689400 -6.143800 -5.508400
C -3.521300 -9.651400 -4.646500
H -3.488200 -12.348900 -4.874100
H -3.431700 -5.229000 -5.598800
C -3.017900 -7.188200 -4.980800
O -2.471200 -9.875900 -4.010300
N -1.784600 -7.081700 -4.451700
H -1.382900 -7.779500 -4.115300
H -1.344000 -6.327900 -4.457100
34
Fragment
H -5.137400 -9.499200 -9.215100
H -5.098600 -8.047600 -9.556900
N -4.696900 -8.745400 -9.220500
O -4.010200 -5.951200 -9.661900
C -3.463600 -8.638900 -8.691400
H -3.049800 -10.598100 -8.073400
H -2.993200 -3.478200 -8.798100
C -2.960100 -6.175700 -9.025700
N -2.792000 -9.683300 -8.163800
C -2.616800 -7.512100 -8.559500
H -2.573400 -3.997900 -10.158400
N -2.314200 -3.863900 -9.249200
N -2.099800 -5.170900 -8.731200
N -1.541100 -9.326600 -7.694300
C -1.458100 -8.020200 -7.933300
H -1.252100 -5.351500 -8.394700
H -0.672900 -7.544000 -7.683800
H -5.808600 -8.283100 -5.988400
H -5.229400 -10.475700 -5.277500
C -5.023400 -7.807000 -5.738900
N -4.940300 -6.500500 -5.977900
N -4.381600 -10.656300 -4.941000
N -4.167200 -11.963200 -4.423000
H -3.908100 -11.829200 -3.513800
C -3.864600 -8.315000 -5.112700
N -3.689400 -6.143800 -5.508400
C -3.521300 -9.651400 -4.646500
H -3.488200 -12.348900 -4.874100
H -3.431700 -5.229000 -5.598800
C -3.017900 -7.188200 -4.980800
O -2.471200 -9.875900 -4.010300
N -1.784600 -7.081700 -4.451700
H -1.382900 -7.779500 -4.115300
H -1.344000 -6.327900 -4.457100
