17
Fragment
O -15.649100 -22.507300 -21.057300
H -15.567800 -23.168200 -21.695200
H -15.567200 -21.455500 -18.794100
H -14.797200 -20.414700 -16.726600
H -14.735000 -20.552000 -19.742900
C -14.726400 -21.383900 -19.219700
C -14.625700 -22.498000 -20.225200
H -14.131100 -19.371400 -17.626000
C -13.957700 -20.233100 -17.174200
O -13.714500 -23.300000 -20.285100
C -13.622900 -21.321600 -18.171800
H -13.568000 -22.208200 -17.691800
O -13.287000 -18.936600 -15.359300
C -12.936500 -19.953000 -16.105900
H -12.746200 -21.112500 -18.591200
H -12.678600 -18.769200 -14.653600
O -11.912700 -20.586900 -15.933500
27
Fragment
H -18.431100 -15.082600 -19.473000
H -18.350200 -13.039100 -20.631300
H -18.117400 -10.392400 -19.797700
H -17.632300 -15.097000 -18.014300
H -17.586000 -16.670600 -21.236700
C -17.558300 -14.924800 -19.011900
O -17.392000 -10.797100 -19.517100
C -17.334600 -13.049700 -20.447300
O -17.100600 -13.603200 -19.142900
H -16.888600 -11.266500 -21.421000
H -16.864700 -13.581600 -21.174200
C -16.778500 -11.655100 -20.476500
C -16.756200 -16.679300 -20.685900
N -16.601400 -15.885000 -19.576600
H -15.820000 -11.694700 -20.266000
N -15.715500 -17.437000 -20.921100
C -15.355800 -16.174100 -19.070200
N -14.823900 -15.631600 -17.950100
C -14.815700 -17.123500 -19.907700
C -13.628500 -16.139900 -17.665700
C -13.509600 -17.601900 -19.645900
H -13.425000 -15.188800 -16.035600
N -12.994000 -15.753600 -16.559900
N -12.992800 -17.060800 -18.469800
O -12.846700 -18.407400 -20.316500
H -12.278900 -16.164800 -16.298800
H -12.138900 -17.299000 -18.235800
44
Fragment
O -15.649100 -22.507300 -21.057300
H -15.567800 -23.168200 -21.695200
H -15.567200 -21.455500 -18.794100
H -14.797200 -20.414700 -16.726600
H -14.735000 -20.552000 -19.742900
C -14.726400 -21.383900 -19.219700
C -14.625700 -22.498000 -20.225200
H -14.131100 -19.371400 -17.626000
C -13.957700 -20.233100 -17.174200
O -13.714500 -23.300000 -20.285100
C -13.622900 -21.321600 -18.171800
H -13.568000 -22.208200 -17.691800
O -13.287000 -18.936600 -15.359300
C -12.936500 -19.953000 -16.105900
H -12.746200 -21.112500 -18.591200
H -12.678600 -18.769200 -14.653600
O -11.912700 -20.586900 -15.933500
H -18.431100 -15.082600 -19.473000
H -18.350200 -13.039100 -20.631300
H -18.117400 -10.392400 -19.797700
H -17.632300 -15.097000 -18.014300
H -17.586000 -16.670600 -21.236700
C -17.558300 -14.924800 -19.011900
O -17.392000 -10.797100 -19.517100
C -17.334600 -13.049700 -20.447300
O -17.100600 -13.603200 -19.142900
H -16.888600 -11.266500 -21.421000
H -16.864700 -13.581600 -21.174200
C -16.778500 -11.655100 -20.476500
C -16.756200 -16.679300 -20.685900
N -16.601400 -15.885000 -19.576600
H -15.820000 -11.694700 -20.266000
N -15.715500 -17.437000 -20.921100
C -15.355800 -16.174100 -19.070200
N -14.823900 -15.631600 -17.950100
C -14.815700 -17.123500 -19.907700
C -13.628500 -16.139900 -17.665700
C -13.509600 -17.601900 -19.645900
H -13.425000 -15.188800 -16.035600
N -12.994000 -15.753600 -16.559900
N -12.992800 -17.060800 -18.469800
O -12.846700 -18.407400 -20.316500
H -12.278900 -16.164800 -16.298800
H -12.138900 -17.299000 -18.235800
