17
Fragment
O -15.649100 -22.507300 -21.057300
H -15.567800 -23.168200 -21.695200
H -15.567200 -21.455500 -18.794100
H -14.797200 -20.414700 -16.726600
H -14.735000 -20.552000 -19.742900
C -14.726400 -21.383900 -19.219700
C -14.625700 -22.498000 -20.225200
H -14.131100 -19.371400 -17.626000
C -13.957700 -20.233100 -17.174200
O -13.714500 -23.300000 -20.285100
C -13.622900 -21.321600 -18.171800
H -13.568000 -22.208200 -17.691800
O -13.287000 -18.936600 -15.359300
C -12.936500 -19.953000 -16.105900
H -12.746200 -21.112500 -18.591200
H -12.678600 -18.769200 -14.653600
O -11.912700 -20.586900 -15.933500
17
Fragment
O -18.657300 -17.321600 -16.971300
H -17.891400 -19.139300 -18.251200
H -17.823800 -16.796000 -14.313600
C -17.633500 -17.955500 -16.798900
O -17.283100 -18.971900 -17.545500
H -17.002000 -15.700200 -15.213000
C -16.947200 -16.586800 -14.733000
O -16.855600 -14.608500 -12.619600
C -16.612400 -17.675400 -15.730600
H -16.439000 -18.537100 -15.278800
C -15.944400 -15.410400 -12.679500
C -15.843700 -16.524500 -13.685100
H -15.835000 -17.356500 -13.161900
H -15.772800 -17.493700 -16.178200
H -15.002800 -16.453000 -14.110700
H -15.002200 -14.740300 -11.209600
O -14.920900 -15.401200 -11.847500
34
Fragment
O -15.649100 -22.507300 -21.057300
H -15.567800 -23.168200 -21.695200
H -15.567200 -21.455500 -18.794100
H -14.797200 -20.414700 -16.726600
H -14.735000 -20.552000 -19.742900
C -14.726400 -21.383900 -19.219700
C -14.625700 -22.498000 -20.225200
H -14.131100 -19.371400 -17.626000
C -13.957700 -20.233100 -17.174200
O -13.714500 -23.300000 -20.285100
C -13.622900 -21.321600 -18.171800
H -13.568000 -22.208200 -17.691800
O -13.287000 -18.936600 -15.359300
C -12.936500 -19.953000 -16.105900
H -12.746200 -21.112500 -18.591200
H -12.678600 -18.769200 -14.653600
O -11.912700 -20.586900 -15.933500
O -18.657300 -17.321600 -16.971300
H -17.891400 -19.139300 -18.251200
H -17.823800 -16.796000 -14.313600
C -17.633500 -17.955500 -16.798900
O -17.283100 -18.971900 -17.545500
H -17.002000 -15.700200 -15.213000
C -16.947200 -16.586800 -14.733000
O -16.855600 -14.608500 -12.619600
C -16.612400 -17.675400 -15.730600
H -16.439000 -18.537100 -15.278800
C -15.944400 -15.410400 -12.679500
C -15.843700 -16.524500 -13.685100
H -15.835000 -17.356500 -13.161900
H -15.772800 -17.493700 -16.178200
H -15.002800 -16.453000 -14.110700
H -15.002200 -14.740300 -11.209600
O -14.920900 -15.401200 -11.847500
