17
Fragment
O -15.649100 -22.507300 -21.057300
H -15.567800 -23.168200 -21.695200
H -15.567200 -21.455500 -18.794100
H -14.797200 -20.414700 -16.726600
H -14.735000 -20.552000 -19.742900
C -14.726400 -21.383900 -19.219700
C -14.625700 -22.498000 -20.225200
H -14.131100 -19.371400 -17.626000
C -13.957700 -20.233100 -17.174200
O -13.714500 -23.300000 -20.285100
C -13.622900 -21.321600 -18.171800
H -13.568000 -22.208200 -17.691800
O -13.287000 -18.936600 -15.359300
C -12.936500 -19.953000 -16.105900
H -12.746200 -21.112500 -18.591200
H -12.678600 -18.769200 -14.653600
O -11.912700 -20.586900 -15.933500
27
Fragment
H -10.246200 -20.609500 -14.668900
H -10.106300 -21.743600 -16.605900
O -9.538500 -19.501100 -12.588300
N -9.392300 -20.847700 -14.435000
N -9.391100 -22.154900 -16.344900
H -8.960200 -22.719700 -16.869200
C -8.875500 -20.306600 -13.258900
C -8.756600 -21.768600 -15.239100
C -7.569500 -20.785000 -12.997000
N -7.561200 -22.276900 -14.954700
C -7.029300 -21.734400 -13.834600
N -6.669700 -20.471400 -11.983700
H -6.565200 -26.213700 -12.638700
N -5.783700 -22.023400 -13.328200
C -5.629000 -21.229200 -12.218900
C -5.606600 -26.253400 -12.428200
H -5.520400 -24.326900 -11.730500
H -5.496500 -26.642000 -11.483800
O -5.284500 -24.305200 -13.761900
C -5.050500 -24.858800 -12.457400
O -4.993100 -27.111400 -13.387600
C -4.826800 -22.983700 -13.892800
H -4.799200 -21.237900 -11.668000
H -4.752800 -22.811400 -14.890500
H -4.267700 -27.516100 -13.107100
H -4.034900 -24.869400 -12.273500
H -3.954100 -22.825900 -13.431700
44
Fragment
O -15.649100 -22.507300 -21.057300
H -15.567800 -23.168200 -21.695200
H -15.567200 -21.455500 -18.794100
H -14.797200 -20.414700 -16.726600
H -14.735000 -20.552000 -19.742900
C -14.726400 -21.383900 -19.219700
C -14.625700 -22.498000 -20.225200
H -14.131100 -19.371400 -17.626000
C -13.957700 -20.233100 -17.174200
O -13.714500 -23.300000 -20.285100
C -13.622900 -21.321600 -18.171800
H -13.568000 -22.208200 -17.691800
O -13.287000 -18.936600 -15.359300
C -12.936500 -19.953000 -16.105900
H -12.746200 -21.112500 -18.591200
H -12.678600 -18.769200 -14.653600
O -11.912700 -20.586900 -15.933500
H -10.246200 -20.609500 -14.668900
H -10.106300 -21.743600 -16.605900
O -9.538500 -19.501100 -12.588300
N -9.392300 -20.847700 -14.435000
N -9.391100 -22.154900 -16.344900
H -8.960200 -22.719700 -16.869200
C -8.875500 -20.306600 -13.258900
C -8.756600 -21.768600 -15.239100
C -7.569500 -20.785000 -12.997000
N -7.561200 -22.276900 -14.954700
C -7.029300 -21.734400 -13.834600
N -6.669700 -20.471400 -11.983700
H -6.565200 -26.213700 -12.638700
N -5.783700 -22.023400 -13.328200
C -5.629000 -21.229200 -12.218900
C -5.606600 -26.253400 -12.428200
H -5.520400 -24.326900 -11.730500
H -5.496500 -26.642000 -11.483800
O -5.284500 -24.305200 -13.761900
C -5.050500 -24.858800 -12.457400
O -4.993100 -27.111400 -13.387600
C -4.826800 -22.983700 -13.892800
H -4.799200 -21.237900 -11.668000
H -4.752800 -22.811400 -14.890500
H -4.267700 -27.516100 -13.107100
H -4.034900 -24.869400 -12.273500
H -3.954100 -22.825900 -13.431700
