17
Fragment
O -15.649100 -22.507300 -21.057300
H -15.567800 -23.168200 -21.695200
H -15.567200 -21.455500 -18.794100
H -14.797200 -20.414700 -16.726600
H -14.735000 -20.552000 -19.742900
C -14.726400 -21.383900 -19.219700
C -14.625700 -22.498000 -20.225200
H -14.131100 -19.371400 -17.626000
C -13.957700 -20.233100 -17.174200
O -13.714500 -23.300000 -20.285100
C -13.622900 -21.321600 -18.171800
H -13.568000 -22.208200 -17.691800
O -13.287000 -18.936600 -15.359300
C -12.936500 -19.953000 -16.105900
H -12.746200 -21.112500 -18.591200
H -12.678600 -18.769200 -14.653600
O -11.912700 -20.586900 -15.933500
27
Fragment
H -19.823100 -23.820000 -19.473000
H -19.742200 -21.776500 -20.631300
H -19.509400 -19.129800 -19.797700
H -19.024300 -23.834400 -18.014300
H -18.978000 -25.408000 -21.236700
C -18.950300 -23.662200 -19.011900
O -18.784000 -19.534500 -19.517100
C -18.726600 -21.787100 -20.447300
O -18.492600 -22.340600 -19.142900
H -18.280600 -20.003900 -21.421000
H -18.256700 -22.319000 -21.174200
C -18.170500 -20.392500 -20.476500
C -18.148200 -25.416700 -20.685900
N -17.993400 -24.622500 -19.576600
H -17.212000 -20.432200 -20.266000
N -17.107500 -26.174400 -20.921100
C -16.747800 -24.911500 -19.070200
N -16.215900 -24.369000 -17.950100
C -16.207700 -25.860900 -19.907700
C -15.020500 -24.877300 -17.665700
C -14.901600 -26.339300 -19.645900
H -14.817000 -23.926200 -16.035600
N -14.386000 -24.491000 -16.559900
N -14.384800 -25.798200 -18.469800
O -14.238700 -27.144800 -20.316500
H -13.670900 -24.902300 -16.298800
H -13.530900 -26.036400 -18.235800
44
Fragment
O -15.649100 -22.507300 -21.057300
H -15.567800 -23.168200 -21.695200
H -15.567200 -21.455500 -18.794100
H -14.797200 -20.414700 -16.726600
H -14.735000 -20.552000 -19.742900
C -14.726400 -21.383900 -19.219700
C -14.625700 -22.498000 -20.225200
H -14.131100 -19.371400 -17.626000
C -13.957700 -20.233100 -17.174200
O -13.714500 -23.300000 -20.285100
C -13.622900 -21.321600 -18.171800
H -13.568000 -22.208200 -17.691800
O -13.287000 -18.936600 -15.359300
C -12.936500 -19.953000 -16.105900
H -12.746200 -21.112500 -18.591200
H -12.678600 -18.769200 -14.653600
O -11.912700 -20.586900 -15.933500
H -19.823100 -23.820000 -19.473000
H -19.742200 -21.776500 -20.631300
H -19.509400 -19.129800 -19.797700
H -19.024300 -23.834400 -18.014300
H -18.978000 -25.408000 -21.236700
C -18.950300 -23.662200 -19.011900
O -18.784000 -19.534500 -19.517100
C -18.726600 -21.787100 -20.447300
O -18.492600 -22.340600 -19.142900
H -18.280600 -20.003900 -21.421000
H -18.256700 -22.319000 -21.174200
C -18.170500 -20.392500 -20.476500
C -18.148200 -25.416700 -20.685900
N -17.993400 -24.622500 -19.576600
H -17.212000 -20.432200 -20.266000
N -17.107500 -26.174400 -20.921100
C -16.747800 -24.911500 -19.070200
N -16.215900 -24.369000 -17.950100
C -16.207700 -25.860900 -19.907700
C -15.020500 -24.877300 -17.665700
C -14.901600 -26.339300 -19.645900
H -14.817000 -23.926200 -16.035600
N -14.386000 -24.491000 -16.559900
N -14.384800 -25.798200 -18.469800
O -14.238700 -27.144800 -20.316500
H -13.670900 -24.902300 -16.298800
H -13.530900 -26.036400 -18.235800
