17
Fragment
O -15.649100 -22.507300 -21.057300
H -15.567800 -23.168200 -21.695200
H -15.567200 -21.455500 -18.794100
H -14.797200 -20.414700 -16.726600
H -14.735000 -20.552000 -19.742900
C -14.726400 -21.383900 -19.219700
C -14.625700 -22.498000 -20.225200
H -14.131100 -19.371400 -17.626000
C -13.957700 -20.233100 -17.174200
O -13.714500 -23.300000 -20.285100
C -13.622900 -21.321600 -18.171800
H -13.568000 -22.208200 -17.691800
O -13.287000 -18.936600 -15.359300
C -12.936500 -19.953000 -16.105900
H -12.746200 -21.112500 -18.591200
H -12.678600 -18.769200 -14.653600
O -11.912700 -20.586900 -15.933500
27
Fragment
H -17.652200 -15.770800 -25.637200
H -17.512300 -16.905000 -27.574200
O -16.944500 -14.662400 -23.556500
N -16.798400 -16.009000 -25.403200
N -16.797200 -17.316200 -27.313100
H -16.366200 -17.881000 -27.837400
C -16.281500 -15.468000 -24.227100
C -16.162700 -16.929900 -26.207300
C -14.975500 -15.946300 -23.965300
N -14.967200 -17.438200 -25.922900
C -14.435300 -16.895700 -24.802800
N -14.075700 -15.632800 -22.951900
H -13.971200 -21.375100 -23.607000
N -13.189700 -17.184800 -24.296400
C -13.035000 -16.390500 -23.187100
C -13.012700 -21.414700 -23.396500
H -12.926400 -19.488300 -22.698800
H -12.902600 -21.803300 -22.452000
O -12.690500 -19.466600 -24.730100
C -12.456500 -20.020100 -23.425700
O -12.399200 -22.272700 -24.355900
C -12.232900 -18.145000 -24.861100
H -12.205200 -16.399200 -22.636300
H -12.158800 -17.972800 -25.858700
H -11.673700 -22.677400 -24.075300
H -11.441000 -20.030700 -23.241700
H -11.360100 -17.987200 -24.400000
44
Fragment
O -15.649100 -22.507300 -21.057300
H -15.567800 -23.168200 -21.695200
H -15.567200 -21.455500 -18.794100
H -14.797200 -20.414700 -16.726600
H -14.735000 -20.552000 -19.742900
C -14.726400 -21.383900 -19.219700
C -14.625700 -22.498000 -20.225200
H -14.131100 -19.371400 -17.626000
C -13.957700 -20.233100 -17.174200
O -13.714500 -23.300000 -20.285100
C -13.622900 -21.321600 -18.171800
H -13.568000 -22.208200 -17.691800
O -13.287000 -18.936600 -15.359300
C -12.936500 -19.953000 -16.105900
H -12.746200 -21.112500 -18.591200
H -12.678600 -18.769200 -14.653600
O -11.912700 -20.586900 -15.933500
H -17.652200 -15.770800 -25.637200
H -17.512300 -16.905000 -27.574200
O -16.944500 -14.662400 -23.556500
N -16.798400 -16.009000 -25.403200
N -16.797200 -17.316200 -27.313100
H -16.366200 -17.881000 -27.837400
C -16.281500 -15.468000 -24.227100
C -16.162700 -16.929900 -26.207300
C -14.975500 -15.946300 -23.965300
N -14.967200 -17.438200 -25.922900
C -14.435300 -16.895700 -24.802800
N -14.075700 -15.632800 -22.951900
H -13.971200 -21.375100 -23.607000
N -13.189700 -17.184800 -24.296400
C -13.035000 -16.390500 -23.187100
C -13.012700 -21.414700 -23.396500
H -12.926400 -19.488300 -22.698800
H -12.902600 -21.803300 -22.452000
O -12.690500 -19.466600 -24.730100
C -12.456500 -20.020100 -23.425700
O -12.399200 -22.272700 -24.355900
C -12.232900 -18.145000 -24.861100
H -12.205200 -16.399200 -22.636300
H -12.158800 -17.972800 -25.858700
H -11.673700 -22.677400 -24.075300
H -11.441000 -20.030700 -23.241700
H -11.360100 -17.987200 -24.400000
