24
Fragment
H -14.991400 -24.065000 -16.391200
O -14.280300 -23.724300 -16.165600
O -13.941100 -25.697700 -15.208700
C -13.554500 -24.609800 -15.531300
H -12.855900 -22.470900 -18.572200
O -12.660300 -21.095000 -16.743400
O -12.343900 -22.863200 -18.065600
C -12.287400 -22.223000 -16.916900
C -12.168600 -24.119900 -15.220000
H -11.825200 -25.539100 -13.836800
C -11.596500 -23.011600 -15.843900
C -11.447800 -24.795100 -14.246700
C -10.324300 -22.601900 -15.467300
C -10.175600 -24.385400 -13.870100
H -9.946900 -21.857900 -15.877200
C -9.603500 -23.277100 -14.494000
C -9.484700 -25.174000 -12.797100
O -9.428200 -24.533800 -11.648400
O -9.111800 -26.302000 -12.970600
H -8.916100 -24.926100 -11.141800
C -8.217600 -22.787200 -14.182700
O -7.830900 -21.699300 -14.505300
O -7.491800 -23.672700 -13.548400
H -6.780700 -23.332000 -13.322800
23
Fragment
N -5.172100 -22.772400 -12.668200
H -4.780300 -21.113800 -13.670400
C -4.482600 -21.753200 -13.064300
N -4.403700 -23.489000 -11.764800
C -3.276400 -22.850300 -11.677500
N -3.260300 -21.748900 -12.469600
H -3.024900 -19.669800 -14.089400
H -2.566100 -23.115500 -11.137800
C -2.278500 -19.785200 -13.548200
C -2.188100 -20.824800 -12.646000
H -1.228200 -18.200400 -14.177500
C -1.204000 -18.931600 -13.602800
N -1.136300 -21.076000 -11.876900
C -0.111500 -20.242200 -11.997100
C -0.091900 -19.143800 -12.816600
H 0.564400 -22.368200 -10.330600
H 0.638700 -18.568600 -12.841400
N 1.009500 -20.578000 -11.185200
C 1.179900 -21.677000 -10.412100
C 2.145900 -19.858100 -10.994200
H 2.322300 -19.041000 -11.400300
N 2.325500 -21.629100 -9.800800
N 2.947800 -20.452900 -10.178400
47
Fragment
H -14.991400 -24.065000 -16.391200
O -14.280300 -23.724300 -16.165600
O -13.941100 -25.697700 -15.208700
C -13.554500 -24.609800 -15.531300
H -12.855900 -22.470900 -18.572200
O -12.660300 -21.095000 -16.743400
O -12.343900 -22.863200 -18.065600
C -12.287400 -22.223000 -16.916900
C -12.168600 -24.119900 -15.220000
H -11.825200 -25.539100 -13.836800
C -11.596500 -23.011600 -15.843900
C -11.447800 -24.795100 -14.246700
C -10.324300 -22.601900 -15.467300
C -10.175600 -24.385400 -13.870100
H -9.946900 -21.857900 -15.877200
C -9.603500 -23.277100 -14.494000
C -9.484700 -25.174000 -12.797100
O -9.428200 -24.533800 -11.648400
O -9.111800 -26.302000 -12.970600
H -8.916100 -24.926100 -11.141800
C -8.217600 -22.787200 -14.182700
O -7.830900 -21.699300 -14.505300
O -7.491800 -23.672700 -13.548400
H -6.780700 -23.332000 -13.322800
N -5.172100 -22.772400 -12.668200
H -4.780300 -21.113800 -13.670400
C -4.482600 -21.753200 -13.064300
N -4.403700 -23.489000 -11.764800
C -3.276400 -22.850300 -11.677500
N -3.260300 -21.748900 -12.469600
H -3.024900 -19.669800 -14.089400
H -2.566100 -23.115500 -11.137800
C -2.278500 -19.785200 -13.548200
C -2.188100 -20.824800 -12.646000
H -1.228200 -18.200400 -14.177500
C -1.204000 -18.931600 -13.602800
N -1.136300 -21.076000 -11.876900
C -0.111500 -20.242200 -11.997100
C -0.091900 -19.143800 -12.816600
H 0.564400 -22.368200 -10.330600
H 0.638700 -18.568600 -12.841400
N 1.009500 -20.578000 -11.185200
C 1.179900 -21.677000 -10.412100
C 2.145900 -19.858100 -10.994200
H 2.322300 -19.041000 -11.400300
N 2.325500 -21.629100 -9.800800
N 2.947800 -20.452900 -10.178400
