24
Fragment
H -14.991400 -24.065000 -16.391200
O -14.280300 -23.724300 -16.165600
O -13.941100 -25.697700 -15.208700
C -13.554500 -24.609800 -15.531300
H -12.855900 -22.470900 -18.572200
O -12.660300 -21.095000 -16.743400
O -12.343900 -22.863200 -18.065600
C -12.287400 -22.223000 -16.916900
C -12.168600 -24.119900 -15.220000
H -11.825200 -25.539100 -13.836800
C -11.596500 -23.011600 -15.843900
C -11.447800 -24.795100 -14.246700
C -10.324300 -22.601900 -15.467300
C -10.175600 -24.385400 -13.870100
H -9.946900 -21.857900 -15.877200
C -9.603500 -23.277100 -14.494000
C -9.484700 -25.174000 -12.797100
O -9.428200 -24.533800 -11.648400
O -9.111800 -26.302000 -12.970600
H -8.916100 -24.926100 -11.141800
C -8.217600 -22.787200 -14.182700
O -7.830900 -21.699300 -14.505300
O -7.491800 -23.672700 -13.548400
H -6.780700 -23.332000 -13.322800
23
Fragment
N -24.719900 -26.944100 -19.535600
N -24.097600 -25.767900 -19.913200
H -24.094400 -28.356000 -18.313700
C -23.918000 -27.538900 -18.719800
C -22.952000 -25.720000 -19.301900
N -22.781600 -26.819000 -18.528800
H -22.410800 -28.828400 -16.872600
H -22.336500 -25.028800 -19.383400
C -21.680200 -28.253200 -16.897400
C -21.660600 -27.154800 -17.716900
N -20.635800 -26.321000 -17.837100
C -20.568100 -28.465400 -16.111200
H -20.543900 -29.196600 -15.536500
C -19.584000 -26.572200 -17.068000
C -19.493600 -27.611800 -16.165800
H -19.206000 -24.281500 -18.576200
H -18.747200 -27.727200 -15.624600
N -18.511800 -25.648100 -17.244400
C -18.495700 -24.546700 -18.036500
N -17.368400 -23.908000 -17.949200
C -17.289500 -25.643800 -16.649800
H -16.991800 -26.283200 -16.043600
N -16.600000 -24.624600 -17.045800
47
Fragment
H -14.991400 -24.065000 -16.391200
O -14.280300 -23.724300 -16.165600
O -13.941100 -25.697700 -15.208700
C -13.554500 -24.609800 -15.531300
H -12.855900 -22.470900 -18.572200
O -12.660300 -21.095000 -16.743400
O -12.343900 -22.863200 -18.065600
C -12.287400 -22.223000 -16.916900
C -12.168600 -24.119900 -15.220000
H -11.825200 -25.539100 -13.836800
C -11.596500 -23.011600 -15.843900
C -11.447800 -24.795100 -14.246700
C -10.324300 -22.601900 -15.467300
C -10.175600 -24.385400 -13.870100
H -9.946900 -21.857900 -15.877200
C -9.603500 -23.277100 -14.494000
C -9.484700 -25.174000 -12.797100
O -9.428200 -24.533800 -11.648400
O -9.111800 -26.302000 -12.970600
H -8.916100 -24.926100 -11.141800
C -8.217600 -22.787200 -14.182700
O -7.830900 -21.699300 -14.505300
O -7.491800 -23.672700 -13.548400
H -6.780700 -23.332000 -13.322800
N -24.719900 -26.944100 -19.535600
N -24.097600 -25.767900 -19.913200
H -24.094400 -28.356000 -18.313700
C -23.918000 -27.538900 -18.719800
C -22.952000 -25.720000 -19.301900
N -22.781600 -26.819000 -18.528800
H -22.410800 -28.828400 -16.872600
H -22.336500 -25.028800 -19.383400
C -21.680200 -28.253200 -16.897400
C -21.660600 -27.154800 -17.716900
N -20.635800 -26.321000 -17.837100
C -20.568100 -28.465400 -16.111200
H -20.543900 -29.196600 -15.536500
C -19.584000 -26.572200 -17.068000
C -19.493600 -27.611800 -16.165800
H -19.206000 -24.281500 -18.576200
H -18.747200 -27.727200 -15.624600
N -18.511800 -25.648100 -17.244400
C -18.495700 -24.546700 -18.036500
N -17.368400 -23.908000 -17.949200
C -17.289500 -25.643800 -16.649800
H -16.991800 -26.283200 -16.043600
N -16.600000 -24.624600 -17.045800
