24
Fragment
H -14.991400 -24.065000 -16.391200
O -14.280300 -23.724300 -16.165600
O -13.941100 -25.697700 -15.208700
C -13.554500 -24.609800 -15.531300
H -12.855900 -22.470900 -18.572200
O -12.660300 -21.095000 -16.743400
O -12.343900 -22.863200 -18.065600
C -12.287400 -22.223000 -16.916900
C -12.168600 -24.119900 -15.220000
H -11.825200 -25.539100 -13.836800
C -11.596500 -23.011600 -15.843900
C -11.447800 -24.795100 -14.246700
C -10.324300 -22.601900 -15.467300
C -10.175600 -24.385400 -13.870100
H -9.946900 -21.857900 -15.877200
C -9.603500 -23.277100 -14.494000
C -9.484700 -25.174000 -12.797100
O -9.428200 -24.533800 -11.648400
O -9.111800 -26.302000 -12.970600
H -8.916100 -24.926100 -11.141800
C -8.217600 -22.787200 -14.182700
O -7.830900 -21.699300 -14.505300
O -7.491800 -23.672700 -13.548400
H -6.780700 -23.332000 -13.322800
23
Fragment
N -21.526700 -22.772400 -22.572800
H -21.134800 -21.113800 -23.575100
C -20.837100 -21.753200 -22.968900
N -20.758200 -23.489000 -21.669400
C -19.631000 -22.850300 -21.582200
N -19.614900 -21.748900 -22.374300
H -19.379500 -19.669800 -23.994100
H -18.920700 -23.115500 -21.042500
C -18.633100 -19.785200 -23.452900
C -18.542700 -20.824800 -22.550700
H -17.582800 -18.200400 -24.082200
C -17.558600 -18.931600 -23.507400
N -17.490900 -21.076000 -21.781600
C -16.466000 -20.242200 -21.901800
C -16.446400 -19.143800 -22.721300
H -15.790200 -22.368200 -20.235200
H -15.715900 -18.568600 -22.746100
N -15.345100 -20.578000 -21.089900
C -15.174600 -21.677000 -20.316800
C -14.208600 -19.858100 -20.898900
H -14.032200 -19.041000 -21.304900
N -14.029000 -21.629100 -19.705400
N -13.406800 -20.452900 -20.083100
47
Fragment
H -14.991400 -24.065000 -16.391200
O -14.280300 -23.724300 -16.165600
O -13.941100 -25.697700 -15.208700
C -13.554500 -24.609800 -15.531300
H -12.855900 -22.470900 -18.572200
O -12.660300 -21.095000 -16.743400
O -12.343900 -22.863200 -18.065600
C -12.287400 -22.223000 -16.916900
C -12.168600 -24.119900 -15.220000
H -11.825200 -25.539100 -13.836800
C -11.596500 -23.011600 -15.843900
C -11.447800 -24.795100 -14.246700
C -10.324300 -22.601900 -15.467300
C -10.175600 -24.385400 -13.870100
H -9.946900 -21.857900 -15.877200
C -9.603500 -23.277100 -14.494000
C -9.484700 -25.174000 -12.797100
O -9.428200 -24.533800 -11.648400
O -9.111800 -26.302000 -12.970600
H -8.916100 -24.926100 -11.141800
C -8.217600 -22.787200 -14.182700
O -7.830900 -21.699300 -14.505300
O -7.491800 -23.672700 -13.548400
H -6.780700 -23.332000 -13.322800
N -21.526700 -22.772400 -22.572800
H -21.134800 -21.113800 -23.575100
C -20.837100 -21.753200 -22.968900
N -20.758200 -23.489000 -21.669400
C -19.631000 -22.850300 -21.582200
N -19.614900 -21.748900 -22.374300
H -19.379500 -19.669800 -23.994100
H -18.920700 -23.115500 -21.042500
C -18.633100 -19.785200 -23.452900
C -18.542700 -20.824800 -22.550700
H -17.582800 -18.200400 -24.082200
C -17.558600 -18.931600 -23.507400
N -17.490900 -21.076000 -21.781600
C -16.466000 -20.242200 -21.901800
C -16.446400 -19.143800 -22.721300
H -15.790200 -22.368200 -20.235200
H -15.715900 -18.568600 -22.746100
N -15.345100 -20.578000 -21.089900
C -15.174600 -21.677000 -20.316800
C -14.208600 -19.858100 -20.898900
H -14.032200 -19.041000 -21.304900
N -14.029000 -21.629100 -19.705400
N -13.406800 -20.452900 -20.083100
