24
Fragment
H -14.991400 -24.065000 -16.391200
O -14.280300 -23.724300 -16.165600
O -13.941100 -25.697700 -15.208700
C -13.554500 -24.609800 -15.531300
H -12.855900 -22.470900 -18.572200
O -12.660300 -21.095000 -16.743400
O -12.343900 -22.863200 -18.065600
C -12.287400 -22.223000 -16.916900
C -12.168600 -24.119900 -15.220000
H -11.825200 -25.539100 -13.836800
C -11.596500 -23.011600 -15.843900
C -11.447800 -24.795100 -14.246700
C -10.324300 -22.601900 -15.467300
C -10.175600 -24.385400 -13.870100
H -9.946900 -21.857900 -15.877200
C -9.603500 -23.277100 -14.494000
C -9.484700 -25.174000 -12.797100
O -9.428200 -24.533800 -11.648400
O -9.111800 -26.302000 -12.970600
H -8.916100 -24.926100 -11.141800
C -8.217600 -22.787200 -14.182700
O -7.830900 -21.699300 -14.505300
O -7.491800 -23.672700 -13.548400
H -6.780700 -23.332000 -13.322800
23
Fragment
N -7.445400 -28.352400 -14.583200
N -6.823100 -29.528600 -14.960900
H -6.819900 -26.940500 -13.361400
C -6.643500 -27.757600 -13.767500
C -5.677500 -29.576500 -14.349600
N -5.507100 -28.477500 -13.576400
H -5.136300 -26.468100 -11.920300
H -5.062000 -30.267700 -14.431100
C -4.405700 -27.043300 -11.945000
C -4.386100 -28.141700 -12.764500
N -3.361300 -28.975500 -12.884800
C -3.293600 -26.831100 -11.158900
H -3.269400 -26.099900 -10.584100
C -2.309500 -28.724300 -12.115700
C -2.219100 -27.684700 -11.213500
H -1.931500 -31.015000 -13.623900
H -1.472700 -27.569300 -10.672300
N -1.237300 -29.648400 -12.292100
C -1.221200 -30.749800 -13.084200
N -0.094000 -31.388500 -12.996900
C -0.015000 -29.652700 -11.697400
H 0.282700 -29.013300 -11.091300
N 0.674500 -30.671900 -12.093500
47
Fragment
H -14.991400 -24.065000 -16.391200
O -14.280300 -23.724300 -16.165600
O -13.941100 -25.697700 -15.208700
C -13.554500 -24.609800 -15.531300
H -12.855900 -22.470900 -18.572200
O -12.660300 -21.095000 -16.743400
O -12.343900 -22.863200 -18.065600
C -12.287400 -22.223000 -16.916900
C -12.168600 -24.119900 -15.220000
H -11.825200 -25.539100 -13.836800
C -11.596500 -23.011600 -15.843900
C -11.447800 -24.795100 -14.246700
C -10.324300 -22.601900 -15.467300
C -10.175600 -24.385400 -13.870100
H -9.946900 -21.857900 -15.877200
C -9.603500 -23.277100 -14.494000
C -9.484700 -25.174000 -12.797100
O -9.428200 -24.533800 -11.648400
O -9.111800 -26.302000 -12.970600
H -8.916100 -24.926100 -11.141800
C -8.217600 -22.787200 -14.182700
O -7.830900 -21.699300 -14.505300
O -7.491800 -23.672700 -13.548400
H -6.780700 -23.332000 -13.322800
N -7.445400 -28.352400 -14.583200
N -6.823100 -29.528600 -14.960900
H -6.819900 -26.940500 -13.361400
C -6.643500 -27.757600 -13.767500
C -5.677500 -29.576500 -14.349600
N -5.507100 -28.477500 -13.576400
H -5.136300 -26.468100 -11.920300
H -5.062000 -30.267700 -14.431100
C -4.405700 -27.043300 -11.945000
C -4.386100 -28.141700 -12.764500
N -3.361300 -28.975500 -12.884800
C -3.293600 -26.831100 -11.158900
H -3.269400 -26.099900 -10.584100
C -2.309500 -28.724300 -12.115700
C -2.219100 -27.684700 -11.213500
H -1.931500 -31.015000 -13.623900
H -1.472700 -27.569300 -10.672300
N -1.237300 -29.648400 -12.292100
C -1.221200 -30.749800 -13.084200
N -0.094000 -31.388500 -12.996900
C -0.015000 -29.652700 -11.697400
H 0.282700 -29.013300 -11.091300
N 0.674500 -30.671900 -12.093500
