9
Fragment
N -22.105900 -19.039900 -18.501600
N -22.028300 -20.318700 -18.067100
H -21.143800 -16.792800 -18.977400
C -20.906300 -18.544300 -18.373900
N -20.855700 -20.593200 -17.688800
N -20.508800 -17.321300 -18.727300
N -20.133800 -19.461800 -17.866500
H -19.753600 -17.107200 -18.533100
H -19.483200 -19.373200 -17.682400
42
Fragment
H -20.271900 -14.283000 -20.578300
H -20.087700 -14.129000 -18.204200
H -19.910100 -16.434100 -21.322300
H -19.804900 -15.466000 -22.563900
C -19.407300 -14.521900 -20.711600
C -19.381100 -15.681900 -21.658700
H -19.281300 -18.439500 -21.992600
H -19.085600 -17.509500 -15.067200
C -19.066800 -14.066200 -18.417500
H -18.899700 -13.736300 -21.048100
H -18.863500 -13.102900 -18.814900
O -18.791500 -14.922800 -19.494500
H -18.715000 -20.211000 -20.535200
O -18.517600 -15.753000 -16.823100
H -18.462400 -16.946100 -23.627800
H -18.416100 -19.150700 -22.977800
C -18.324900 -18.484100 -22.279500
H -18.225300 -13.738700 -16.589400
C -18.198600 -14.448400 -17.276200
C -18.101000 -17.531700 -15.294400
O -18.046100 -16.076900 -21.844300
O -17.929400 -18.596600 -16.242500
C -17.874500 -17.141800 -22.792400
C -17.776900 -20.225100 -20.810600
H -17.750200 -20.934800 -21.497500
C -17.650500 -16.189400 -15.807300
H -17.559300 -15.522800 -15.109000
H -17.513100 -17.727400 -14.459000
O -17.457900 -18.920500 -21.263800
H -17.260500 -14.462500 -17.551700
O -17.184000 -19.750700 -18.592300
H -17.112000 -21.570600 -19.271900
H -17.075700 -20.937200 -17.038800
C -16.908700 -20.607300 -19.669300
H -16.889900 -17.164000 -23.019700
H -16.694200 -16.234000 -16.094200
C -16.594400 -18.991600 -16.428100
C -16.568200 -20.151600 -17.375200
H -16.170600 -19.207500 -15.522900
H -16.065400 -18.239400 -16.764600
H -15.887800 -20.544500 -19.882600
H -15.703600 -20.390500 -17.508500
51
Fragment
N -22.105900 -19.039900 -18.501600
N -22.028300 -20.318700 -18.067100
H -21.143800 -16.792800 -18.977400
C -20.906300 -18.544300 -18.373900
N -20.855700 -20.593200 -17.688800
N -20.508800 -17.321300 -18.727300
N -20.133800 -19.461800 -17.866500
H -19.753600 -17.107200 -18.533100
H -19.483200 -19.373200 -17.682400
H -20.271900 -14.283000 -20.578300
H -20.087700 -14.129000 -18.204200
H -19.910100 -16.434100 -21.322300
H -19.804900 -15.466000 -22.563900
C -19.407300 -14.521900 -20.711600
C -19.381100 -15.681900 -21.658700
H -19.281300 -18.439500 -21.992600
H -19.085600 -17.509500 -15.067200
C -19.066800 -14.066200 -18.417500
H -18.899700 -13.736300 -21.048100
H -18.863500 -13.102900 -18.814900
O -18.791500 -14.922800 -19.494500
H -18.715000 -20.211000 -20.535200
O -18.517600 -15.753000 -16.823100
H -18.462400 -16.946100 -23.627800
H -18.416100 -19.150700 -22.977800
C -18.324900 -18.484100 -22.279500
H -18.225300 -13.738700 -16.589400
C -18.198600 -14.448400 -17.276200
C -18.101000 -17.531700 -15.294400
O -18.046100 -16.076900 -21.844300
O -17.929400 -18.596600 -16.242500
C -17.874500 -17.141800 -22.792400
C -17.776900 -20.225100 -20.810600
H -17.750200 -20.934800 -21.497500
C -17.650500 -16.189400 -15.807300
H -17.559300 -15.522800 -15.109000
H -17.513100 -17.727400 -14.459000
O -17.457900 -18.920500 -21.263800
H -17.260500 -14.462500 -17.551700
O -17.184000 -19.750700 -18.592300
H -17.112000 -21.570600 -19.271900
H -17.075700 -20.937200 -17.038800
C -16.908700 -20.607300 -19.669300
H -16.889900 -17.164000 -23.019700
H -16.694200 -16.234000 -16.094200
C -16.594400 -18.991600 -16.428100
C -16.568200 -20.151600 -17.375200
H -16.170600 -19.207500 -15.522900
H -16.065400 -18.239400 -16.764600
H -15.887800 -20.544500 -19.882600
H -15.703600 -20.390500 -17.508500
