10
Fragment
H -11.397600 -13.332500 -13.113100
H -10.895000 -12.178900 -15.995900
N -10.875400 -13.017300 -15.763200
C -10.484000 -13.269100 -13.367000
H -10.450000 -13.465400 -16.345400
N -10.025600 -13.098500 -14.628100
N -9.462000 -13.331700 -12.554800
C -8.674800 -13.071800 -14.538900
N -8.296200 -13.213100 -13.290700
H -8.084800 -12.966400 -15.276600
14
Fragment
O -9.222600 -14.131900 -17.986400
C -8.230000 -14.733200 -18.333200
O -7.805100 -14.707800 -19.647600
H -7.441700 -15.756900 -16.676600
N -7.366600 -15.525400 -17.649700
N -6.635800 -15.512200 -19.754300
C -6.448300 -15.945300 -18.563100
C -5.339000 -16.831700 -18.230200
N -5.151500 -17.264700 -17.039000
N -4.420700 -17.251500 -19.143600
H -4.345500 -17.020000 -20.116700
O -3.982200 -18.069200 -17.145700
C -3.557300 -18.043700 -18.460100
O -2.564700 -18.645000 -18.806900
24
Fragment
H -11.397600 -13.332500 -13.113100
H -10.895000 -12.178900 -15.995900
N -10.875400 -13.017300 -15.763200
C -10.484000 -13.269100 -13.367000
H -10.450000 -13.465400 -16.345400
N -10.025600 -13.098500 -14.628100
N -9.462000 -13.331700 -12.554800
C -8.674800 -13.071800 -14.538900
N -8.296200 -13.213100 -13.290700
H -8.084800 -12.966400 -15.276600
O -9.222600 -14.131900 -17.986400
C -8.230000 -14.733200 -18.333200
O -7.805100 -14.707800 -19.647600
H -7.441700 -15.756900 -16.676600
N -7.366600 -15.525400 -17.649700
N -6.635800 -15.512200 -19.754300
C -6.448300 -15.945300 -18.563100
C -5.339000 -16.831700 -18.230200
N -5.151500 -17.264700 -17.039000
N -4.420700 -17.251500 -19.143600
H -4.345500 -17.020000 -20.116700
O -3.982200 -18.069200 -17.145700
C -3.557300 -18.043700 -18.460100
O -2.564700 -18.645000 -18.806900
