10
Fragment
H -11.397600 -13.332500 -13.113100
H -10.895000 -12.178900 -15.995900
N -10.875400 -13.017300 -15.763200
C -10.484000 -13.269100 -13.367000
H -10.450000 -13.465400 -16.345400
N -10.025600 -13.098500 -14.628100
N -9.462000 -13.331700 -12.554800
C -8.674800 -13.071800 -14.538900
N -8.296200 -13.213100 -13.290700
H -8.084800 -12.966400 -15.276600
14
Fragment
O -12.998700 -7.521000 -17.986400
C -12.006200 -8.122200 -18.333200
O -11.581300 -8.096800 -19.647600
H -11.217900 -9.145900 -16.676600
N -11.142800 -8.914400 -17.649700
N -10.412000 -8.901200 -19.754300
C -10.224500 -9.334300 -18.563100
C -9.115100 -10.220700 -18.230200
N -8.927600 -10.653800 -17.039000
N -8.196800 -10.640500 -19.143600
H -8.121700 -10.409100 -20.116700
O -7.758300 -11.458200 -17.145700
C -7.333400 -11.432700 -18.460100
O -6.340900 -12.034000 -18.806900
24
Fragment
H -11.397600 -13.332500 -13.113100
H -10.895000 -12.178900 -15.995900
N -10.875400 -13.017300 -15.763200
C -10.484000 -13.269100 -13.367000
H -10.450000 -13.465400 -16.345400
N -10.025600 -13.098500 -14.628100
N -9.462000 -13.331700 -12.554800
C -8.674800 -13.071800 -14.538900
N -8.296200 -13.213100 -13.290700
H -8.084800 -12.966400 -15.276600
O -12.998700 -7.521000 -17.986400
C -12.006200 -8.122200 -18.333200
O -11.581300 -8.096800 -19.647600
H -11.217900 -9.145900 -16.676600
N -11.142800 -8.914400 -17.649700
N -10.412000 -8.901200 -19.754300
C -10.224500 -9.334300 -18.563100
C -9.115100 -10.220700 -18.230200
N -8.927600 -10.653800 -17.039000
N -8.196800 -10.640500 -19.143600
H -8.121700 -10.409100 -20.116700
O -7.758300 -11.458200 -17.145700
C -7.333400 -11.432700 -18.460100
O -6.340900 -12.034000 -18.806900
