10
Fragment
H -11.397600 -13.332500 -13.113100
H -10.895000 -12.178900 -15.995900
N -10.875400 -13.017300 -15.763200
C -10.484000 -13.269100 -13.367000
H -10.450000 -13.465400 -16.345400
N -10.025600 -13.098500 -14.628100
N -9.462000 -13.331700 -12.554800
C -8.674800 -13.071800 -14.538900
N -8.296200 -13.213100 -13.290700
H -8.084800 -12.966400 -15.276600
10
Fragment
H -16.865500 -13.332500 -13.113100
H -16.362900 -12.178900 -15.995900
N -16.343300 -13.017300 -15.763200
C -15.951900 -13.269100 -13.367000
H -15.917900 -13.465400 -16.345400
N -15.493500 -13.098500 -14.628100
N -14.929900 -13.331700 -12.554800
C -14.142700 -13.071800 -14.538900
N -13.764100 -13.213100 -13.290700
H -13.552700 -12.966400 -15.276600
20
Fragment
H -11.397600 -13.332500 -13.113100
H -10.895000 -12.178900 -15.995900
N -10.875400 -13.017300 -15.763200
C -10.484000 -13.269100 -13.367000
H -10.450000 -13.465400 -16.345400
N -10.025600 -13.098500 -14.628100
N -9.462000 -13.331700 -12.554800
C -8.674800 -13.071800 -14.538900
N -8.296200 -13.213100 -13.290700
H -8.084800 -12.966400 -15.276600
H -16.865500 -13.332500 -13.113100
H -16.362900 -12.178900 -15.995900
N -16.343300 -13.017300 -15.763200
C -15.951900 -13.269100 -13.367000
H -15.917900 -13.465400 -16.345400
N -15.493500 -13.098500 -14.628100
N -14.929900 -13.331700 -12.554800
C -14.142700 -13.071800 -14.538900
N -13.764100 -13.213100 -13.290700
H -13.552700 -12.966400 -15.276600
