10
Fragment
H -11.397600 -13.332500 -13.113100
H -10.895000 -12.178900 -15.995900
N -10.875400 -13.017300 -15.763200
C -10.484000 -13.269100 -13.367000
H -10.450000 -13.465400 -16.345400
N -10.025600 -13.098500 -14.628100
N -9.462000 -13.331700 -12.554800
C -8.674800 -13.071800 -14.538900
N -8.296200 -13.213100 -13.290700
H -8.084800 -12.966400 -15.276600
14
Fragment
O -8.911500 -10.895900 -8.788100
C -7.919000 -11.497200 -9.134900
O -7.494100 -11.471800 -10.449300
H -7.130700 -12.520900 -7.478200
N -7.055600 -12.289400 -8.451400
N -6.324800 -12.276200 -10.556000
C -6.137300 -12.709300 -9.364800
C -5.027900 -13.595700 -9.031800
N -4.840400 -14.028800 -7.840700
N -4.109600 -14.015500 -9.945200
H -4.034500 -13.784000 -10.918400
O -3.671100 -14.833200 -7.947400
C -3.246300 -14.807700 -9.261800
O -2.253700 -15.409000 -9.608600
24
Fragment
H -11.397600 -13.332500 -13.113100
H -10.895000 -12.178900 -15.995900
N -10.875400 -13.017300 -15.763200
C -10.484000 -13.269100 -13.367000
H -10.450000 -13.465400 -16.345400
N -10.025600 -13.098500 -14.628100
N -9.462000 -13.331700 -12.554800
C -8.674800 -13.071800 -14.538900
N -8.296200 -13.213100 -13.290700
H -8.084800 -12.966400 -15.276600
O -8.911500 -10.895900 -8.788100
C -7.919000 -11.497200 -9.134900
O -7.494100 -11.471800 -10.449300
H -7.130700 -12.520900 -7.478200
N -7.055600 -12.289400 -8.451400
N -6.324800 -12.276200 -10.556000
C -6.137300 -12.709300 -9.364800
C -5.027900 -13.595700 -9.031800
N -4.840400 -14.028800 -7.840700
N -4.109600 -14.015500 -9.945200
H -4.034500 -13.784000 -10.918400
O -3.671100 -14.833200 -7.947400
C -3.246300 -14.807700 -9.261800
O -2.253700 -15.409000 -9.608600
