17
Fragment
H -8.368200 -46.116000 -13.613900
O -8.166300 -48.303200 -13.099300
O -7.674400 -46.445600 -14.233600
C -7.518500 -47.726700 -13.977600
H -6.881300 -50.237300 -14.171500
C -6.515300 -48.400700 -14.796400
C -6.339400 -49.771800 -14.685200
H -5.835600 -46.797100 -15.837600
C -5.741700 -47.734500 -15.739300
H -5.446300 -51.343400 -15.358400
C -5.435000 -50.443500 -15.451500
C -4.840200 -48.403200 -16.520200
C -4.662900 -49.771800 -16.392700
H -4.342700 -47.959500 -17.295900
N -3.815100 -50.465400 -17.224400
H -3.638600 -51.302800 -16.965000
H -3.240500 -49.974900 -17.550200
17
Fragment
H -13.237200 -46.116000 -13.613900
O -13.035300 -48.303200 -13.099300
O -12.543400 -46.445600 -14.233600
C -12.387500 -47.726700 -13.977600
H -11.750300 -50.237300 -14.171500
C -11.384300 -48.400700 -14.796400
C -11.208400 -49.771800 -14.685200
H -10.704600 -46.797100 -15.837600
C -10.610700 -47.734500 -15.739300
H -10.315300 -51.343400 -15.358400
C -10.304000 -50.443500 -15.451500
C -9.709200 -48.403200 -16.520200
C -9.531900 -49.771800 -16.392700
H -9.211700 -47.959500 -17.295900
N -8.684100 -50.465400 -17.224400
H -8.507600 -51.302800 -16.965000
H -8.109500 -49.974900 -17.550200
34
Fragment
H -8.368200 -46.116000 -13.613900
O -8.166300 -48.303200 -13.099300
O -7.674400 -46.445600 -14.233600
C -7.518500 -47.726700 -13.977600
H -6.881300 -50.237300 -14.171500
C -6.515300 -48.400700 -14.796400
C -6.339400 -49.771800 -14.685200
H -5.835600 -46.797100 -15.837600
C -5.741700 -47.734500 -15.739300
H -5.446300 -51.343400 -15.358400
C -5.435000 -50.443500 -15.451500
C -4.840200 -48.403200 -16.520200
C -4.662900 -49.771800 -16.392700
H -4.342700 -47.959500 -17.295900
N -3.815100 -50.465400 -17.224400
H -3.638600 -51.302800 -16.965000
H -3.240500 -49.974900 -17.550200
H -13.237200 -46.116000 -13.613900
O -13.035300 -48.303200 -13.099300
O -12.543400 -46.445600 -14.233600
C -12.387500 -47.726700 -13.977600
H -11.750300 -50.237300 -14.171500
C -11.384300 -48.400700 -14.796400
C -11.208400 -49.771800 -14.685200
H -10.704600 -46.797100 -15.837600
C -10.610700 -47.734500 -15.739300
H -10.315300 -51.343400 -15.358400
C -10.304000 -50.443500 -15.451500
C -9.709200 -48.403200 -16.520200
C -9.531900 -49.771800 -16.392700
H -9.211700 -47.959500 -17.295900
N -8.684100 -50.465400 -17.224400
H -8.507600 -51.302800 -16.965000
H -8.109500 -49.974900 -17.550200
