17
Fragment
H -8.368200 -46.116000 -13.613900
O -8.166300 -48.303200 -13.099300
O -7.674400 -46.445600 -14.233600
C -7.518500 -47.726700 -13.977600
H -6.881300 -50.237300 -14.171500
C -6.515300 -48.400700 -14.796400
C -6.339400 -49.771800 -14.685200
H -5.835600 -46.797100 -15.837600
C -5.741700 -47.734500 -15.739300
H -5.446300 -51.343400 -15.358400
C -5.435000 -50.443500 -15.451500
C -4.840200 -48.403200 -16.520200
C -4.662900 -49.771800 -16.392700
H -4.342700 -47.959500 -17.295900
N -3.815100 -50.465400 -17.224400
H -3.638600 -51.302800 -16.965000
H -3.240500 -49.974900 -17.550200
17
Fragment
H -9.143000 -43.763100 -16.926200
H -8.745000 -42.435200 -17.511400
N -8.568400 -43.272600 -17.252000
H -8.040900 -45.778500 -17.180400
C -7.720600 -43.966200 -18.083700
C -7.543400 -45.334800 -17.956200
C -6.948600 -43.294500 -19.024900
H -6.937200 -42.394600 -19.118000
C -6.641900 -46.003500 -18.737000
H -6.547900 -46.940900 -18.638800
C -6.044200 -43.966200 -19.791200
C -5.868300 -45.337300 -19.680000
H -5.502200 -43.500700 -20.304900
C -4.865000 -46.011300 -20.498800
O -4.709200 -47.292400 -20.242800
O -4.217300 -45.434800 -21.377100
H -4.015300 -47.622000 -20.862500
34
Fragment
H -8.368200 -46.116000 -13.613900
O -8.166300 -48.303200 -13.099300
O -7.674400 -46.445600 -14.233600
C -7.518500 -47.726700 -13.977600
H -6.881300 -50.237300 -14.171500
C -6.515300 -48.400700 -14.796400
C -6.339400 -49.771800 -14.685200
H -5.835600 -46.797100 -15.837600
C -5.741700 -47.734500 -15.739300
H -5.446300 -51.343400 -15.358400
C -5.435000 -50.443500 -15.451500
C -4.840200 -48.403200 -16.520200
C -4.662900 -49.771800 -16.392700
H -4.342700 -47.959500 -17.295900
N -3.815100 -50.465400 -17.224400
H -3.638600 -51.302800 -16.965000
H -3.240500 -49.974900 -17.550200
H -9.143000 -43.763100 -16.926200
H -8.745000 -42.435200 -17.511400
N -8.568400 -43.272600 -17.252000
H -8.040900 -45.778500 -17.180400
C -7.720600 -43.966200 -18.083700
C -7.543400 -45.334800 -17.956200
C -6.948600 -43.294500 -19.024900
H -6.937200 -42.394600 -19.118000
C -6.641900 -46.003500 -18.737000
H -6.547900 -46.940900 -18.638800
C -6.044200 -43.966200 -19.791200
C -5.868300 -45.337300 -19.680000
H -5.502200 -43.500700 -20.304900
C -4.865000 -46.011300 -20.498800
O -4.709200 -47.292400 -20.242800
O -4.217300 -45.434800 -21.377100
H -4.015300 -47.622000 -20.862500
