17
Fragment
H -8.368200 -46.116000 -13.613900
O -8.166300 -48.303200 -13.099300
O -7.674400 -46.445600 -14.233600
C -7.518500 -47.726700 -13.977600
H -6.881300 -50.237300 -14.171500
C -6.515300 -48.400700 -14.796400
C -6.339400 -49.771800 -14.685200
H -5.835600 -46.797100 -15.837600
C -5.741700 -47.734500 -15.739300
H -5.446300 -51.343400 -15.358400
C -5.435000 -50.443500 -15.451500
C -4.840200 -48.403200 -16.520200
C -4.662900 -49.771800 -16.392700
H -4.342700 -47.959500 -17.295900
N -3.815100 -50.465400 -17.224400
H -3.638600 -51.302800 -16.965000
H -3.240500 -49.974900 -17.550200
17
Fragment
H -14.567900 -43.763100 -8.307100
H -14.169800 -42.435200 -8.892300
N -13.993300 -43.272600 -8.632900
H -13.465700 -45.778500 -8.561300
C -13.145500 -43.966200 -9.464600
C -12.968200 -45.334800 -9.337100
C -12.373400 -43.294500 -10.405800
H -12.362100 -42.394600 -10.498900
C -12.066800 -46.003500 -10.118000
H -11.972800 -46.940900 -10.019700
C -11.469000 -43.966200 -11.172100
C -11.293100 -45.337300 -11.060900
H -10.927100 -43.500700 -11.685800
C -10.289900 -46.011300 -11.879700
O -10.134000 -47.292400 -11.623700
O -9.642200 -45.434800 -12.758000
H -9.440200 -47.622000 -12.243400
34
Fragment
H -8.368200 -46.116000 -13.613900
O -8.166300 -48.303200 -13.099300
O -7.674400 -46.445600 -14.233600
C -7.518500 -47.726700 -13.977600
H -6.881300 -50.237300 -14.171500
C -6.515300 -48.400700 -14.796400
C -6.339400 -49.771800 -14.685200
H -5.835600 -46.797100 -15.837600
C -5.741700 -47.734500 -15.739300
H -5.446300 -51.343400 -15.358400
C -5.435000 -50.443500 -15.451500
C -4.840200 -48.403200 -16.520200
C -4.662900 -49.771800 -16.392700
H -4.342700 -47.959500 -17.295900
N -3.815100 -50.465400 -17.224400
H -3.638600 -51.302800 -16.965000
H -3.240500 -49.974900 -17.550200
H -14.567900 -43.763100 -8.307100
H -14.169800 -42.435200 -8.892300
N -13.993300 -43.272600 -8.632900
H -13.465700 -45.778500 -8.561300
C -13.145500 -43.966200 -9.464600
C -12.968200 -45.334800 -9.337100
C -12.373400 -43.294500 -10.405800
H -12.362100 -42.394600 -10.498900
C -12.066800 -46.003500 -10.118000
H -11.972800 -46.940900 -10.019700
C -11.469000 -43.966200 -11.172100
C -11.293100 -45.337300 -11.060900
H -10.927100 -43.500700 -11.685800
C -10.289900 -46.011300 -11.879700
O -10.134000 -47.292400 -11.623700
O -9.642200 -45.434800 -12.758000
H -9.440200 -47.622000 -12.243400
