17
Fragment
H -8.368200 -46.116000 -13.613900
O -8.166300 -48.303200 -13.099300
O -7.674400 -46.445600 -14.233600
C -7.518500 -47.726700 -13.977600
H -6.881300 -50.237300 -14.171500
C -6.515300 -48.400700 -14.796400
C -6.339400 -49.771800 -14.685200
H -5.835600 -46.797100 -15.837600
C -5.741700 -47.734500 -15.739300
H -5.446300 -51.343400 -15.358400
C -5.435000 -50.443500 -15.451500
C -4.840200 -48.403200 -16.520200
C -4.662900 -49.771800 -16.392700
H -4.342700 -47.959500 -17.295900
N -3.815100 -50.465400 -17.224400
H -3.638600 -51.302800 -16.965000
H -3.240500 -49.974900 -17.550200
16
Fragment
O -9.577000 -55.474100 -12.635600
H -9.460900 -53.055700 -12.902800
C -8.810300 -52.890100 -12.285700
H -8.767500 -50.856000 -12.481300
N -8.659500 -55.305400 -11.838300
C -8.394400 -51.621500 -12.075400
C -8.227400 -53.933700 -11.599600
O -8.102400 -56.227200 -11.272900
C -7.388500 -51.352800 -11.154000
C -7.258100 -53.696300 -10.685100
H -7.257900 -49.409300 -11.503900
N -6.985000 -50.056100 -10.902300
C -6.826900 -52.418300 -10.455800
H -6.761900 -54.396200 -10.134300
H -6.266700 -50.084200 -10.489400
H -6.196700 -52.305800 -9.838700
33
Fragment
H -8.368200 -46.116000 -13.613900
O -8.166300 -48.303200 -13.099300
O -7.674400 -46.445600 -14.233600
C -7.518500 -47.726700 -13.977600
H -6.881300 -50.237300 -14.171500
C -6.515300 -48.400700 -14.796400
C -6.339400 -49.771800 -14.685200
H -5.835600 -46.797100 -15.837600
C -5.741700 -47.734500 -15.739300
H -5.446300 -51.343400 -15.358400
C -5.435000 -50.443500 -15.451500
C -4.840200 -48.403200 -16.520200
C -4.662900 -49.771800 -16.392700
H -4.342700 -47.959500 -17.295900
N -3.815100 -50.465400 -17.224400
H -3.638600 -51.302800 -16.965000
H -3.240500 -49.974900 -17.550200
O -9.577000 -55.474100 -12.635600
H -9.460900 -53.055700 -12.902800
C -8.810300 -52.890100 -12.285700
H -8.767500 -50.856000 -12.481300
N -8.659500 -55.305400 -11.838300
C -8.394400 -51.621500 -12.075400
C -8.227400 -53.933700 -11.599600
O -8.102400 -56.227200 -11.272900
C -7.388500 -51.352800 -11.154000
C -7.258100 -53.696300 -10.685100
H -7.257900 -49.409300 -11.503900
N -6.985000 -50.056100 -10.902300
C -6.826900 -52.418300 -10.455800
H -6.761900 -54.396200 -10.134300
H -6.266700 -50.084200 -10.489400
H -6.196700 -52.305800 -9.838700
