23
Fragment
N -18.408900 -16.602700 -19.733600
N -18.338200 -17.310900 -24.011700
H -18.276600 -20.475300 -23.093100
C -17.892800 -17.521600 -22.987200
C -17.886200 -17.165700 -20.572400
H -17.761200 -21.265100 -22.021300
C -17.515600 -20.965600 -22.854900
H -17.387700 -21.709500 -23.417000
C -17.227700 -17.774300 -21.721600
O -16.880400 -19.324900 -19.323800
C -16.377100 -19.028500 -21.621200
C -16.365100 -20.020700 -22.802400
C -16.227200 -19.707700 -20.235600
C -15.665700 -17.700700 -21.793900
H -15.588000 -21.642600 -20.750600
O -15.436300 -20.012500 -23.563600
C -15.248900 -20.823900 -20.184400
H -15.187300 -21.125300 -19.286400
C -15.111000 -17.309400 -23.083000
C -14.991900 -17.115500 -20.644700
N -14.738600 -16.900100 -24.085300
N -14.496900 -16.658000 -19.724700
H -14.398600 -20.525500 -20.633400
23
Fragment
H -22.121400 -14.551500 -18.869000
N -22.023000 -10.684000 -19.777700
N -21.781300 -10.926100 -15.417100
C -21.528100 -11.141500 -18.857700
C -21.408900 -11.335400 -16.419400
H -21.332700 -15.151300 -20.216000
C -21.271100 -14.849900 -19.318000
O -21.083700 -14.038500 -15.938800
H -20.931900 -15.668600 -18.751800
C -20.854300 -11.726700 -17.708500
C -20.292700 -13.733700 -19.266800
C -20.154800 -14.046700 -16.700000
C -20.142900 -13.054500 -17.881200
O -19.639600 -13.350900 -20.178600
C -19.292300 -11.800300 -17.780800
H -19.132200 -15.735500 -16.085400
C -19.004400 -14.991600 -16.647500
H -18.758800 -15.291100 -17.481100
C -18.633800 -11.191700 -18.929900
C -18.627100 -11.547600 -16.515200
H -18.243400 -14.501300 -16.409300
N -18.181800 -11.336900 -15.490700
N -18.111100 -10.628700 -19.768800
46
Fragment
N -18.408900 -16.602700 -19.733600
N -18.338200 -17.310900 -24.011700
H -18.276600 -20.475300 -23.093100
C -17.892800 -17.521600 -22.987200
C -17.886200 -17.165700 -20.572400
H -17.761200 -21.265100 -22.021300
C -17.515600 -20.965600 -22.854900
H -17.387700 -21.709500 -23.417000
C -17.227700 -17.774300 -21.721600
O -16.880400 -19.324900 -19.323800
C -16.377100 -19.028500 -21.621200
C -16.365100 -20.020700 -22.802400
C -16.227200 -19.707700 -20.235600
C -15.665700 -17.700700 -21.793900
H -15.588000 -21.642600 -20.750600
O -15.436300 -20.012500 -23.563600
C -15.248900 -20.823900 -20.184400
H -15.187300 -21.125300 -19.286400
C -15.111000 -17.309400 -23.083000
C -14.991900 -17.115500 -20.644700
N -14.738600 -16.900100 -24.085300
N -14.496900 -16.658000 -19.724700
H -14.398600 -20.525500 -20.633400
H -22.121400 -14.551500 -18.869000
N -22.023000 -10.684000 -19.777700
N -21.781300 -10.926100 -15.417100
C -21.528100 -11.141500 -18.857700
C -21.408900 -11.335400 -16.419400
H -21.332700 -15.151300 -20.216000
C -21.271100 -14.849900 -19.318000
O -21.083700 -14.038500 -15.938800
H -20.931900 -15.668600 -18.751800
C -20.854300 -11.726700 -17.708500
C -20.292700 -13.733700 -19.266800
C -20.154800 -14.046700 -16.700000
C -20.142900 -13.054500 -17.881200
O -19.639600 -13.350900 -20.178600
C -19.292300 -11.800300 -17.780800
H -19.132200 -15.735500 -16.085400
C -19.004400 -14.991600 -16.647500
H -18.758800 -15.291100 -17.481100
C -18.633800 -11.191700 -18.929900
C -18.627100 -11.547600 -16.515200
H -18.243400 -14.501300 -16.409300
N -18.181800 -11.336900 -15.490700
N -18.111100 -10.628700 -19.768800
