23
Fragment
N -18.408900 -16.602700 -19.733600
N -18.338200 -17.310900 -24.011700
H -18.276600 -20.475300 -23.093100
C -17.892800 -17.521600 -22.987200
C -17.886200 -17.165700 -20.572400
H -17.761200 -21.265100 -22.021300
C -17.515600 -20.965600 -22.854900
H -17.387700 -21.709500 -23.417000
C -17.227700 -17.774300 -21.721600
O -16.880400 -19.324900 -19.323800
C -16.377100 -19.028500 -21.621200
C -16.365100 -20.020700 -22.802400
C -16.227200 -19.707700 -20.235600
C -15.665700 -17.700700 -21.793900
H -15.588000 -21.642600 -20.750600
O -15.436300 -20.012500 -23.563600
C -15.248900 -20.823900 -20.184400
H -15.187300 -21.125300 -19.286400
C -15.111000 -17.309400 -23.083000
C -14.991900 -17.115500 -20.644700
N -14.738600 -16.900100 -24.085300
N -14.496900 -16.658000 -19.724700
H -14.398600 -20.525500 -20.633400
14
Fragment
O -18.192400 -17.939200 -15.056300
H -18.121100 -18.384400 -16.938600
H -17.822500 -17.598200 -13.112200
C -17.468200 -18.208200 -16.261600
C -17.263100 -17.668200 -13.999000
H -17.093200 -20.198100 -15.789100
H -16.944700 -17.469200 -16.489600
H -16.824200 -19.562500 -13.541400
H -16.738500 -16.800100 -14.216900
C -16.561100 -19.389100 -16.063100
C -16.322000 -18.823200 -13.800400
H -16.021200 -19.623400 -16.857000
O -15.618200 -19.129700 -15.003700
H -15.592900 -18.595900 -13.210900
37
Fragment
N -18.408900 -16.602700 -19.733600
N -18.338200 -17.310900 -24.011700
H -18.276600 -20.475300 -23.093100
C -17.892800 -17.521600 -22.987200
C -17.886200 -17.165700 -20.572400
H -17.761200 -21.265100 -22.021300
C -17.515600 -20.965600 -22.854900
H -17.387700 -21.709500 -23.417000
C -17.227700 -17.774300 -21.721600
O -16.880400 -19.324900 -19.323800
C -16.377100 -19.028500 -21.621200
C -16.365100 -20.020700 -22.802400
C -16.227200 -19.707700 -20.235600
C -15.665700 -17.700700 -21.793900
H -15.588000 -21.642600 -20.750600
O -15.436300 -20.012500 -23.563600
C -15.248900 -20.823900 -20.184400
H -15.187300 -21.125300 -19.286400
C -15.111000 -17.309400 -23.083000
C -14.991900 -17.115500 -20.644700
N -14.738600 -16.900100 -24.085300
N -14.496900 -16.658000 -19.724700
H -14.398600 -20.525500 -20.633400
O -18.192400 -17.939200 -15.056300
H -18.121100 -18.384400 -16.938600
H -17.822500 -17.598200 -13.112200
C -17.468200 -18.208200 -16.261600
C -17.263100 -17.668200 -13.999000
H -17.093200 -20.198100 -15.789100
H -16.944700 -17.469200 -16.489600
H -16.824200 -19.562500 -13.541400
H -16.738500 -16.800100 -14.216900
C -16.561100 -19.389100 -16.063100
C -16.322000 -18.823200 -13.800400
H -16.021200 -19.623400 -16.857000
O -15.618200 -19.129700 -15.003700
H -15.592900 -18.595900 -13.210900
