23
Fragment
N -18.408900 -16.602700 -19.733600
N -18.338200 -17.310900 -24.011700
H -18.276600 -20.475300 -23.093100
C -17.892800 -17.521600 -22.987200
C -17.886200 -17.165700 -20.572400
H -17.761200 -21.265100 -22.021300
C -17.515600 -20.965600 -22.854900
H -17.387700 -21.709500 -23.417000
C -17.227700 -17.774300 -21.721600
O -16.880400 -19.324900 -19.323800
C -16.377100 -19.028500 -21.621200
C -16.365100 -20.020700 -22.802400
C -16.227200 -19.707700 -20.235600
C -15.665700 -17.700700 -21.793900
H -15.588000 -21.642600 -20.750600
O -15.436300 -20.012500 -23.563600
C -15.248900 -20.823900 -20.184400
H -15.187300 -21.125300 -19.286400
C -15.111000 -17.309400 -23.083000
C -14.991900 -17.115500 -20.644700
N -14.738600 -16.900100 -24.085300
N -14.496900 -16.658000 -19.724700
H -14.398600 -20.525500 -20.633400
23
Fragment
N -16.800300 -14.258000 -26.647500
N -16.617200 -14.572300 -22.346200
H -16.477100 -10.876300 -25.597500
C -16.235000 -14.001000 -25.700100
C -16.138400 -14.104300 -23.265100
H -15.548400 -10.200000 -26.737900
C -15.512000 -10.515300 -25.871600
C -15.490300 -13.671100 -24.495000
O -15.307100 -11.602100 -22.459700
H -15.252900 -9.829600 -25.253900
C -14.554100 -12.472000 -24.541300
C -14.549100 -11.644400 -25.848500
C -14.409800 -11.634200 -23.253000
C -13.931400 -13.850400 -24.562700
O -13.797400 -11.948000 -26.732700
C -13.380500 -14.438800 -25.777800
C -13.322500 -14.320600 -23.323700
H -13.130500 -10.194000 -23.806800
C -13.125100 -10.879400 -23.135400
H -13.039800 -10.477200 -22.303000
N -12.990000 -14.979100 -26.702000
N -12.916200 -14.665000 -22.327100
H -12.275800 -11.503500 -23.380100
46
Fragment
N -18.408900 -16.602700 -19.733600
N -18.338200 -17.310900 -24.011700
H -18.276600 -20.475300 -23.093100
C -17.892800 -17.521600 -22.987200
C -17.886200 -17.165700 -20.572400
H -17.761200 -21.265100 -22.021300
C -17.515600 -20.965600 -22.854900
H -17.387700 -21.709500 -23.417000
C -17.227700 -17.774300 -21.721600
O -16.880400 -19.324900 -19.323800
C -16.377100 -19.028500 -21.621200
C -16.365100 -20.020700 -22.802400
C -16.227200 -19.707700 -20.235600
C -15.665700 -17.700700 -21.793900
H -15.588000 -21.642600 -20.750600
O -15.436300 -20.012500 -23.563600
C -15.248900 -20.823900 -20.184400
H -15.187300 -21.125300 -19.286400
C -15.111000 -17.309400 -23.083000
C -14.991900 -17.115500 -20.644700
N -14.738600 -16.900100 -24.085300
N -14.496900 -16.658000 -19.724700
H -14.398600 -20.525500 -20.633400
N -16.800300 -14.258000 -26.647500
N -16.617200 -14.572300 -22.346200
H -16.477100 -10.876300 -25.597500
C -16.235000 -14.001000 -25.700100
C -16.138400 -14.104300 -23.265100
H -15.548400 -10.200000 -26.737900
C -15.512000 -10.515300 -25.871600
C -15.490300 -13.671100 -24.495000
O -15.307100 -11.602100 -22.459700
H -15.252900 -9.829600 -25.253900
C -14.554100 -12.472000 -24.541300
C -14.549100 -11.644400 -25.848500
C -14.409800 -11.634200 -23.253000
C -13.931400 -13.850400 -24.562700
O -13.797400 -11.948000 -26.732700
C -13.380500 -14.438800 -25.777800
C -13.322500 -14.320600 -23.323700
H -13.130500 -10.194000 -23.806800
C -13.125100 -10.879400 -23.135400
H -13.039800 -10.477200 -22.303000
N -12.990000 -14.979100 -26.702000
N -12.916200 -14.665000 -22.327100
H -12.275800 -11.503500 -23.380100
