23
Fragment
N -18.408900 -16.602700 -19.733600
N -18.338200 -17.310900 -24.011700
H -18.276600 -20.475300 -23.093100
C -17.892800 -17.521600 -22.987200
C -17.886200 -17.165700 -20.572400
H -17.761200 -21.265100 -22.021300
C -17.515600 -20.965600 -22.854900
H -17.387700 -21.709500 -23.417000
C -17.227700 -17.774300 -21.721600
O -16.880400 -19.324900 -19.323800
C -16.377100 -19.028500 -21.621200
C -16.365100 -20.020700 -22.802400
C -16.227200 -19.707700 -20.235600
C -15.665700 -17.700700 -21.793900
H -15.588000 -21.642600 -20.750600
O -15.436300 -20.012500 -23.563600
C -15.248900 -20.823900 -20.184400
H -15.187300 -21.125300 -19.286400
C -15.111000 -17.309400 -23.083000
C -14.991900 -17.115500 -20.644700
N -14.738600 -16.900100 -24.085300
N -14.496900 -16.658000 -19.724700
H -14.398600 -20.525500 -20.633400
14
Fragment
H -20.927000 -24.569900 -26.291500
O -20.901800 -25.103700 -24.498700
H -20.498700 -25.597400 -22.645400
C -20.198000 -24.797200 -25.702000
C -19.958900 -25.363100 -23.439300
H -19.781500 -22.774100 -25.285500
H -19.695800 -25.536500 -25.961000
H -19.575300 -23.443200 -23.012800
H -19.426700 -26.172100 -23.713300
C -19.256800 -23.642200 -25.503400
C -19.051800 -24.182200 -23.240800
H -18.697400 -23.572200 -26.390200
H -18.398800 -24.358400 -22.563800
O -18.327500 -23.913200 -24.446100
37
Fragment
N -18.408900 -16.602700 -19.733600
N -18.338200 -17.310900 -24.011700
H -18.276600 -20.475300 -23.093100
C -17.892800 -17.521600 -22.987200
C -17.886200 -17.165700 -20.572400
H -17.761200 -21.265100 -22.021300
C -17.515600 -20.965600 -22.854900
H -17.387700 -21.709500 -23.417000
C -17.227700 -17.774300 -21.721600
O -16.880400 -19.324900 -19.323800
C -16.377100 -19.028500 -21.621200
C -16.365100 -20.020700 -22.802400
C -16.227200 -19.707700 -20.235600
C -15.665700 -17.700700 -21.793900
H -15.588000 -21.642600 -20.750600
O -15.436300 -20.012500 -23.563600
C -15.248900 -20.823900 -20.184400
H -15.187300 -21.125300 -19.286400
C -15.111000 -17.309400 -23.083000
C -14.991900 -17.115500 -20.644700
N -14.738600 -16.900100 -24.085300
N -14.496900 -16.658000 -19.724700
H -14.398600 -20.525500 -20.633400
H -20.927000 -24.569900 -26.291500
O -20.901800 -25.103700 -24.498700
H -20.498700 -25.597400 -22.645400
C -20.198000 -24.797200 -25.702000
C -19.958900 -25.363100 -23.439300
H -19.781500 -22.774100 -25.285500
H -19.695800 -25.536500 -25.961000
H -19.575300 -23.443200 -23.012800
H -19.426700 -26.172100 -23.713300
C -19.256800 -23.642200 -25.503400
C -19.051800 -24.182200 -23.240800
H -18.697400 -23.572200 -26.390200
H -18.398800 -24.358400 -22.563800
O -18.327500 -23.913200 -24.446100
