23
Fragment
N -18.408900 -16.602700 -19.733600
N -18.338200 -17.310900 -24.011700
H -18.276600 -20.475300 -23.093100
C -17.892800 -17.521600 -22.987200
C -17.886200 -17.165700 -20.572400
H -17.761200 -21.265100 -22.021300
C -17.515600 -20.965600 -22.854900
H -17.387700 -21.709500 -23.417000
C -17.227700 -17.774300 -21.721600
O -16.880400 -19.324900 -19.323800
C -16.377100 -19.028500 -21.621200
C -16.365100 -20.020700 -22.802400
C -16.227200 -19.707700 -20.235600
C -15.665700 -17.700700 -21.793900
H -15.588000 -21.642600 -20.750600
O -15.436300 -20.012500 -23.563600
C -15.248900 -20.823900 -20.184400
H -15.187300 -21.125300 -19.286400
C -15.111000 -17.309400 -23.083000
C -14.991900 -17.115500 -20.644700
N -14.738600 -16.900100 -24.085300
N -14.496900 -16.658000 -19.724700
H -14.398600 -20.525500 -20.633400
14
Fragment
O -12.800500 -19.010100 -21.538900
H -12.736200 -19.037900 -23.507900
H -12.439600 -18.918500 -19.647200
C -12.126500 -18.721400 -22.769000
C -11.947200 -18.675800 -20.430100
H -11.913700 -17.691400 -22.865300
H -11.759100 -17.690200 -20.453000
H -10.985900 -20.462100 -22.823200
C -10.819500 -19.440000 -22.842400
H -10.795300 -20.489600 -20.566300
C -10.648300 -19.401500 -20.514500
H -10.357400 -19.158600 -23.675100
H -10.048500 -19.048700 -19.782800
O -9.978200 -19.078600 -21.733000
37
Fragment
N -18.408900 -16.602700 -19.733600
N -18.338200 -17.310900 -24.011700
H -18.276600 -20.475300 -23.093100
C -17.892800 -17.521600 -22.987200
C -17.886200 -17.165700 -20.572400
H -17.761200 -21.265100 -22.021300
C -17.515600 -20.965600 -22.854900
H -17.387700 -21.709500 -23.417000
C -17.227700 -17.774300 -21.721600
O -16.880400 -19.324900 -19.323800
C -16.377100 -19.028500 -21.621200
C -16.365100 -20.020700 -22.802400
C -16.227200 -19.707700 -20.235600
C -15.665700 -17.700700 -21.793900
H -15.588000 -21.642600 -20.750600
O -15.436300 -20.012500 -23.563600
C -15.248900 -20.823900 -20.184400
H -15.187300 -21.125300 -19.286400
C -15.111000 -17.309400 -23.083000
C -14.991900 -17.115500 -20.644700
N -14.738600 -16.900100 -24.085300
N -14.496900 -16.658000 -19.724700
H -14.398600 -20.525500 -20.633400
O -12.800500 -19.010100 -21.538900
H -12.736200 -19.037900 -23.507900
H -12.439600 -18.918500 -19.647200
C -12.126500 -18.721400 -22.769000
C -11.947200 -18.675800 -20.430100
H -11.913700 -17.691400 -22.865300
H -11.759100 -17.690200 -20.453000
H -10.985900 -20.462100 -22.823200
C -10.819500 -19.440000 -22.842400
H -10.795300 -20.489600 -20.566300
C -10.648300 -19.401500 -20.514500
H -10.357400 -19.158600 -23.675100
H -10.048500 -19.048700 -19.782800
O -9.978200 -19.078600 -21.733000
