23
Fragment
N -18.408900 -16.602700 -19.733600
N -18.338200 -17.310900 -24.011700
H -18.276600 -20.475300 -23.093100
C -17.892800 -17.521600 -22.987200
C -17.886200 -17.165700 -20.572400
H -17.761200 -21.265100 -22.021300
C -17.515600 -20.965600 -22.854900
H -17.387700 -21.709500 -23.417000
C -17.227700 -17.774300 -21.721600
O -16.880400 -19.324900 -19.323800
C -16.377100 -19.028500 -21.621200
C -16.365100 -20.020700 -22.802400
C -16.227200 -19.707700 -20.235600
C -15.665700 -17.700700 -21.793900
H -15.588000 -21.642600 -20.750600
O -15.436300 -20.012500 -23.563600
C -15.248900 -20.823900 -20.184400
H -15.187300 -21.125300 -19.286400
C -15.111000 -17.309400 -23.083000
C -14.991900 -17.115500 -20.644700
N -14.738600 -16.900100 -24.085300
N -14.496900 -16.658000 -19.724700
H -14.398600 -20.525500 -20.633400
23
Fragment
N -16.800300 -26.206000 -26.647500
N -16.617200 -26.520300 -22.346200
H -16.477100 -22.824300 -25.597500
C -16.235000 -25.949000 -25.700100
C -16.138400 -26.052300 -23.265100
H -15.548400 -22.148000 -26.737900
C -15.512000 -22.463300 -25.871600
C -15.490300 -25.619100 -24.495000
O -15.307100 -23.550100 -22.459700
H -15.252900 -21.777600 -25.253900
C -14.554100 -24.420000 -24.541300
C -14.549100 -23.592400 -25.848500
C -14.409800 -23.582200 -23.253000
C -13.931400 -25.798400 -24.562700
O -13.797400 -23.896000 -26.732700
C -13.380500 -26.386800 -25.777800
C -13.322500 -26.268600 -23.323700
H -13.130500 -22.142000 -23.806800
C -13.125100 -22.827400 -23.135400
H -13.039800 -22.425200 -22.303000
N -12.990000 -26.927100 -26.702000
N -12.916200 -26.613000 -22.327100
H -12.275800 -23.451500 -23.380100
46
Fragment
N -18.408900 -16.602700 -19.733600
N -18.338200 -17.310900 -24.011700
H -18.276600 -20.475300 -23.093100
C -17.892800 -17.521600 -22.987200
C -17.886200 -17.165700 -20.572400
H -17.761200 -21.265100 -22.021300
C -17.515600 -20.965600 -22.854900
H -17.387700 -21.709500 -23.417000
C -17.227700 -17.774300 -21.721600
O -16.880400 -19.324900 -19.323800
C -16.377100 -19.028500 -21.621200
C -16.365100 -20.020700 -22.802400
C -16.227200 -19.707700 -20.235600
C -15.665700 -17.700700 -21.793900
H -15.588000 -21.642600 -20.750600
O -15.436300 -20.012500 -23.563600
C -15.248900 -20.823900 -20.184400
H -15.187300 -21.125300 -19.286400
C -15.111000 -17.309400 -23.083000
C -14.991900 -17.115500 -20.644700
N -14.738600 -16.900100 -24.085300
N -14.496900 -16.658000 -19.724700
H -14.398600 -20.525500 -20.633400
N -16.800300 -26.206000 -26.647500
N -16.617200 -26.520300 -22.346200
H -16.477100 -22.824300 -25.597500
C -16.235000 -25.949000 -25.700100
C -16.138400 -26.052300 -23.265100
H -15.548400 -22.148000 -26.737900
C -15.512000 -22.463300 -25.871600
C -15.490300 -25.619100 -24.495000
O -15.307100 -23.550100 -22.459700
H -15.252900 -21.777600 -25.253900
C -14.554100 -24.420000 -24.541300
C -14.549100 -23.592400 -25.848500
C -14.409800 -23.582200 -23.253000
C -13.931400 -25.798400 -24.562700
O -13.797400 -23.896000 -26.732700
C -13.380500 -26.386800 -25.777800
C -13.322500 -26.268600 -23.323700
H -13.130500 -22.142000 -23.806800
C -13.125100 -22.827400 -23.135400
H -13.039800 -22.425200 -22.303000
N -12.990000 -26.927100 -26.702000
N -12.916200 -26.613000 -22.327100
H -12.275800 -23.451500 -23.380100
