13
Fragment
O -8.288300 -6.500200 -32.676300
H -8.000700 -6.233600 -30.313000
C -7.734500 -7.250000 -31.883900
N -7.579600 -6.928100 -30.566500
H -7.424500 -8.590200 -33.174700
N -7.242600 -8.463800 -32.309700
C -7.013000 -7.743700 -29.604100
O -6.980700 -7.393500 -28.444000
H -6.898900 -9.696000 -29.533300
C -6.620800 -9.391900 -31.522000
C -6.444300 -9.049000 -30.073700
O -6.235900 -10.451000 -31.998100
H -5.487600 -9.064100 -29.913100
17
Fragment
O -10.273700 -14.328100 -25.829100
H -9.965500 -14.922500 -23.635600
C -9.615400 -13.746200 -24.973100
O -9.504500 -14.205700 -23.730100
H -9.221400 -12.381700 -27.207700
C -8.936300 -12.458700 -25.186000
C -8.861200 -11.909700 -26.473900
H -8.417500 -12.131500 -23.204400
C -8.376700 -11.745800 -24.111600
C -8.265800 -10.686700 -26.682700
H -8.146500 -10.334500 -27.560700
C -7.779000 -10.525400 -24.315400
C -7.708100 -9.965200 -25.606200
H -7.422300 -10.058100 -23.584200
N -7.107300 -8.762000 -25.804800
H -7.101700 -8.432200 -26.633600
H -6.718500 -8.392700 -25.098800
30
Fragment
O -8.288300 -6.500200 -32.676300
H -8.000700 -6.233600 -30.313000
C -7.734500 -7.250000 -31.883900
N -7.579600 -6.928100 -30.566500
H -7.424500 -8.590200 -33.174700
N -7.242600 -8.463800 -32.309700
C -7.013000 -7.743700 -29.604100
O -6.980700 -7.393500 -28.444000
H -6.898900 -9.696000 -29.533300
C -6.620800 -9.391900 -31.522000
C -6.444300 -9.049000 -30.073700
O -6.235900 -10.451000 -31.998100
H -5.487600 -9.064100 -29.913100
O -10.273700 -14.328100 -25.829100
H -9.965500 -14.922500 -23.635600
C -9.615400 -13.746200 -24.973100
O -9.504500 -14.205700 -23.730100
H -9.221400 -12.381700 -27.207700
C -8.936300 -12.458700 -25.186000
C -8.861200 -11.909700 -26.473900
H -8.417500 -12.131500 -23.204400
C -8.376700 -11.745800 -24.111600
C -8.265800 -10.686700 -26.682700
H -8.146500 -10.334500 -27.560700
C -7.779000 -10.525400 -24.315400
C -7.708100 -9.965200 -25.606200
H -7.422300 -10.058100 -23.584200
N -7.107300 -8.762000 -25.804800
H -7.101700 -8.432200 -26.633600
H -6.718500 -8.392700 -25.098800
