17
Fragment
H -14.105800 -11.570100 -36.074200
H -13.573200 -12.508200 -33.967200
N -13.304800 -11.760700 -36.422200
H -13.182300 -11.700700 -37.320500
C -12.754000 -12.836000 -34.341700
C -12.461500 -12.538400 -35.684700
H -12.064300 -13.747400 -32.658900
C -11.874300 -13.578000 -33.588000
C -11.260100 -13.028400 -36.233600
H -11.047000 -12.838700 -37.155600
C -10.680400 -14.057400 -34.128700
C -10.387600 -13.773900 -35.467800
O -10.045000 -15.165600 -32.121200
C -9.765200 -14.813300 -33.259700
H -9.575600 -14.080100 -35.853700
O -8.584200 -15.060000 -33.820500
H -8.063000 -15.487400 -33.237000
15
Fragment
O -13.101400 -11.578700 -39.386000
H -12.345600 -12.295800 -41.607300
C -12.021500 -11.296300 -39.903100
N -11.720200 -11.799400 -41.160200
H -11.184800 -10.053800 -38.472500
C -10.999800 -10.469100 -39.318500
C -10.543400 -11.616100 -41.814200
O -10.315200 -12.145100 -42.915200
C -9.847300 -10.230100 -39.977800
N -9.633800 -10.813800 -41.207800
H -9.002100 -8.891900 -38.701600
H -8.871100 -10.693300 -41.665100
C -8.748100 -9.341100 -39.499700
H -8.566800 -8.658000 -40.176900
H -7.923400 -9.860800 -39.339700
32
Fragment
H -14.105800 -11.570100 -36.074200
H -13.573200 -12.508200 -33.967200
N -13.304800 -11.760700 -36.422200
H -13.182300 -11.700700 -37.320500
C -12.754000 -12.836000 -34.341700
C -12.461500 -12.538400 -35.684700
H -12.064300 -13.747400 -32.658900
C -11.874300 -13.578000 -33.588000
C -11.260100 -13.028400 -36.233600
H -11.047000 -12.838700 -37.155600
C -10.680400 -14.057400 -34.128700
C -10.387600 -13.773900 -35.467800
O -10.045000 -15.165600 -32.121200
C -9.765200 -14.813300 -33.259700
H -9.575600 -14.080100 -35.853700
O -8.584200 -15.060000 -33.820500
H -8.063000 -15.487400 -33.237000
O -13.101400 -11.578700 -39.386000
H -12.345600 -12.295800 -41.607300
C -12.021500 -11.296300 -39.903100
N -11.720200 -11.799400 -41.160200
H -11.184800 -10.053800 -38.472500
C -10.999800 -10.469100 -39.318500
C -10.543400 -11.616100 -41.814200
O -10.315200 -12.145100 -42.915200
C -9.847300 -10.230100 -39.977800
N -9.633800 -10.813800 -41.207800
H -9.002100 -8.891900 -38.701600
H -8.871100 -10.693300 -41.665100
C -8.748100 -9.341100 -39.499700
H -8.566800 -8.658000 -40.176900
H -7.923400 -9.860800 -39.339700
