17
Fragment
H -14.105800 -11.570100 -36.074200
H -13.573200 -12.508200 -33.967200
N -13.304800 -11.760700 -36.422200
H -13.182300 -11.700700 -37.320500
C -12.754000 -12.836000 -34.341700
C -12.461500 -12.538400 -35.684700
H -12.064300 -13.747400 -32.658900
C -11.874300 -13.578000 -33.588000
C -11.260100 -13.028400 -36.233600
H -11.047000 -12.838700 -37.155600
C -10.680400 -14.057400 -34.128700
C -10.387600 -13.773900 -35.467800
O -10.045000 -15.165600 -32.121200
C -9.765200 -14.813300 -33.259700
H -9.575600 -14.080100 -35.853700
O -8.584200 -15.060000 -33.820500
H -8.063000 -15.487400 -33.237000
17
Fragment
H -11.112400 -15.487400 -41.708000
O -10.591200 -15.060000 -41.124500
H -9.599800 -14.080100 -39.091300
C -9.410200 -14.813300 -41.685300
O -9.130400 -15.165600 -42.823800
C -8.787800 -13.773900 -39.477200
C -8.495000 -14.057400 -40.816300
H -8.128400 -12.838700 -37.789400
C -7.915300 -13.028400 -38.711400
C -7.301100 -13.578000 -41.357000
H -7.111100 -13.747400 -42.286100
C -6.713900 -12.538400 -39.260300
C -6.421400 -12.836000 -40.603300
H -5.993100 -11.700700 -37.624500
N -5.870600 -11.760700 -38.522800
H -5.602200 -12.508200 -40.977800
H -5.069600 -11.570100 -38.870800
34
Fragment
H -14.105800 -11.570100 -36.074200
H -13.573200 -12.508200 -33.967200
N -13.304800 -11.760700 -36.422200
H -13.182300 -11.700700 -37.320500
C -12.754000 -12.836000 -34.341700
C -12.461500 -12.538400 -35.684700
H -12.064300 -13.747400 -32.658900
C -11.874300 -13.578000 -33.588000
C -11.260100 -13.028400 -36.233600
H -11.047000 -12.838700 -37.155600
C -10.680400 -14.057400 -34.128700
C -10.387600 -13.773900 -35.467800
O -10.045000 -15.165600 -32.121200
C -9.765200 -14.813300 -33.259700
H -9.575600 -14.080100 -35.853700
O -8.584200 -15.060000 -33.820500
H -8.063000 -15.487400 -33.237000
H -11.112400 -15.487400 -41.708000
O -10.591200 -15.060000 -41.124500
H -9.599800 -14.080100 -39.091300
C -9.410200 -14.813300 -41.685300
O -9.130400 -15.165600 -42.823800
C -8.787800 -13.773900 -39.477200
C -8.495000 -14.057400 -40.816300
H -8.128400 -12.838700 -37.789400
C -7.915300 -13.028400 -38.711400
C -7.301100 -13.578000 -41.357000
H -7.111100 -13.747400 -42.286100
C -6.713900 -12.538400 -39.260300
C -6.421400 -12.836000 -40.603300
H -5.993100 -11.700700 -37.624500
N -5.870600 -11.760700 -38.522800
H -5.602200 -12.508200 -40.977800
H -5.069600 -11.570100 -38.870800
