13
Fragment
O -8.288300 -6.500200 -32.676300
H -8.000700 -6.233600 -30.313000
C -7.734500 -7.250000 -31.883900
N -7.579600 -6.928100 -30.566500
H -7.424500 -8.590200 -33.174700
N -7.242600 -8.463800 -32.309700
C -7.013000 -7.743700 -29.604100
O -6.980700 -7.393500 -28.444000
H -6.898900 -9.696000 -29.533300
C -6.620800 -9.391900 -31.522000
C -6.444300 -9.049000 -30.073700
O -6.235900 -10.451000 -31.998100
H -5.487600 -9.064100 -29.913100
13
Fragment
H -6.170800 -12.355400 -25.936600
O -5.422600 -13.742300 -23.851600
C -5.214100 -12.340200 -25.776000
C -5.037600 -12.683200 -24.327700
H -4.759500 -12.987300 -26.316400
O -4.677700 -10.684700 -27.405700
C -4.645400 -11.034900 -26.245500
N -4.415900 -11.755000 -23.540000
H -4.233900 -11.881400 -22.675000
N -4.078900 -10.219300 -25.283100
C -3.924000 -10.541200 -23.965800
H -3.657800 -9.524900 -25.536700
O -3.370200 -9.791500 -23.173400
26
Fragment
O -8.288300 -6.500200 -32.676300
H -8.000700 -6.233600 -30.313000
C -7.734500 -7.250000 -31.883900
N -7.579600 -6.928100 -30.566500
H -7.424500 -8.590200 -33.174700
N -7.242600 -8.463800 -32.309700
C -7.013000 -7.743700 -29.604100
O -6.980700 -7.393500 -28.444000
H -6.898900 -9.696000 -29.533300
C -6.620800 -9.391900 -31.522000
C -6.444300 -9.049000 -30.073700
O -6.235900 -10.451000 -31.998100
H -5.487600 -9.064100 -29.913100
H -6.170800 -12.355400 -25.936600
O -5.422600 -13.742300 -23.851600
C -5.214100 -12.340200 -25.776000
C -5.037600 -12.683200 -24.327700
H -4.759500 -12.987300 -26.316400
O -4.677700 -10.684700 -27.405700
C -4.645400 -11.034900 -26.245500
N -4.415900 -11.755000 -23.540000
H -4.233900 -11.881400 -22.675000
N -4.078900 -10.219300 -25.283100
C -3.924000 -10.541200 -23.965800
H -3.657800 -9.524900 -25.536700
O -3.370200 -9.791500 -23.173400
