17
Fragment
H -14.105800 -11.570100 -36.074200
H -13.573200 -12.508200 -33.967200
N -13.304800 -11.760700 -36.422200
H -13.182300 -11.700700 -37.320500
C -12.754000 -12.836000 -34.341700
C -12.461500 -12.538400 -35.684700
H -12.064300 -13.747400 -32.658900
C -11.874300 -13.578000 -33.588000
C -11.260100 -13.028400 -36.233600
H -11.047000 -12.838700 -37.155600
C -10.680400 -14.057400 -34.128700
C -10.387600 -13.773900 -35.467800
O -10.045000 -15.165600 -32.121200
C -9.765200 -14.813300 -33.259700
H -9.575600 -14.080100 -35.853700
O -8.584200 -15.060000 -33.820500
H -8.063000 -15.487400 -33.237000
17
Fragment
H -9.054900 -17.248900 -36.074200
H -8.522300 -18.187100 -33.967200
N -8.253900 -17.439500 -36.422200
H -8.131400 -17.379600 -37.320500
C -7.703100 -18.514900 -34.341700
C -7.410600 -18.217300 -35.684700
H -7.013400 -19.426200 -32.658900
C -6.823400 -19.256900 -33.588000
C -6.209200 -18.707300 -36.233600
H -5.996100 -18.517600 -37.155600
C -5.629500 -19.736300 -34.128700
C -5.336700 -19.452800 -35.467800
O -4.994100 -20.844400 -32.121200
C -4.714300 -20.492100 -33.259700
H -4.524700 -19.759000 -35.853700
O -3.533300 -20.738800 -33.820500
H -3.012100 -21.166200 -33.237000
34
Fragment
H -14.105800 -11.570100 -36.074200
H -13.573200 -12.508200 -33.967200
N -13.304800 -11.760700 -36.422200
H -13.182300 -11.700700 -37.320500
C -12.754000 -12.836000 -34.341700
C -12.461500 -12.538400 -35.684700
H -12.064300 -13.747400 -32.658900
C -11.874300 -13.578000 -33.588000
C -11.260100 -13.028400 -36.233600
H -11.047000 -12.838700 -37.155600
C -10.680400 -14.057400 -34.128700
C -10.387600 -13.773900 -35.467800
O -10.045000 -15.165600 -32.121200
C -9.765200 -14.813300 -33.259700
H -9.575600 -14.080100 -35.853700
O -8.584200 -15.060000 -33.820500
H -8.063000 -15.487400 -33.237000
H -9.054900 -17.248900 -36.074200
H -8.522300 -18.187100 -33.967200
N -8.253900 -17.439500 -36.422200
H -8.131400 -17.379600 -37.320500
C -7.703100 -18.514900 -34.341700
C -7.410600 -18.217300 -35.684700
H -7.013400 -19.426200 -32.658900
C -6.823400 -19.256900 -33.588000
C -6.209200 -18.707300 -36.233600
H -5.996100 -18.517600 -37.155600
C -5.629500 -19.736300 -34.128700
C -5.336700 -19.452800 -35.467800
O -4.994100 -20.844400 -32.121200
C -4.714300 -20.492100 -33.259700
H -4.524700 -19.759000 -35.853700
O -3.533300 -20.738800 -33.820500
H -3.012100 -21.166200 -33.237000
