17
Fragment
H -14.105800 -11.570100 -36.074200
H -13.573200 -12.508200 -33.967200
N -13.304800 -11.760700 -36.422200
H -13.182300 -11.700700 -37.320500
C -12.754000 -12.836000 -34.341700
C -12.461500 -12.538400 -35.684700
H -12.064300 -13.747400 -32.658900
C -11.874300 -13.578000 -33.588000
C -11.260100 -13.028400 -36.233600
H -11.047000 -12.838700 -37.155600
C -10.680400 -14.057400 -34.128700
C -10.387600 -13.773900 -35.467800
O -10.045000 -15.165600 -32.121200
C -9.765200 -14.813300 -33.259700
H -9.575600 -14.080100 -35.853700
O -8.584200 -15.060000 -33.820500
H -8.063000 -15.487400 -33.237000
15
Fragment
H -21.353800 -9.860800 -35.605300
H -20.710400 -8.658000 -34.768100
C -20.529100 -9.341100 -35.445300
H -20.406100 -10.693300 -33.279900
H -20.275100 -8.891900 -36.243400
N -19.643400 -10.813800 -33.737200
C -19.429900 -10.230100 -34.967200
O -18.962000 -12.145100 -32.029800
C -18.733700 -11.616100 -33.130800
C -18.277400 -10.469100 -35.626500
H -18.092400 -10.053800 -36.472500
N -17.556900 -11.799400 -33.784800
C -17.255700 -11.296300 -35.041900
H -16.931600 -12.295800 -33.337700
O -16.175800 -11.578700 -35.559000
32
Fragment
H -14.105800 -11.570100 -36.074200
H -13.573200 -12.508200 -33.967200
N -13.304800 -11.760700 -36.422200
H -13.182300 -11.700700 -37.320500
C -12.754000 -12.836000 -34.341700
C -12.461500 -12.538400 -35.684700
H -12.064300 -13.747400 -32.658900
C -11.874300 -13.578000 -33.588000
C -11.260100 -13.028400 -36.233600
H -11.047000 -12.838700 -37.155600
C -10.680400 -14.057400 -34.128700
C -10.387600 -13.773900 -35.467800
O -10.045000 -15.165600 -32.121200
C -9.765200 -14.813300 -33.259700
H -9.575600 -14.080100 -35.853700
O -8.584200 -15.060000 -33.820500
H -8.063000 -15.487400 -33.237000
H -21.353800 -9.860800 -35.605300
H -20.710400 -8.658000 -34.768100
C -20.529100 -9.341100 -35.445300
H -20.406100 -10.693300 -33.279900
H -20.275100 -8.891900 -36.243400
N -19.643400 -10.813800 -33.737200
C -19.429900 -10.230100 -34.967200
O -18.962000 -12.145100 -32.029800
C -18.733700 -11.616100 -33.130800
C -18.277400 -10.469100 -35.626500
H -18.092400 -10.053800 -36.472500
N -17.556900 -11.799400 -33.784800
C -17.255700 -11.296300 -35.041900
H -16.931600 -12.295800 -33.337700
O -16.175800 -11.578700 -35.559000
