13
Fragment
O -8.288300 -6.500200 -32.676300
H -8.000700 -6.233600 -30.313000
C -7.734500 -7.250000 -31.883900
N -7.579600 -6.928100 -30.566500
H -7.424500 -8.590200 -33.174700
N -7.242600 -8.463800 -32.309700
C -7.013000 -7.743700 -29.604100
O -6.980700 -7.393500 -28.444000
H -6.898900 -9.696000 -29.533300
C -6.620800 -9.391900 -31.522000
C -6.444300 -9.049000 -30.073700
O -6.235900 -10.451000 -31.998100
H -5.487600 -9.064100 -29.913100
17
Fragment
H -4.939900 -5.101400 -30.750800
H -4.556700 -5.140900 -29.216100
N -4.551200 -5.470700 -30.044900
H -4.236100 -6.766800 -32.265500
C -3.950300 -6.674000 -30.243500
C -3.879400 -7.234200 -31.534300
H -3.512000 -7.043300 -28.289000
C -3.392600 -7.395400 -29.166900
C -3.281700 -8.454600 -31.738000
H -3.241000 -8.840300 -32.645200
C -2.797200 -8.618500 -29.375800
C -2.722200 -9.167400 -30.663700
H -2.437100 -9.090400 -28.641900
O -2.153900 -10.914400 -32.119600
C -2.043000 -10.455000 -30.876600
H -1.692900 -11.631300 -32.214100
O -1.384800 -11.036900 -30.020500
30
Fragment
O -8.288300 -6.500200 -32.676300
H -8.000700 -6.233600 -30.313000
C -7.734500 -7.250000 -31.883900
N -7.579600 -6.928100 -30.566500
H -7.424500 -8.590200 -33.174700
N -7.242600 -8.463800 -32.309700
C -7.013000 -7.743700 -29.604100
O -6.980700 -7.393500 -28.444000
H -6.898900 -9.696000 -29.533300
C -6.620800 -9.391900 -31.522000
C -6.444300 -9.049000 -30.073700
O -6.235900 -10.451000 -31.998100
H -5.487600 -9.064100 -29.913100
H -4.939900 -5.101400 -30.750800
H -4.556700 -5.140900 -29.216100
N -4.551200 -5.470700 -30.044900
H -4.236100 -6.766800 -32.265500
C -3.950300 -6.674000 -30.243500
C -3.879400 -7.234200 -31.534300
H -3.512000 -7.043300 -28.289000
C -3.392600 -7.395400 -29.166900
C -3.281700 -8.454600 -31.738000
H -3.241000 -8.840300 -32.645200
C -2.797200 -8.618500 -29.375800
C -2.722200 -9.167400 -30.663700
H -2.437100 -9.090400 -28.641900
O -2.153900 -10.914400 -32.119600
C -2.043000 -10.455000 -30.876600
H -1.692900 -11.631300 -32.214100
O -1.384800 -11.036900 -30.020500
