32
Fragment
H -9.963300 -15.644000 -11.216800
H -9.547600 -17.220400 -12.891900
C -9.117300 -16.073500 -11.259800
C -8.875600 -17.012300 -12.253200
H -8.382300 -19.197200 -14.634800
H -8.316500 -15.097600 -9.655500
C -8.130200 -15.750700 -10.319900
C -7.634200 -17.646100 -12.301600
C -7.522700 -19.365200 -14.266600
H -7.511800 -21.008500 -16.539200
C -7.052700 -18.670100 -13.146400
N -6.892100 -21.170100 -15.889300
C -6.882800 -16.366100 -10.339000
C -6.661600 -20.319000 -14.814900
C -6.652500 -17.326200 -11.327400
H -6.234900 -23.166500 -17.674700
H -6.212900 -16.142200 -9.703800
C -5.774800 -21.942600 -16.081600
C -5.755000 -18.927100 -12.620600
C -5.563900 -22.945800 -17.039400
N -5.529300 -18.087900 -11.537500
C -5.362600 -20.579700 -14.283800
C -4.889500 -19.875400 -13.168000
H -4.873000 -18.252800 -10.912800
C -4.789200 -21.620900 -15.118600
C -4.344600 -23.604200 -17.028700
H -4.178700 -24.288600 -17.666300
H -4.026800 -20.035000 -12.804000
C -3.563100 -22.290800 -15.139300
C -3.350300 -23.277900 -16.092100
H -2.884900 -22.073900 -14.510400
H -2.520000 -23.739300 -16.110700
20
Fragment
H -8.675100 -26.155900 -14.418100
H -8.457600 -27.511400 -13.590300
H -8.123700 -24.980000 -12.618400
C -8.025100 -26.667000 -13.873700
H -7.874900 -26.336100 -11.800200
C -7.629000 -25.837500 -12.619400
H -6.829900 -25.193800 -15.669700
N -6.829500 -26.971000 -14.685900
H -6.319500 -23.991500 -13.880700
H -6.274600 -28.565900 -13.558600
C -6.203300 -25.702300 -15.096200
N -6.180700 -25.572500 -12.620300
C -5.869300 -27.712300 -13.853800
C -5.832800 -24.853300 -13.851300
H -5.698200 -27.366100 -11.789800
C -5.472000 -26.868700 -12.615300
H -5.387100 -25.890700 -15.623700
H -5.061100 -27.922500 -14.385800
H -4.862200 -24.659100 -13.859100
H -4.494800 -26.711500 -12.621500
52
Fragment
H -9.963300 -15.644000 -11.216800
H -9.547600 -17.220400 -12.891900
C -9.117300 -16.073500 -11.259800
C -8.875600 -17.012300 -12.253200
H -8.382300 -19.197200 -14.634800
H -8.316500 -15.097600 -9.655500
C -8.130200 -15.750700 -10.319900
C -7.634200 -17.646100 -12.301600
C -7.522700 -19.365200 -14.266600
H -7.511800 -21.008500 -16.539200
C -7.052700 -18.670100 -13.146400
N -6.892100 -21.170100 -15.889300
C -6.882800 -16.366100 -10.339000
C -6.661600 -20.319000 -14.814900
C -6.652500 -17.326200 -11.327400
H -6.234900 -23.166500 -17.674700
H -6.212900 -16.142200 -9.703800
C -5.774800 -21.942600 -16.081600
C -5.755000 -18.927100 -12.620600
C -5.563900 -22.945800 -17.039400
N -5.529300 -18.087900 -11.537500
C -5.362600 -20.579700 -14.283800
C -4.889500 -19.875400 -13.168000
H -4.873000 -18.252800 -10.912800
C -4.789200 -21.620900 -15.118600
C -4.344600 -23.604200 -17.028700
H -4.178700 -24.288600 -17.666300
H -4.026800 -20.035000 -12.804000
C -3.563100 -22.290800 -15.139300
C -3.350300 -23.277900 -16.092100
H -2.884900 -22.073900 -14.510400
H -2.520000 -23.739300 -16.110700
H -8.675100 -26.155900 -14.418100
H -8.457600 -27.511400 -13.590300
H -8.123700 -24.980000 -12.618400
C -8.025100 -26.667000 -13.873700
H -7.874900 -26.336100 -11.800200
C -7.629000 -25.837500 -12.619400
H -6.829900 -25.193800 -15.669700
N -6.829500 -26.971000 -14.685900
H -6.319500 -23.991500 -13.880700
H -6.274600 -28.565900 -13.558600
C -6.203300 -25.702300 -15.096200
N -6.180700 -25.572500 -12.620300
C -5.869300 -27.712300 -13.853800
C -5.832800 -24.853300 -13.851300
H -5.698200 -27.366100 -11.789800
C -5.472000 -26.868700 -12.615300
H -5.387100 -25.890700 -15.623700
H -5.061100 -27.922500 -14.385800
H -4.862200 -24.659100 -13.859100
H -4.494800 -26.711500 -12.621500
