32
Fragment
H -9.963300 -15.644000 -11.216800
H -9.547600 -17.220400 -12.891900
C -9.117300 -16.073500 -11.259800
C -8.875600 -17.012300 -12.253200
H -8.382300 -19.197200 -14.634800
H -8.316500 -15.097600 -9.655500
C -8.130200 -15.750700 -10.319900
C -7.634200 -17.646100 -12.301600
C -7.522700 -19.365200 -14.266600
H -7.511800 -21.008500 -16.539200
C -7.052700 -18.670100 -13.146400
N -6.892100 -21.170100 -15.889300
C -6.882800 -16.366100 -10.339000
C -6.661600 -20.319000 -14.814900
C -6.652500 -17.326200 -11.327400
H -6.234900 -23.166500 -17.674700
H -6.212900 -16.142200 -9.703800
C -5.774800 -21.942600 -16.081600
C -5.755000 -18.927100 -12.620600
C -5.563900 -22.945800 -17.039400
N -5.529300 -18.087900 -11.537500
C -5.362600 -20.579700 -14.283800
C -4.889500 -19.875400 -13.168000
H -4.873000 -18.252800 -10.912800
C -4.789200 -21.620900 -15.118600
C -4.344600 -23.604200 -17.028700
H -4.178700 -24.288600 -17.666300
H -4.026800 -20.035000 -12.804000
C -3.563100 -22.290800 -15.139300
C -3.350300 -23.277900 -16.092100
H -2.884900 -22.073900 -14.510400
H -2.520000 -23.739300 -16.110700
32
Fragment
H -13.963000 -30.300400 -5.824600
H -13.598100 -28.634900 -7.424900
C -13.132700 -29.839000 -5.843200
C -12.919900 -28.851800 -6.796000
H -12.456200 -26.596000 -9.131300
H -12.304300 -30.849700 -4.269000
C -12.138400 -30.165200 -4.906600
C -11.693800 -28.181900 -6.816700
H -11.610000 -24.813900 -11.022500
C -11.593500 -26.436400 -8.767300
C -11.120400 -27.140700 -7.651500
N -10.953700 -24.648900 -10.397800
C -10.919100 -29.506900 -4.895800
C -10.728000 -25.488100 -9.314700
C -10.708200 -28.503700 -5.853700
H -10.270100 -22.703200 -12.231500
H -10.248100 -29.727600 -4.260600
C -9.830500 -23.887200 -10.607900
C -9.821400 -26.880100 -7.120400
C -9.600300 -22.927200 -11.596300
N -9.591000 -27.731200 -6.046000
C -9.430300 -25.231200 -8.788900
H -8.971200 -27.569500 -5.396100
C -8.960300 -25.926300 -7.668700
C -8.848800 -24.207100 -9.633700
C -8.352800 -22.311800 -11.615400
H -8.166500 -21.658700 -12.279800
H -8.100700 -25.758300 -7.300500
C -7.607400 -23.573300 -9.682100
C -7.365800 -22.634600 -10.675500
H -6.935400 -23.781400 -9.043400
H -6.519700 -22.205100 -10.718500
64
Fragment
H -9.963300 -15.644000 -11.216800
H -9.547600 -17.220400 -12.891900
C -9.117300 -16.073500 -11.259800
C -8.875600 -17.012300 -12.253200
H -8.382300 -19.197200 -14.634800
H -8.316500 -15.097600 -9.655500
C -8.130200 -15.750700 -10.319900
C -7.634200 -17.646100 -12.301600
C -7.522700 -19.365200 -14.266600
H -7.511800 -21.008500 -16.539200
C -7.052700 -18.670100 -13.146400
N -6.892100 -21.170100 -15.889300
C -6.882800 -16.366100 -10.339000
C -6.661600 -20.319000 -14.814900
C -6.652500 -17.326200 -11.327400
H -6.234900 -23.166500 -17.674700
H -6.212900 -16.142200 -9.703800
C -5.774800 -21.942600 -16.081600
C -5.755000 -18.927100 -12.620600
C -5.563900 -22.945800 -17.039400
N -5.529300 -18.087900 -11.537500
C -5.362600 -20.579700 -14.283800
C -4.889500 -19.875400 -13.168000
H -4.873000 -18.252800 -10.912800
C -4.789200 -21.620900 -15.118600
C -4.344600 -23.604200 -17.028700
H -4.178700 -24.288600 -17.666300
H -4.026800 -20.035000 -12.804000
C -3.563100 -22.290800 -15.139300
C -3.350300 -23.277900 -16.092100
H -2.884900 -22.073900 -14.510400
H -2.520000 -23.739300 -16.110700
H -13.963000 -30.300400 -5.824600
H -13.598100 -28.634900 -7.424900
C -13.132700 -29.839000 -5.843200
C -12.919900 -28.851800 -6.796000
H -12.456200 -26.596000 -9.131300
H -12.304300 -30.849700 -4.269000
C -12.138400 -30.165200 -4.906600
C -11.693800 -28.181900 -6.816700
H -11.610000 -24.813900 -11.022500
C -11.593500 -26.436400 -8.767300
C -11.120400 -27.140700 -7.651500
N -10.953700 -24.648900 -10.397800
C -10.919100 -29.506900 -4.895800
C -10.728000 -25.488100 -9.314700
C -10.708200 -28.503700 -5.853700
H -10.270100 -22.703200 -12.231500
H -10.248100 -29.727600 -4.260600
C -9.830500 -23.887200 -10.607900
C -9.821400 -26.880100 -7.120400
C -9.600300 -22.927200 -11.596300
N -9.591000 -27.731200 -6.046000
C -9.430300 -25.231200 -8.788900
H -8.971200 -27.569500 -5.396100
C -8.960300 -25.926300 -7.668700
C -8.848800 -24.207100 -9.633700
C -8.352800 -22.311800 -11.615400
H -8.166500 -21.658700 -12.279800
H -8.100700 -25.758300 -7.300500
C -7.607400 -23.573300 -9.682100
C -7.365800 -22.634600 -10.675500
H -6.935400 -23.781400 -9.043400
H -6.519700 -22.205100 -10.718500
