32
Fragment
H -9.963300 -15.644000 -11.216800
H -9.547600 -17.220400 -12.891900
C -9.117300 -16.073500 -11.259800
C -8.875600 -17.012300 -12.253200
H -8.382300 -19.197200 -14.634800
H -8.316500 -15.097600 -9.655500
C -8.130200 -15.750700 -10.319900
C -7.634200 -17.646100 -12.301600
C -7.522700 -19.365200 -14.266600
H -7.511800 -21.008500 -16.539200
C -7.052700 -18.670100 -13.146400
N -6.892100 -21.170100 -15.889300
C -6.882800 -16.366100 -10.339000
C -6.661600 -20.319000 -14.814900
C -6.652500 -17.326200 -11.327400
H -6.234900 -23.166500 -17.674700
H -6.212900 -16.142200 -9.703800
C -5.774800 -21.942600 -16.081600
C -5.755000 -18.927100 -12.620600
C -5.563900 -22.945800 -17.039400
N -5.529300 -18.087900 -11.537500
C -5.362600 -20.579700 -14.283800
C -4.889500 -19.875400 -13.168000
H -4.873000 -18.252800 -10.912800
C -4.789200 -21.620900 -15.118600
C -4.344600 -23.604200 -17.028700
H -4.178700 -24.288600 -17.666300
H -4.026800 -20.035000 -12.804000
C -3.563100 -22.290800 -15.139300
C -3.350300 -23.277900 -16.092100
H -2.884900 -22.073900 -14.510400
H -2.520000 -23.739300 -16.110700
32
Fragment
H -3.619600 -15.644000 -11.216800
H -3.203900 -17.220400 -12.891900
C -2.773600 -16.073500 -11.259800
C -2.531900 -17.012300 -12.253200
H -2.038600 -19.197200 -14.634800
H -1.972800 -15.097600 -9.655500
C -1.786500 -15.750700 -10.319900
C -1.290500 -17.646100 -12.301600
C -1.179000 -19.365200 -14.266600
H -1.168100 -21.008500 -16.539200
C -0.709000 -18.670100 -13.146400
N -0.548400 -21.170100 -15.889300
C -0.539100 -16.366100 -10.339000
C -0.317900 -20.319000 -14.814900
C -0.308800 -17.326200 -11.327400
H 0.108800 -23.166500 -17.674700
H 0.130800 -16.142200 -9.703800
C 0.568900 -21.942600 -16.081600
C 0.588700 -18.927100 -12.620600
C 0.779800 -22.945800 -17.039400
N 0.814400 -18.087900 -11.537500
C 0.981100 -20.579700 -14.283800
C 1.454200 -19.875400 -13.168000
H 1.470700 -18.252800 -10.912800
C 1.554500 -21.620900 -15.118600
C 1.999100 -23.604200 -17.028700
H 2.165000 -24.288600 -17.666300
H 2.316900 -20.035000 -12.804000
C 2.780600 -22.290800 -15.139300
C 2.993400 -23.277900 -16.092100
H 3.458800 -22.073900 -14.510400
H 3.823700 -23.739300 -16.110700
64
Fragment
H -9.963300 -15.644000 -11.216800
H -9.547600 -17.220400 -12.891900
C -9.117300 -16.073500 -11.259800
C -8.875600 -17.012300 -12.253200
H -8.382300 -19.197200 -14.634800
H -8.316500 -15.097600 -9.655500
C -8.130200 -15.750700 -10.319900
C -7.634200 -17.646100 -12.301600
C -7.522700 -19.365200 -14.266600
H -7.511800 -21.008500 -16.539200
C -7.052700 -18.670100 -13.146400
N -6.892100 -21.170100 -15.889300
C -6.882800 -16.366100 -10.339000
C -6.661600 -20.319000 -14.814900
C -6.652500 -17.326200 -11.327400
H -6.234900 -23.166500 -17.674700
H -6.212900 -16.142200 -9.703800
C -5.774800 -21.942600 -16.081600
C -5.755000 -18.927100 -12.620600
C -5.563900 -22.945800 -17.039400
N -5.529300 -18.087900 -11.537500
C -5.362600 -20.579700 -14.283800
C -4.889500 -19.875400 -13.168000
H -4.873000 -18.252800 -10.912800
C -4.789200 -21.620900 -15.118600
C -4.344600 -23.604200 -17.028700
H -4.178700 -24.288600 -17.666300
H -4.026800 -20.035000 -12.804000
C -3.563100 -22.290800 -15.139300
C -3.350300 -23.277900 -16.092100
H -2.884900 -22.073900 -14.510400
H -2.520000 -23.739300 -16.110700
H -3.619600 -15.644000 -11.216800
H -3.203900 -17.220400 -12.891900
C -2.773600 -16.073500 -11.259800
C -2.531900 -17.012300 -12.253200
H -2.038600 -19.197200 -14.634800
H -1.972800 -15.097600 -9.655500
C -1.786500 -15.750700 -10.319900
C -1.290500 -17.646100 -12.301600
C -1.179000 -19.365200 -14.266600
H -1.168100 -21.008500 -16.539200
C -0.709000 -18.670100 -13.146400
N -0.548400 -21.170100 -15.889300
C -0.539100 -16.366100 -10.339000
C -0.317900 -20.319000 -14.814900
C -0.308800 -17.326200 -11.327400
H 0.108800 -23.166500 -17.674700
H 0.130800 -16.142200 -9.703800
C 0.568900 -21.942600 -16.081600
C 0.588700 -18.927100 -12.620600
C 0.779800 -22.945800 -17.039400
N 0.814400 -18.087900 -11.537500
C 0.981100 -20.579700 -14.283800
C 1.454200 -19.875400 -13.168000
H 1.470700 -18.252800 -10.912800
C 1.554500 -21.620900 -15.118600
C 1.999100 -23.604200 -17.028700
H 2.165000 -24.288600 -17.666300
H 2.316900 -20.035000 -12.804000
C 2.780600 -22.290800 -15.139300
C 2.993400 -23.277900 -16.092100
H 3.458800 -22.073900 -14.510400
H 3.823700 -23.739300 -16.110700
