32
Fragment
H -9.963300 -15.644000 -11.216800
H -9.547600 -17.220400 -12.891900
C -9.117300 -16.073500 -11.259800
C -8.875600 -17.012300 -12.253200
H -8.382300 -19.197200 -14.634800
H -8.316500 -15.097600 -9.655500
C -8.130200 -15.750700 -10.319900
C -7.634200 -17.646100 -12.301600
C -7.522700 -19.365200 -14.266600
H -7.511800 -21.008500 -16.539200
C -7.052700 -18.670100 -13.146400
N -6.892100 -21.170100 -15.889300
C -6.882800 -16.366100 -10.339000
C -6.661600 -20.319000 -14.814900
C -6.652500 -17.326200 -11.327400
H -6.234900 -23.166500 -17.674700
H -6.212900 -16.142200 -9.703800
C -5.774800 -21.942600 -16.081600
C -5.755000 -18.927100 -12.620600
C -5.563900 -22.945800 -17.039400
N -5.529300 -18.087900 -11.537500
C -5.362600 -20.579700 -14.283800
C -4.889500 -19.875400 -13.168000
H -4.873000 -18.252800 -10.912800
C -4.789200 -21.620900 -15.118600
C -4.344600 -23.604200 -17.028700
H -4.178700 -24.288600 -17.666300
H -4.026800 -20.035000 -12.804000
C -3.563100 -22.290800 -15.139300
C -3.350300 -23.277900 -16.092100
H -2.884900 -22.073900 -14.510400
H -2.520000 -23.739300 -16.110700
32
Fragment
H -6.345300 -30.300400 -16.792200
H -5.980300 -28.634900 -18.392500
C -5.515000 -29.839000 -16.810900
C -5.302200 -28.851800 -17.763600
H -4.838400 -26.596000 -20.099000
H -4.686600 -30.849700 -15.236700
C -4.520600 -30.165200 -15.874200
C -4.076100 -28.181900 -17.784400
H -3.992200 -24.813900 -21.990100
C -3.975700 -26.436400 -19.735000
C -3.502700 -27.140700 -18.619100
N -3.335900 -24.648900 -21.365400
C -3.301300 -29.506900 -15.863500
C -3.110300 -25.488100 -20.282400
C -3.090500 -28.503700 -16.821300
H -2.652400 -22.703200 -23.199100
H -2.630400 -29.727600 -15.228300
C -2.212800 -23.887200 -21.575600
C -2.203700 -26.880100 -18.088100
C -1.982500 -22.927200 -22.564000
N -1.973200 -27.731200 -17.013700
C -1.812500 -25.231200 -19.756600
H -1.353400 -27.569500 -16.363700
C -1.342600 -25.926300 -18.636300
C -1.231000 -24.207100 -20.601300
C -0.735000 -22.311800 -22.583000
H -0.548700 -21.658700 -23.247500
H -0.483000 -25.758300 -18.268200
C 0.010400 -23.573300 -20.649800
C 0.252000 -22.634600 -21.643100
H 0.682400 -23.781400 -20.011000
H 1.098000 -22.205100 -21.686100
64
Fragment
H -9.963300 -15.644000 -11.216800
H -9.547600 -17.220400 -12.891900
C -9.117300 -16.073500 -11.259800
C -8.875600 -17.012300 -12.253200
H -8.382300 -19.197200 -14.634800
H -8.316500 -15.097600 -9.655500
C -8.130200 -15.750700 -10.319900
C -7.634200 -17.646100 -12.301600
C -7.522700 -19.365200 -14.266600
H -7.511800 -21.008500 -16.539200
C -7.052700 -18.670100 -13.146400
N -6.892100 -21.170100 -15.889300
C -6.882800 -16.366100 -10.339000
C -6.661600 -20.319000 -14.814900
C -6.652500 -17.326200 -11.327400
H -6.234900 -23.166500 -17.674700
H -6.212900 -16.142200 -9.703800
C -5.774800 -21.942600 -16.081600
C -5.755000 -18.927100 -12.620600
C -5.563900 -22.945800 -17.039400
N -5.529300 -18.087900 -11.537500
C -5.362600 -20.579700 -14.283800
C -4.889500 -19.875400 -13.168000
H -4.873000 -18.252800 -10.912800
C -4.789200 -21.620900 -15.118600
C -4.344600 -23.604200 -17.028700
H -4.178700 -24.288600 -17.666300
H -4.026800 -20.035000 -12.804000
C -3.563100 -22.290800 -15.139300
C -3.350300 -23.277900 -16.092100
H -2.884900 -22.073900 -14.510400
H -2.520000 -23.739300 -16.110700
H -6.345300 -30.300400 -16.792200
H -5.980300 -28.634900 -18.392500
C -5.515000 -29.839000 -16.810900
C -5.302200 -28.851800 -17.763600
H -4.838400 -26.596000 -20.099000
H -4.686600 -30.849700 -15.236700
C -4.520600 -30.165200 -15.874200
C -4.076100 -28.181900 -17.784400
H -3.992200 -24.813900 -21.990100
C -3.975700 -26.436400 -19.735000
C -3.502700 -27.140700 -18.619100
N -3.335900 -24.648900 -21.365400
C -3.301300 -29.506900 -15.863500
C -3.110300 -25.488100 -20.282400
C -3.090500 -28.503700 -16.821300
H -2.652400 -22.703200 -23.199100
H -2.630400 -29.727600 -15.228300
C -2.212800 -23.887200 -21.575600
C -2.203700 -26.880100 -18.088100
C -1.982500 -22.927200 -22.564000
N -1.973200 -27.731200 -17.013700
C -1.812500 -25.231200 -19.756600
H -1.353400 -27.569500 -16.363700
C -1.342600 -25.926300 -18.636300
C -1.231000 -24.207100 -20.601300
C -0.735000 -22.311800 -22.583000
H -0.548700 -21.658700 -23.247500
H -0.483000 -25.758300 -18.268200
C 0.010400 -23.573300 -20.649800
C 0.252000 -22.634600 -21.643100
H 0.682400 -23.781400 -20.011000
H 1.098000 -22.205100 -21.686100
