32
Fragment
H -9.963300 -15.644000 -11.216800
H -9.547600 -17.220400 -12.891900
C -9.117300 -16.073500 -11.259800
C -8.875600 -17.012300 -12.253200
H -8.382300 -19.197200 -14.634800
H -8.316500 -15.097600 -9.655500
C -8.130200 -15.750700 -10.319900
C -7.634200 -17.646100 -12.301600
C -7.522700 -19.365200 -14.266600
H -7.511800 -21.008500 -16.539200
C -7.052700 -18.670100 -13.146400
N -6.892100 -21.170100 -15.889300
C -6.882800 -16.366100 -10.339000
C -6.661600 -20.319000 -14.814900
C -6.652500 -17.326200 -11.327400
H -6.234900 -23.166500 -17.674700
H -6.212900 -16.142200 -9.703800
C -5.774800 -21.942600 -16.081600
C -5.755000 -18.927100 -12.620600
C -5.563900 -22.945800 -17.039400
N -5.529300 -18.087900 -11.537500
C -5.362600 -20.579700 -14.283800
C -4.889500 -19.875400 -13.168000
H -4.873000 -18.252800 -10.912800
C -4.789200 -21.620900 -15.118600
C -4.344600 -23.604200 -17.028700
H -4.178700 -24.288600 -17.666300
H -4.026800 -20.035000 -12.804000
C -3.563100 -22.290800 -15.139300
C -3.350300 -23.277900 -16.092100
H -2.884900 -22.073900 -14.510400
H -2.520000 -23.739300 -16.110700
20
Fragment
H -10.714200 -20.150400 -20.281500
H -10.346700 -18.098000 -19.043900
H -10.147800 -21.361500 -18.517100
H -9.821900 -19.329600 -17.279200
C -9.736900 -20.307600 -20.287600
H -9.510700 -20.805100 -21.113200
C -9.376200 -18.292200 -19.051700
C -9.339700 -21.151300 -19.049200
N -9.028300 -19.011400 -20.282700
C -9.005700 -19.141200 -17.806700
H -8.934400 -22.004800 -19.344300
H -8.889400 -17.430500 -19.022300
N -8.379500 -20.410000 -18.217000
H -8.379100 -18.632700 -17.233200
C -7.579900 -19.276500 -20.283600
H -7.334000 -19.775000 -21.102700
C -7.183900 -20.105900 -19.029200
H -7.085300 -18.419000 -20.284600
H -6.751400 -20.950400 -19.312600
H -6.533800 -19.594800 -18.484900
52
Fragment
H -9.963300 -15.644000 -11.216800
H -9.547600 -17.220400 -12.891900
C -9.117300 -16.073500 -11.259800
C -8.875600 -17.012300 -12.253200
H -8.382300 -19.197200 -14.634800
H -8.316500 -15.097600 -9.655500
C -8.130200 -15.750700 -10.319900
C -7.634200 -17.646100 -12.301600
C -7.522700 -19.365200 -14.266600
H -7.511800 -21.008500 -16.539200
C -7.052700 -18.670100 -13.146400
N -6.892100 -21.170100 -15.889300
C -6.882800 -16.366100 -10.339000
C -6.661600 -20.319000 -14.814900
C -6.652500 -17.326200 -11.327400
H -6.234900 -23.166500 -17.674700
H -6.212900 -16.142200 -9.703800
C -5.774800 -21.942600 -16.081600
C -5.755000 -18.927100 -12.620600
C -5.563900 -22.945800 -17.039400
N -5.529300 -18.087900 -11.537500
C -5.362600 -20.579700 -14.283800
C -4.889500 -19.875400 -13.168000
H -4.873000 -18.252800 -10.912800
C -4.789200 -21.620900 -15.118600
C -4.344600 -23.604200 -17.028700
H -4.178700 -24.288600 -17.666300
H -4.026800 -20.035000 -12.804000
C -3.563100 -22.290800 -15.139300
C -3.350300 -23.277900 -16.092100
H -2.884900 -22.073900 -14.510400
H -2.520000 -23.739300 -16.110700
H -10.714200 -20.150400 -20.281500
H -10.346700 -18.098000 -19.043900
H -10.147800 -21.361500 -18.517100
H -9.821900 -19.329600 -17.279200
C -9.736900 -20.307600 -20.287600
H -9.510700 -20.805100 -21.113200
C -9.376200 -18.292200 -19.051700
C -9.339700 -21.151300 -19.049200
N -9.028300 -19.011400 -20.282700
C -9.005700 -19.141200 -17.806700
H -8.934400 -22.004800 -19.344300
H -8.889400 -17.430500 -19.022300
N -8.379500 -20.410000 -18.217000
H -8.379100 -18.632700 -17.233200
C -7.579900 -19.276500 -20.283600
H -7.334000 -19.775000 -21.102700
C -7.183900 -20.105900 -19.029200
H -7.085300 -18.419000 -20.284600
H -6.751400 -20.950400 -19.312600
H -6.533800 -19.594800 -18.484900
