15
Fragment
O -10.704500 -15.675600 -39.537800
O -10.636700 -16.336300 -37.500100
N -10.352500 -15.520100 -38.368100
C -9.623300 -14.338700 -38.004300
H -9.546100 -13.527000 -39.765200
H -9.426400 -14.741600 -36.084100
C -9.285700 -13.397500 -38.961600
C -9.236600 -14.133000 -36.702400
C -8.601700 -12.306600 -38.585500
N -8.557400 -13.070100 -36.302200
H -8.372400 -11.678400 -39.157700
C -8.230500 -12.143200 -37.237700
N -7.546100 -11.091300 -36.819600
H -7.394800 -10.985900 -36.050600
H -7.290000 -10.520500 -37.380500
15
Fragment
O -10.704500 -9.166600 -39.537800
O -10.636700 -9.827300 -37.500100
N -10.352500 -9.011100 -38.368100
C -9.623300 -7.829700 -38.004300
H -9.546100 -7.018000 -39.765200
H -9.426400 -8.232600 -36.084100
C -9.285700 -6.888500 -38.961600
C -9.236600 -7.624000 -36.702400
C -8.601700 -5.797600 -38.585500
N -8.557400 -6.561100 -36.302200
H -8.372400 -5.169400 -39.157700
C -8.230500 -5.634200 -37.237700
N -7.546100 -4.582300 -36.819600
H -7.394800 -4.476900 -36.050600
H -7.290000 -4.011500 -37.380500
30
Fragment
O -10.704500 -15.675600 -39.537800
O -10.636700 -16.336300 -37.500100
N -10.352500 -15.520100 -38.368100
C -9.623300 -14.338700 -38.004300
H -9.546100 -13.527000 -39.765200
H -9.426400 -14.741600 -36.084100
C -9.285700 -13.397500 -38.961600
C -9.236600 -14.133000 -36.702400
C -8.601700 -12.306600 -38.585500
N -8.557400 -13.070100 -36.302200
H -8.372400 -11.678400 -39.157700
C -8.230500 -12.143200 -37.237700
N -7.546100 -11.091300 -36.819600
H -7.394800 -10.985900 -36.050600
H -7.290000 -10.520500 -37.380500
O -10.704500 -9.166600 -39.537800
O -10.636700 -9.827300 -37.500100
N -10.352500 -9.011100 -38.368100
C -9.623300 -7.829700 -38.004300
H -9.546100 -7.018000 -39.765200
H -9.426400 -8.232600 -36.084100
C -9.285700 -6.888500 -38.961600
C -9.236600 -7.624000 -36.702400
C -8.601700 -5.797600 -38.585500
N -8.557400 -6.561100 -36.302200
H -8.372400 -5.169400 -39.157700
C -8.230500 -5.634200 -37.237700
N -7.546100 -4.582300 -36.819600
H -7.394800 -4.476900 -36.050600
H -7.290000 -4.011500 -37.380500
