15
Fragment
O -10.704500 -15.675600 -39.537800
O -10.636700 -16.336300 -37.500100
N -10.352500 -15.520100 -38.368100
C -9.623300 -14.338700 -38.004300
H -9.546100 -13.527000 -39.765200
H -9.426400 -14.741600 -36.084100
C -9.285700 -13.397500 -38.961600
C -9.236600 -14.133000 -36.702400
C -8.601700 -12.306600 -38.585500
N -8.557400 -13.070100 -36.302200
H -8.372400 -11.678400 -39.157700
C -8.230500 -12.143200 -37.237700
N -7.546100 -11.091300 -36.819600
H -7.394800 -10.985900 -36.050600
H -7.290000 -10.520500 -37.380500
15
Fragment
H -13.503500 -15.515500 -34.376300
H -13.398700 -15.050100 -35.706200
N -13.247500 -14.944700 -34.937200
C -12.563100 -13.892800 -34.519100
H -12.421200 -14.357600 -32.599100
N -12.236100 -12.965900 -35.454600
C -12.191900 -13.729400 -33.171300
C -11.556900 -11.903000 -35.054400
C -11.507900 -12.638500 -32.795300
H -11.367200 -11.294400 -35.672700
H -11.247500 -12.509000 -31.991600
C -11.170300 -11.697300 -33.752500
N -10.441000 -10.515900 -33.388700
O -10.156900 -9.699700 -34.256700
O -10.089100 -10.360400 -32.219000
30
Fragment
O -10.704500 -15.675600 -39.537800
O -10.636700 -16.336300 -37.500100
N -10.352500 -15.520100 -38.368100
C -9.623300 -14.338700 -38.004300
H -9.546100 -13.527000 -39.765200
H -9.426400 -14.741600 -36.084100
C -9.285700 -13.397500 -38.961600
C -9.236600 -14.133000 -36.702400
C -8.601700 -12.306600 -38.585500
N -8.557400 -13.070100 -36.302200
H -8.372400 -11.678400 -39.157700
C -8.230500 -12.143200 -37.237700
N -7.546100 -11.091300 -36.819600
H -7.394800 -10.985900 -36.050600
H -7.290000 -10.520500 -37.380500
H -13.503500 -15.515500 -34.376300
H -13.398700 -15.050100 -35.706200
N -13.247500 -14.944700 -34.937200
C -12.563100 -13.892800 -34.519100
H -12.421200 -14.357600 -32.599100
N -12.236100 -12.965900 -35.454600
C -12.191900 -13.729400 -33.171300
C -11.556900 -11.903000 -35.054400
C -11.507900 -12.638500 -32.795300
H -11.367200 -11.294400 -35.672700
H -11.247500 -12.509000 -31.991600
C -11.170300 -11.697300 -33.752500
N -10.441000 -10.515900 -33.388700
O -10.156900 -9.699700 -34.256700
O -10.089100 -10.360400 -32.219000
