15
Fragment
O -10.704500 -15.675600 -39.537800
O -10.636700 -16.336300 -37.500100
N -10.352500 -15.520100 -38.368100
C -9.623300 -14.338700 -38.004300
H -9.546100 -13.527000 -39.765200
H -9.426400 -14.741600 -36.084100
C -9.285700 -13.397500 -38.961600
C -9.236600 -14.133000 -36.702400
C -8.601700 -12.306600 -38.585500
N -8.557400 -13.070100 -36.302200
H -8.372400 -11.678400 -39.157700
C -8.230500 -12.143200 -37.237700
N -7.546100 -11.091300 -36.819600
H -7.394800 -10.985900 -36.050600
H -7.290000 -10.520500 -37.380500
14
Fragment
H -10.921900 -14.757200 -45.053700
H -10.652300 -14.907600 -42.881900
C -10.527900 -15.434100 -44.647100
C -10.341400 -15.513600 -43.312600
H -10.250200 -16.411800 -46.247300
N -10.116000 -16.428700 -45.443300
C -9.728600 -16.621400 -42.789800
H -9.646300 -16.756100 -41.963400
C -9.484900 -17.577600 -45.037900
C -9.289400 -17.603600 -43.612300
O -9.171900 -18.440600 -45.865300
O -8.837600 -19.035600 -41.879700
N -8.595000 -18.744600 -43.031600
O -7.775800 -19.351300 -43.692700
29
Fragment
O -10.704500 -15.675600 -39.537800
O -10.636700 -16.336300 -37.500100
N -10.352500 -15.520100 -38.368100
C -9.623300 -14.338700 -38.004300
H -9.546100 -13.527000 -39.765200
H -9.426400 -14.741600 -36.084100
C -9.285700 -13.397500 -38.961600
C -9.236600 -14.133000 -36.702400
C -8.601700 -12.306600 -38.585500
N -8.557400 -13.070100 -36.302200
H -8.372400 -11.678400 -39.157700
C -8.230500 -12.143200 -37.237700
N -7.546100 -11.091300 -36.819600
H -7.394800 -10.985900 -36.050600
H -7.290000 -10.520500 -37.380500
H -10.921900 -14.757200 -45.053700
H -10.652300 -14.907600 -42.881900
C -10.527900 -15.434100 -44.647100
C -10.341400 -15.513600 -43.312600
H -10.250200 -16.411800 -46.247300
N -10.116000 -16.428700 -45.443300
C -9.728600 -16.621400 -42.789800
H -9.646300 -16.756100 -41.963400
C -9.484900 -17.577600 -45.037900
C -9.289400 -17.603600 -43.612300
O -9.171900 -18.440600 -45.865300
O -8.837600 -19.035600 -41.879700
N -8.595000 -18.744600 -43.031600
O -7.775800 -19.351300 -43.692700
