15
Fragment
O -10.704500 -15.675600 -39.537800
O -10.636700 -16.336300 -37.500100
N -10.352500 -15.520100 -38.368100
C -9.623300 -14.338700 -38.004300
H -9.546100 -13.527000 -39.765200
H -9.426400 -14.741600 -36.084100
C -9.285700 -13.397500 -38.961600
C -9.236600 -14.133000 -36.702400
C -8.601700 -12.306600 -38.585500
N -8.557400 -13.070100 -36.302200
H -8.372400 -11.678400 -39.157700
C -8.230500 -12.143200 -37.237700
N -7.546100 -11.091300 -36.819600
H -7.394800 -10.985900 -36.050600
H -7.290000 -10.520500 -37.380500
14
Fragment
H -10.921900 -8.248200 -45.053700
H -10.652300 -8.398600 -42.881900
C -10.527900 -8.925100 -44.647100
C -10.341400 -9.004600 -43.312600
H -10.250200 -9.902800 -46.247300
N -10.116000 -9.919700 -45.443300
C -9.728600 -10.112400 -42.789800
H -9.646300 -10.247100 -41.963400
C -9.484900 -11.068600 -45.037900
C -9.289400 -11.094600 -43.612300
O -9.171900 -11.931600 -45.865300
O -8.837600 -12.526600 -41.879700
N -8.595000 -12.235600 -43.031600
O -7.775800 -12.842300 -43.692700
29
Fragment
O -10.704500 -15.675600 -39.537800
O -10.636700 -16.336300 -37.500100
N -10.352500 -15.520100 -38.368100
C -9.623300 -14.338700 -38.004300
H -9.546100 -13.527000 -39.765200
H -9.426400 -14.741600 -36.084100
C -9.285700 -13.397500 -38.961600
C -9.236600 -14.133000 -36.702400
C -8.601700 -12.306600 -38.585500
N -8.557400 -13.070100 -36.302200
H -8.372400 -11.678400 -39.157700
C -8.230500 -12.143200 -37.237700
N -7.546100 -11.091300 -36.819600
H -7.394800 -10.985900 -36.050600
H -7.290000 -10.520500 -37.380500
H -10.921900 -8.248200 -45.053700
H -10.652300 -8.398600 -42.881900
C -10.527900 -8.925100 -44.647100
C -10.341400 -9.004600 -43.312600
H -10.250200 -9.902800 -46.247300
N -10.116000 -9.919700 -45.443300
C -9.728600 -10.112400 -42.789800
H -9.646300 -10.247100 -41.963400
C -9.484900 -11.068600 -45.037900
C -9.289400 -11.094600 -43.612300
O -9.171900 -11.931600 -45.865300
O -8.837600 -12.526600 -41.879700
N -8.595000 -12.235600 -43.031600
O -7.775800 -12.842300 -43.692700
