15
Fragment
O -10.704500 -15.675600 -39.537800
O -10.636700 -16.336300 -37.500100
N -10.352500 -15.520100 -38.368100
C -9.623300 -14.338700 -38.004300
H -9.546100 -13.527000 -39.765200
H -9.426400 -14.741600 -36.084100
C -9.285700 -13.397500 -38.961600
C -9.236600 -14.133000 -36.702400
C -8.601700 -12.306600 -38.585500
N -8.557400 -13.070100 -36.302200
H -8.372400 -11.678400 -39.157700
C -8.230500 -12.143200 -37.237700
N -7.546100 -11.091300 -36.819600
H -7.394800 -10.985900 -36.050600
H -7.290000 -10.520500 -37.380500
14
Fragment
O -7.566500 -9.587800 -40.023600
N -6.747300 -8.981100 -40.684700
O -6.504700 -9.272100 -41.836600
O -6.170400 -8.677100 -37.851000
C -6.053000 -7.840100 -40.103900
C -5.857400 -7.814100 -38.678400
H -5.696000 -6.992600 -41.752900
C -5.613800 -6.857900 -40.926500
N -5.226300 -6.665200 -38.272900
H -5.092100 -6.648300 -37.469000
C -5.001000 -5.750100 -40.403600
C -4.814400 -5.670600 -39.069200
H -4.690000 -5.144100 -40.834400
H -4.420400 -4.993700 -38.662600
29
Fragment
O -10.704500 -15.675600 -39.537800
O -10.636700 -16.336300 -37.500100
N -10.352500 -15.520100 -38.368100
C -9.623300 -14.338700 -38.004300
H -9.546100 -13.527000 -39.765200
H -9.426400 -14.741600 -36.084100
C -9.285700 -13.397500 -38.961600
C -9.236600 -14.133000 -36.702400
C -8.601700 -12.306600 -38.585500
N -8.557400 -13.070100 -36.302200
H -8.372400 -11.678400 -39.157700
C -8.230500 -12.143200 -37.237700
N -7.546100 -11.091300 -36.819600
H -7.394800 -10.985900 -36.050600
H -7.290000 -10.520500 -37.380500
O -7.566500 -9.587800 -40.023600
N -6.747300 -8.981100 -40.684700
O -6.504700 -9.272100 -41.836600
O -6.170400 -8.677100 -37.851000
C -6.053000 -7.840100 -40.103900
C -5.857400 -7.814100 -38.678400
H -5.696000 -6.992600 -41.752900
C -5.613800 -6.857900 -40.926500
N -5.226300 -6.665200 -38.272900
H -5.092100 -6.648300 -37.469000
C -5.001000 -5.750100 -40.403600
C -4.814400 -5.670600 -39.069200
H -4.690000 -5.144100 -40.834400
H -4.420400 -4.993700 -38.662600
