32
Fragment
H -7.043100 -13.743600 -14.493900
H -6.547000 -12.750100 -16.535900
C -6.486400 -12.986800 -14.526400
C -6.191200 -12.392300 -15.742300
H -6.148200 -12.873100 -12.535400
H -6.006100 -13.250700 -20.999900
C -5.959600 -12.463900 -13.360600
H -5.556500 -11.974200 -23.051000
C -5.370400 -11.267100 -15.798300
H -5.288000 -12.815500 -19.657300
C -5.186200 -12.901600 -20.618000
N -5.160500 -11.320200 -18.216700
C -5.156000 -11.338300 -13.405000
C -5.052900 -10.643100 -17.091900
N -4.898700 -11.592400 -21.195400
C -4.864300 -10.737400 -14.613900
H -4.806500 -10.981600 -12.608300
N -4.776300 -10.375700 -19.153200
C -4.768600 -11.574300 -22.651200
H -4.679900 -10.658000 -22.957200
C -4.646400 -10.468200 -20.526600
N -4.644900 -9.342200 -17.204900
C -4.482000 -9.185800 -18.512500
H -4.454500 -13.508600 -20.812400
H -4.322800 -9.969500 -14.637200
N -4.269900 -9.386500 -21.188000
N -4.123600 -8.083700 -19.171100
C -4.060100 -8.240200 -20.501600
H -3.981700 -12.079200 -22.911600
N -3.760200 -7.164800 -21.229800
H -3.731600 -7.204500 -22.114600
H -3.698700 -6.394400 -20.852800
32
Fragment
H -7.950100 -14.769500 -1.471500
H -7.454000 -13.775900 -3.513400
C -7.393400 -14.012600 -1.504000
C -7.098200 -13.418100 -2.719900
H -7.055300 -13.898900 0.487000
H -6.913200 -14.276600 -7.977500
C -6.866600 -13.489700 -0.338200
H -6.463500 -13.000000 -10.028600
C -6.277500 -12.292900 -2.775900
H -6.195000 -13.841300 -6.634900
C -6.093200 -13.927400 -7.595600
N -6.067600 -12.346100 -5.194200
C -6.063000 -12.364200 -0.382600
C -5.960000 -11.669000 -4.069500
N -5.805700 -12.618200 -8.173000
C -5.771300 -11.763200 -1.591500
H -5.713500 -12.007400 0.414100
N -5.683300 -11.401500 -6.130800
C -5.675600 -12.600200 -9.628800
H -5.586900 -11.683800 -9.934800
C -5.553400 -11.494000 -7.504200
N -5.552000 -10.368000 -4.182500
C -5.389100 -10.211600 -5.490100
H -5.361500 -14.534400 -7.790000
H -5.229800 -10.995300 -1.614800
N -5.176900 -10.412300 -8.165600
N -5.030600 -9.109500 -6.148700
C -4.967100 -9.266100 -7.479200
H -4.888700 -13.105100 -9.889200
N -4.667200 -8.190600 -8.207400
H -4.638600 -8.230400 -9.092200
H -4.605700 -7.420200 -7.830400
64
Fragment
H -7.043100 -13.743600 -14.493900
H -6.547000 -12.750100 -16.535900
C -6.486400 -12.986800 -14.526400
C -6.191200 -12.392300 -15.742300
H -6.148200 -12.873100 -12.535400
H -6.006100 -13.250700 -20.999900
C -5.959600 -12.463900 -13.360600
H -5.556500 -11.974200 -23.051000
C -5.370400 -11.267100 -15.798300
H -5.288000 -12.815500 -19.657300
C -5.186200 -12.901600 -20.618000
N -5.160500 -11.320200 -18.216700
C -5.156000 -11.338300 -13.405000
C -5.052900 -10.643100 -17.091900
N -4.898700 -11.592400 -21.195400
C -4.864300 -10.737400 -14.613900
H -4.806500 -10.981600 -12.608300
N -4.776300 -10.375700 -19.153200
C -4.768600 -11.574300 -22.651200
H -4.679900 -10.658000 -22.957200
C -4.646400 -10.468200 -20.526600
N -4.644900 -9.342200 -17.204900
C -4.482000 -9.185800 -18.512500
H -4.454500 -13.508600 -20.812400
H -4.322800 -9.969500 -14.637200
N -4.269900 -9.386500 -21.188000
N -4.123600 -8.083700 -19.171100
C -4.060100 -8.240200 -20.501600
H -3.981700 -12.079200 -22.911600
N -3.760200 -7.164800 -21.229800
H -3.731600 -7.204500 -22.114600
H -3.698700 -6.394400 -20.852800
H -7.950100 -14.769500 -1.471500
H -7.454000 -13.775900 -3.513400
C -7.393400 -14.012600 -1.504000
C -7.098200 -13.418100 -2.719900
H -7.055300 -13.898900 0.487000
H -6.913200 -14.276600 -7.977500
C -6.866600 -13.489700 -0.338200
H -6.463500 -13.000000 -10.028600
C -6.277500 -12.292900 -2.775900
H -6.195000 -13.841300 -6.634900
C -6.093200 -13.927400 -7.595600
N -6.067600 -12.346100 -5.194200
C -6.063000 -12.364200 -0.382600
C -5.960000 -11.669000 -4.069500
N -5.805700 -12.618200 -8.173000
C -5.771300 -11.763200 -1.591500
H -5.713500 -12.007400 0.414100
N -5.683300 -11.401500 -6.130800
C -5.675600 -12.600200 -9.628800
H -5.586900 -11.683800 -9.934800
C -5.553400 -11.494000 -7.504200
N -5.552000 -10.368000 -4.182500
C -5.389100 -10.211600 -5.490100
H -5.361500 -14.534400 -7.790000
H -5.229800 -10.995300 -1.614800
N -5.176900 -10.412300 -8.165600
N -5.030600 -9.109500 -6.148700
C -4.967100 -9.266100 -7.479200
H -4.888700 -13.105100 -9.889200
N -4.667200 -8.190600 -8.207400
H -4.638600 -8.230400 -9.092200
H -4.605700 -7.420200 -7.830400
