32
Fragment
H -7.043100 -13.743600 -14.493900
H -6.547000 -12.750100 -16.535900
C -6.486400 -12.986800 -14.526400
C -6.191200 -12.392300 -15.742300
H -6.148200 -12.873100 -12.535400
H -6.006100 -13.250700 -20.999900
C -5.959600 -12.463900 -13.360600
H -5.556500 -11.974200 -23.051000
C -5.370400 -11.267100 -15.798300
H -5.288000 -12.815500 -19.657300
C -5.186200 -12.901600 -20.618000
N -5.160500 -11.320200 -18.216700
C -5.156000 -11.338300 -13.405000
C -5.052900 -10.643100 -17.091900
N -4.898700 -11.592400 -21.195400
C -4.864300 -10.737400 -14.613900
H -4.806500 -10.981600 -12.608300
N -4.776300 -10.375700 -19.153200
C -4.768600 -11.574300 -22.651200
H -4.679900 -10.658000 -22.957200
C -4.646400 -10.468200 -20.526600
N -4.644900 -9.342200 -17.204900
C -4.482000 -9.185800 -18.512500
H -4.454500 -13.508600 -20.812400
H -4.322800 -9.969500 -14.637200
N -4.269900 -9.386500 -21.188000
N -4.123600 -8.083700 -19.171100
C -4.060100 -8.240200 -20.501600
H -3.981700 -12.079200 -22.911600
N -3.760200 -7.164800 -21.229800
H -3.731600 -7.204500 -22.114600
H -3.698700 -6.394400 -20.852800
32
Fragment
H -7.395600 -21.892200 -18.214400
H -7.362700 -21.082100 -16.952600
N -7.334100 -21.121800 -17.837400
H -7.112600 -16.207300 -16.155600
C -7.034200 -20.046400 -18.565700
N -6.970700 -20.202900 -19.896200
N -6.824400 -18.900100 -17.879200
H -6.771500 -18.317100 -24.430000
H -6.639800 -14.778000 -18.254800
C -6.612200 -19.100800 -20.554700
N -6.449400 -18.944400 -21.862300
C -6.447900 -17.818400 -18.540600
H -6.414400 -17.628600 -16.110000
C -6.325700 -16.712300 -16.416000
N -6.318000 -17.910900 -19.914000
H -6.287800 -17.305000 -26.458900
C -6.230000 -17.549200 -24.453300
N -6.195600 -16.694200 -17.871800
C -6.041400 -17.643400 -21.975300
C -5.938300 -16.948300 -25.662200
N -5.933700 -16.966400 -20.850600
C -5.908100 -15.385000 -18.449200
H -5.806300 -15.471100 -19.409900
C -5.723900 -17.019500 -23.269000
H -5.537800 -16.312400 -16.016300
C -5.134700 -15.822700 -25.706600
H -5.088200 -15.035800 -18.067300
H -4.946000 -15.413500 -26.531800
C -4.903100 -15.894300 -23.325000
C -4.607900 -15.299800 -24.540900
H -4.547300 -15.536500 -22.531400
H -4.051200 -14.542900 -24.573300
64
Fragment
H -7.043100 -13.743600 -14.493900
H -6.547000 -12.750100 -16.535900
C -6.486400 -12.986800 -14.526400
C -6.191200 -12.392300 -15.742300
H -6.148200 -12.873100 -12.535400
H -6.006100 -13.250700 -20.999900
C -5.959600 -12.463900 -13.360600
H -5.556500 -11.974200 -23.051000
C -5.370400 -11.267100 -15.798300
H -5.288000 -12.815500 -19.657300
C -5.186200 -12.901600 -20.618000
N -5.160500 -11.320200 -18.216700
C -5.156000 -11.338300 -13.405000
C -5.052900 -10.643100 -17.091900
N -4.898700 -11.592400 -21.195400
C -4.864300 -10.737400 -14.613900
H -4.806500 -10.981600 -12.608300
N -4.776300 -10.375700 -19.153200
C -4.768600 -11.574300 -22.651200
H -4.679900 -10.658000 -22.957200
C -4.646400 -10.468200 -20.526600
N -4.644900 -9.342200 -17.204900
C -4.482000 -9.185800 -18.512500
H -4.454500 -13.508600 -20.812400
H -4.322800 -9.969500 -14.637200
N -4.269900 -9.386500 -21.188000
N -4.123600 -8.083700 -19.171100
C -4.060100 -8.240200 -20.501600
H -3.981700 -12.079200 -22.911600
N -3.760200 -7.164800 -21.229800
H -3.731600 -7.204500 -22.114600
H -3.698700 -6.394400 -20.852800
H -7.395600 -21.892200 -18.214400
H -7.362700 -21.082100 -16.952600
N -7.334100 -21.121800 -17.837400
H -7.112600 -16.207300 -16.155600
C -7.034200 -20.046400 -18.565700
N -6.970700 -20.202900 -19.896200
N -6.824400 -18.900100 -17.879200
H -6.771500 -18.317100 -24.430000
H -6.639800 -14.778000 -18.254800
C -6.612200 -19.100800 -20.554700
N -6.449400 -18.944400 -21.862300
C -6.447900 -17.818400 -18.540600
H -6.414400 -17.628600 -16.110000
C -6.325700 -16.712300 -16.416000
N -6.318000 -17.910900 -19.914000
H -6.287800 -17.305000 -26.458900
C -6.230000 -17.549200 -24.453300
N -6.195600 -16.694200 -17.871800
C -6.041400 -17.643400 -21.975300
C -5.938300 -16.948300 -25.662200
N -5.933700 -16.966400 -20.850600
C -5.908100 -15.385000 -18.449200
H -5.806300 -15.471100 -19.409900
C -5.723900 -17.019500 -23.269000
H -5.537800 -16.312400 -16.016300
C -5.134700 -15.822700 -25.706600
H -5.088200 -15.035800 -18.067300
H -4.946000 -15.413500 -26.531800
C -4.903100 -15.894300 -23.325000
C -4.607900 -15.299800 -24.540900
H -4.547300 -15.536500 -22.531400
H -4.051200 -14.542900 -24.573300
