32
Fragment
H -7.043100 -13.743600 -14.493900
H -6.547000 -12.750100 -16.535900
C -6.486400 -12.986800 -14.526400
C -6.191200 -12.392300 -15.742300
H -6.148200 -12.873100 -12.535400
H -6.006100 -13.250700 -20.999900
C -5.959600 -12.463900 -13.360600
H -5.556500 -11.974200 -23.051000
C -5.370400 -11.267100 -15.798300
H -5.288000 -12.815500 -19.657300
C -5.186200 -12.901600 -20.618000
N -5.160500 -11.320200 -18.216700
C -5.156000 -11.338300 -13.405000
C -5.052900 -10.643100 -17.091900
N -4.898700 -11.592400 -21.195400
C -4.864300 -10.737400 -14.613900
H -4.806500 -10.981600 -12.608300
N -4.776300 -10.375700 -19.153200
C -4.768600 -11.574300 -22.651200
H -4.679900 -10.658000 -22.957200
C -4.646400 -10.468200 -20.526600
N -4.644900 -9.342200 -17.204900
C -4.482000 -9.185800 -18.512500
H -4.454500 -13.508600 -20.812400
H -4.322800 -9.969500 -14.637200
N -4.269900 -9.386500 -21.188000
N -4.123600 -8.083700 -19.171100
C -4.060100 -8.240200 -20.501600
H -3.981700 -12.079200 -22.911600
N -3.760200 -7.164800 -21.229800
H -3.731600 -7.204500 -22.114600
H -3.698700 -6.394400 -20.852800
32
Fragment
H -5.249700 -21.584700 -14.493900
H -4.753600 -20.591100 -16.535900
C -4.693000 -20.827800 -14.526400
C -4.397800 -20.233300 -15.742300
H -4.354900 -20.714100 -12.535400
H -4.212800 -21.091800 -20.999900
C -4.166200 -20.304900 -13.360600
H -3.763100 -19.815200 -23.051000
C -3.577100 -19.108100 -15.798300
H -3.494600 -20.656500 -19.657300
C -3.392800 -20.742600 -20.618000
N -3.367200 -19.161200 -18.216700
C -3.362600 -19.179400 -13.405000
C -3.259500 -18.484200 -17.091900
N -3.105300 -19.433400 -21.195400
C -3.070900 -18.578400 -14.613900
H -3.013100 -18.822600 -12.608300
N -2.982900 -18.216700 -19.153200
C -2.975200 -19.415400 -22.651200
H -2.886500 -18.499000 -22.957200
C -2.853000 -18.309200 -20.526600
N -2.851500 -17.183200 -17.204900
C -2.688700 -17.026800 -18.512500
H -2.661100 -21.349600 -20.812400
H -2.529400 -17.810500 -14.637200
N -2.476500 -17.227500 -21.188000
N -2.330200 -15.924700 -19.171100
C -2.266700 -16.081200 -20.501600
H -2.188300 -19.920300 -22.911600
N -1.966800 -15.005800 -21.229800
H -1.938200 -15.045600 -22.114600
H -1.905300 -14.235400 -20.852800
64
Fragment
H -7.043100 -13.743600 -14.493900
H -6.547000 -12.750100 -16.535900
C -6.486400 -12.986800 -14.526400
C -6.191200 -12.392300 -15.742300
H -6.148200 -12.873100 -12.535400
H -6.006100 -13.250700 -20.999900
C -5.959600 -12.463900 -13.360600
H -5.556500 -11.974200 -23.051000
C -5.370400 -11.267100 -15.798300
H -5.288000 -12.815500 -19.657300
C -5.186200 -12.901600 -20.618000
N -5.160500 -11.320200 -18.216700
C -5.156000 -11.338300 -13.405000
C -5.052900 -10.643100 -17.091900
N -4.898700 -11.592400 -21.195400
C -4.864300 -10.737400 -14.613900
H -4.806500 -10.981600 -12.608300
N -4.776300 -10.375700 -19.153200
C -4.768600 -11.574300 -22.651200
H -4.679900 -10.658000 -22.957200
C -4.646400 -10.468200 -20.526600
N -4.644900 -9.342200 -17.204900
C -4.482000 -9.185800 -18.512500
H -4.454500 -13.508600 -20.812400
H -4.322800 -9.969500 -14.637200
N -4.269900 -9.386500 -21.188000
N -4.123600 -8.083700 -19.171100
C -4.060100 -8.240200 -20.501600
H -3.981700 -12.079200 -22.911600
N -3.760200 -7.164800 -21.229800
H -3.731600 -7.204500 -22.114600
H -3.698700 -6.394400 -20.852800
H -5.249700 -21.584700 -14.493900
H -4.753600 -20.591100 -16.535900
C -4.693000 -20.827800 -14.526400
C -4.397800 -20.233300 -15.742300
H -4.354900 -20.714100 -12.535400
H -4.212800 -21.091800 -20.999900
C -4.166200 -20.304900 -13.360600
H -3.763100 -19.815200 -23.051000
C -3.577100 -19.108100 -15.798300
H -3.494600 -20.656500 -19.657300
C -3.392800 -20.742600 -20.618000
N -3.367200 -19.161200 -18.216700
C -3.362600 -19.179400 -13.405000
C -3.259500 -18.484200 -17.091900
N -3.105300 -19.433400 -21.195400
C -3.070900 -18.578400 -14.613900
H -3.013100 -18.822600 -12.608300
N -2.982900 -18.216700 -19.153200
C -2.975200 -19.415400 -22.651200
H -2.886500 -18.499000 -22.957200
C -2.853000 -18.309200 -20.526600
N -2.851500 -17.183200 -17.204900
C -2.688700 -17.026800 -18.512500
H -2.661100 -21.349600 -20.812400
H -2.529400 -17.810500 -14.637200
N -2.476500 -17.227500 -21.188000
N -2.330200 -15.924700 -19.171100
C -2.266700 -16.081200 -20.501600
H -2.188300 -19.920300 -22.911600
N -1.966800 -15.005800 -21.229800
H -1.938200 -15.045600 -22.114600
H -1.905300 -14.235400 -20.852800
