16
Fragment
H -8.678700 -13.423000 -21.073500
N -8.002500 -13.058000 -21.387800
H -7.774800 -13.045100 -22.216800
N -7.360200 -12.704700 -19.203800
H -7.146300 -13.135800 -16.720900
H -7.131100 -11.569000 -16.667300
C -7.087000 -12.626300 -20.537400
C -6.636800 -12.349000 -16.930000
C -6.376300 -12.301700 -18.386600
N -5.952900 -12.134400 -21.039800
H -5.801600 -12.373200 -16.456600
N -5.191000 -11.860800 -18.789600
C -5.036500 -11.778400 -20.135300
N -3.878900 -11.297700 -20.590200
H -3.811300 -11.193400 -21.455000
H -3.213900 -11.110300 -19.983800
16
Fragment
H -6.445400 -13.030000 -27.307500
N -5.769100 -13.395000 -27.621900
H -5.541400 -13.407900 -28.450900
N -5.126900 -13.748300 -25.437800
H -4.913000 -13.317200 -22.954900
H -4.897800 -14.884000 -22.901300
C -4.853600 -13.826700 -26.771400
C -4.403400 -14.104000 -23.164000
C -4.142900 -14.151300 -24.620700
N -3.719600 -14.318600 -27.273900
H -3.568200 -14.079800 -22.690600
N -2.957700 -14.592200 -25.023600
C -2.803100 -14.674600 -26.369300
N -1.645600 -15.155300 -26.824300
H -1.578000 -15.259600 -27.689100
H -0.980600 -15.342700 -26.217800
32
Fragment
H -8.678700 -13.423000 -21.073500
N -8.002500 -13.058000 -21.387800
H -7.774800 -13.045100 -22.216800
N -7.360200 -12.704700 -19.203800
H -7.146300 -13.135800 -16.720900
H -7.131100 -11.569000 -16.667300
C -7.087000 -12.626300 -20.537400
C -6.636800 -12.349000 -16.930000
C -6.376300 -12.301700 -18.386600
N -5.952900 -12.134400 -21.039800
H -5.801600 -12.373200 -16.456600
N -5.191000 -11.860800 -18.789600
C -5.036500 -11.778400 -20.135300
N -3.878900 -11.297700 -20.590200
H -3.811300 -11.193400 -21.455000
H -3.213900 -11.110300 -19.983800
H -6.445400 -13.030000 -27.307500
N -5.769100 -13.395000 -27.621900
H -5.541400 -13.407900 -28.450900
N -5.126900 -13.748300 -25.437800
H -4.913000 -13.317200 -22.954900
H -4.897800 -14.884000 -22.901300
C -4.853600 -13.826700 -26.771400
C -4.403400 -14.104000 -23.164000
C -4.142900 -14.151300 -24.620700
N -3.719600 -14.318600 -27.273900
H -3.568200 -14.079800 -22.690600
N -2.957700 -14.592200 -25.023600
C -2.803100 -14.674600 -26.369300
N -1.645600 -15.155300 -26.824300
H -1.578000 -15.259600 -27.689100
H -0.980600 -15.342700 -26.217800
