16
Fragment
H -8.678700 -13.423000 -21.073500
N -8.002500 -13.058000 -21.387800
H -7.774800 -13.045100 -22.216800
N -7.360200 -12.704700 -19.203800
H -7.146300 -13.135800 -16.720900
H -7.131100 -11.569000 -16.667300
C -7.087000 -12.626300 -20.537400
C -6.636800 -12.349000 -16.930000
C -6.376300 -12.301700 -18.386600
N -5.952900 -12.134400 -21.039800
H -5.801600 -12.373200 -16.456600
N -5.191000 -11.860800 -18.789600
C -5.036500 -11.778400 -20.135300
N -3.878900 -11.297700 -20.590200
H -3.811300 -11.193400 -21.455000
H -3.213900 -11.110300 -19.983800
20
Fragment
H -5.900600 -9.439900 -25.010900
O -5.107600 -9.747600 -25.476600
O -4.320600 -10.337800 -23.482500
C -4.193200 -10.256200 -24.688700
H -3.248900 -11.503300 -25.937300
C -2.968000 -10.727100 -25.423600
H -2.685500 -9.999200 -26.048300
H -2.067600 -11.828300 -23.918700
C -1.799100 -11.107200 -24.533500
H -1.550000 -10.399800 -23.992300
H -0.843300 -12.274200 -25.879900
C -0.594300 -11.566800 -25.338700
H -0.325700 -10.845700 -25.953500
H 0.292100 -12.674800 -23.824000
C 0.574700 -11.946900 -24.448600
H 0.855600 -11.170700 -23.934900
C 1.799900 -12.417800 -25.183500
O 1.927300 -12.336200 -26.389800
O 2.714300 -12.926400 -24.395600
H 3.507200 -13.234100 -24.861300
36
Fragment
H -8.678700 -13.423000 -21.073500
N -8.002500 -13.058000 -21.387800
H -7.774800 -13.045100 -22.216800
N -7.360200 -12.704700 -19.203800
H -7.146300 -13.135800 -16.720900
H -7.131100 -11.569000 -16.667300
C -7.087000 -12.626300 -20.537400
C -6.636800 -12.349000 -16.930000
C -6.376300 -12.301700 -18.386600
N -5.952900 -12.134400 -21.039800
H -5.801600 -12.373200 -16.456600
N -5.191000 -11.860800 -18.789600
C -5.036500 -11.778400 -20.135300
N -3.878900 -11.297700 -20.590200
H -3.811300 -11.193400 -21.455000
H -3.213900 -11.110300 -19.983800
H -5.900600 -9.439900 -25.010900
O -5.107600 -9.747600 -25.476600
O -4.320600 -10.337800 -23.482500
C -4.193200 -10.256200 -24.688700
H -3.248900 -11.503300 -25.937300
C -2.968000 -10.727100 -25.423600
H -2.685500 -9.999200 -26.048300
H -2.067600 -11.828300 -23.918700
C -1.799100 -11.107200 -24.533500
H -1.550000 -10.399800 -23.992300
H -0.843300 -12.274200 -25.879900
C -0.594300 -11.566800 -25.338700
H -0.325700 -10.845700 -25.953500
H 0.292100 -12.674800 -23.824000
C 0.574700 -11.946900 -24.448600
H 0.855600 -11.170700 -23.934900
C 1.799900 -12.417800 -25.183500
O 1.927300 -12.336200 -26.389800
O 2.714300 -12.926400 -24.395600
H 3.507200 -13.234100 -24.861300
