16
Fragment
H -8.678700 -13.423000 -21.073500
N -8.002500 -13.058000 -21.387800
H -7.774800 -13.045100 -22.216800
N -7.360200 -12.704700 -19.203800
H -7.146300 -13.135800 -16.720900
H -7.131100 -11.569000 -16.667300
C -7.087000 -12.626300 -20.537400
C -6.636800 -12.349000 -16.930000
C -6.376300 -12.301700 -18.386600
N -5.952900 -12.134400 -21.039800
H -5.801600 -12.373200 -16.456600
N -5.191000 -11.860800 -18.789600
C -5.036500 -11.778400 -20.135300
N -3.878900 -11.297700 -20.590200
H -3.811300 -11.193400 -21.455000
H -3.213900 -11.110300 -19.983800
20
Fragment
H -8.133900 -9.455100 -18.776900
O -7.340900 -9.147400 -19.242600
O -6.554000 -8.557200 -17.248400
C -6.426500 -8.638800 -18.454700
H -5.482300 -7.391700 -19.703300
C -5.201300 -8.167900 -19.189600
H -4.918800 -8.895800 -19.814200
H -4.301000 -7.066700 -17.684700
C -4.032400 -7.787800 -18.299500
H -3.783300 -8.495200 -17.758300
H -3.076700 -6.620800 -19.645900
C -2.827600 -7.328200 -19.104700
H -2.559000 -8.049300 -19.719500
H -1.941200 -6.220200 -17.589900
C -1.658700 -6.948100 -18.214600
H -1.377700 -7.724300 -17.700900
C -0.433500 -6.477200 -18.949500
O -0.306000 -6.558800 -20.155700
O 0.480900 -5.968600 -18.161600
H 1.273900 -5.660900 -18.627300
36
Fragment
H -8.678700 -13.423000 -21.073500
N -8.002500 -13.058000 -21.387800
H -7.774800 -13.045100 -22.216800
N -7.360200 -12.704700 -19.203800
H -7.146300 -13.135800 -16.720900
H -7.131100 -11.569000 -16.667300
C -7.087000 -12.626300 -20.537400
C -6.636800 -12.349000 -16.930000
C -6.376300 -12.301700 -18.386600
N -5.952900 -12.134400 -21.039800
H -5.801600 -12.373200 -16.456600
N -5.191000 -11.860800 -18.789600
C -5.036500 -11.778400 -20.135300
N -3.878900 -11.297700 -20.590200
H -3.811300 -11.193400 -21.455000
H -3.213900 -11.110300 -19.983800
H -8.133900 -9.455100 -18.776900
O -7.340900 -9.147400 -19.242600
O -6.554000 -8.557200 -17.248400
C -6.426500 -8.638800 -18.454700
H -5.482300 -7.391700 -19.703300
C -5.201300 -8.167900 -19.189600
H -4.918800 -8.895800 -19.814200
H -4.301000 -7.066700 -17.684700
C -4.032400 -7.787800 -18.299500
H -3.783300 -8.495200 -17.758300
H -3.076700 -6.620800 -19.645900
C -2.827600 -7.328200 -19.104700
H -2.559000 -8.049300 -19.719500
H -1.941200 -6.220200 -17.589900
C -1.658700 -6.948100 -18.214600
H -1.377700 -7.724300 -17.700900
C -0.433500 -6.477200 -18.949500
O -0.306000 -6.558800 -20.155700
O 0.480900 -5.968600 -18.161600
H 1.273900 -5.660900 -18.627300
