16
Fragment
H -8.678700 -13.423000 -21.073500
N -8.002500 -13.058000 -21.387800
H -7.774800 -13.045100 -22.216800
N -7.360200 -12.704700 -19.203800
H -7.146300 -13.135800 -16.720900
H -7.131100 -11.569000 -16.667300
C -7.087000 -12.626300 -20.537400
C -6.636800 -12.349000 -16.930000
C -6.376300 -12.301700 -18.386600
N -5.952900 -12.134400 -21.039800
H -5.801600 -12.373200 -16.456600
N -5.191000 -11.860800 -18.789600
C -5.036500 -11.778400 -20.135300
N -3.878900 -11.297700 -20.590200
H -3.811300 -11.193400 -21.455000
H -3.213900 -11.110300 -19.983800
16
Fragment
H -3.646100 -11.563700 -17.420400
H -3.048700 -11.480600 -15.949100
N -2.981100 -11.376300 -16.813900
C -1.823500 -10.895600 -17.268900
N -1.669000 -10.813200 -18.614600
H -1.058400 -10.300800 -20.947600
N -0.907100 -10.539600 -16.364300
C -0.483700 -10.372300 -19.017500
C -0.223200 -10.325000 -20.474200
C 0.227000 -10.047700 -16.866800
H 0.271100 -11.105000 -20.736900
H 0.286300 -9.538200 -20.683300
N 0.500200 -9.969300 -18.200400
H 0.914800 -9.628900 -15.187300
N 1.142500 -9.616000 -16.016300
H 1.818700 -9.251000 -16.330700
32
Fragment
H -8.678700 -13.423000 -21.073500
N -8.002500 -13.058000 -21.387800
H -7.774800 -13.045100 -22.216800
N -7.360200 -12.704700 -19.203800
H -7.146300 -13.135800 -16.720900
H -7.131100 -11.569000 -16.667300
C -7.087000 -12.626300 -20.537400
C -6.636800 -12.349000 -16.930000
C -6.376300 -12.301700 -18.386600
N -5.952900 -12.134400 -21.039800
H -5.801600 -12.373200 -16.456600
N -5.191000 -11.860800 -18.789600
C -5.036500 -11.778400 -20.135300
N -3.878900 -11.297700 -20.590200
H -3.811300 -11.193400 -21.455000
H -3.213900 -11.110300 -19.983800
H -3.646100 -11.563700 -17.420400
H -3.048700 -11.480600 -15.949100
N -2.981100 -11.376300 -16.813900
C -1.823500 -10.895600 -17.268900
N -1.669000 -10.813200 -18.614600
H -1.058400 -10.300800 -20.947600
N -0.907100 -10.539600 -16.364300
C -0.483700 -10.372300 -19.017500
C -0.223200 -10.325000 -20.474200
C 0.227000 -10.047700 -16.866800
H 0.271100 -11.105000 -20.736900
H 0.286300 -9.538200 -20.683300
N 0.500200 -9.969300 -18.200400
H 0.914800 -9.628900 -15.187300
N 1.142500 -9.616000 -16.016300
H 1.818700 -9.251000 -16.330700
