36
Fragment
O -25.037900 -28.110000 -30.646300
O -24.633900 -27.991500 -32.781500
N -24.483300 -27.647600 -31.623200
H -23.888400 -26.546500 -29.374200
N -23.615800 -26.537800 -31.394500
O -23.303100 -28.168600 -28.008300
C -23.133000 -26.433700 -30.019600
O -23.096300 -22.409400 -30.078400
H -23.035100 -26.399900 -33.343000
H -22.890600 -24.518300 -29.092000
C -22.613800 -26.353500 -32.437400
N -22.611300 -22.915500 -31.069300
N -22.496300 -24.312700 -31.075500
C -22.449600 -25.036300 -29.825200
O -22.272700 -22.341300 -32.090700
N -22.178000 -28.045500 -28.454000
N -22.078700 -27.440800 -29.763700
O -22.046600 -28.274200 -34.299200
H -21.979300 -24.376600 -33.037400
C -21.905200 -24.951100 -32.222100
N -21.538100 -27.356900 -32.312400
O -21.142300 -28.444200 -27.959000
N -21.135900 -27.984000 -33.538400
N -21.093200 -25.465600 -29.433400
C -20.799900 -26.795800 -29.998000
N -20.505400 -25.326700 -31.954100
C -20.463800 -26.729900 -31.550400
O -20.409500 -23.365100 -29.221800
N -20.086100 -24.531400 -29.376100
H -20.068800 -27.250200 -29.489600
O -19.959800 -28.234000 -33.673900
O -19.682700 -23.717400 -33.257500
H -19.577100 -27.145500 -31.753200
N -19.491200 -24.820100 -32.778900
O -18.942100 -24.973300 -29.454200
O -18.465200 -25.476900 -32.865200
12
Fragment
H -24.666900 -22.477900 -26.252500
H -24.032800 -21.922600 -27.612800
C -23.836600 -22.361300 -26.758900
O -23.237800 -23.654500 -27.008000
H -23.214000 -21.807500 -26.242700
O -22.847400 -23.894500 -24.793900
C -22.829800 -24.316700 -25.930500
H -22.628800 -26.550100 -24.603700
O -22.410100 -25.508900 -26.316300
C -21.906400 -26.366300 -25.239800
H -21.582400 -27.209800 -25.618700
H -21.171600 -25.912100 -24.777300
48
Fragment
O -25.037900 -28.110000 -30.646300
O -24.633900 -27.991500 -32.781500
N -24.483300 -27.647600 -31.623200
H -23.888400 -26.546500 -29.374200
N -23.615800 -26.537800 -31.394500
O -23.303100 -28.168600 -28.008300
C -23.133000 -26.433700 -30.019600
O -23.096300 -22.409400 -30.078400
H -23.035100 -26.399900 -33.343000
H -22.890600 -24.518300 -29.092000
C -22.613800 -26.353500 -32.437400
N -22.611300 -22.915500 -31.069300
N -22.496300 -24.312700 -31.075500
C -22.449600 -25.036300 -29.825200
O -22.272700 -22.341300 -32.090700
N -22.178000 -28.045500 -28.454000
N -22.078700 -27.440800 -29.763700
O -22.046600 -28.274200 -34.299200
H -21.979300 -24.376600 -33.037400
C -21.905200 -24.951100 -32.222100
N -21.538100 -27.356900 -32.312400
O -21.142300 -28.444200 -27.959000
N -21.135900 -27.984000 -33.538400
N -21.093200 -25.465600 -29.433400
C -20.799900 -26.795800 -29.998000
N -20.505400 -25.326700 -31.954100
C -20.463800 -26.729900 -31.550400
O -20.409500 -23.365100 -29.221800
N -20.086100 -24.531400 -29.376100
H -20.068800 -27.250200 -29.489600
O -19.959800 -28.234000 -33.673900
O -19.682700 -23.717400 -33.257500
H -19.577100 -27.145500 -31.753200
N -19.491200 -24.820100 -32.778900
O -18.942100 -24.973300 -29.454200
O -18.465200 -25.476900 -32.865200
H -24.666900 -22.477900 -26.252500
H -24.032800 -21.922600 -27.612800
C -23.836600 -22.361300 -26.758900
O -23.237800 -23.654500 -27.008000
H -23.214000 -21.807500 -26.242700
O -22.847400 -23.894500 -24.793900
C -22.829800 -24.316700 -25.930500
H -22.628800 -26.550100 -24.603700
O -22.410100 -25.508900 -26.316300
C -21.906400 -26.366300 -25.239800
H -21.582400 -27.209800 -25.618700
H -21.171600 -25.912100 -24.777300
