36
Fragment
O -25.037900 -28.110000 -30.646300
O -24.633900 -27.991500 -32.781500
N -24.483300 -27.647600 -31.623200
H -23.888400 -26.546500 -29.374200
N -23.615800 -26.537800 -31.394500
O -23.303100 -28.168600 -28.008300
C -23.133000 -26.433700 -30.019600
O -23.096300 -22.409400 -30.078400
H -23.035100 -26.399900 -33.343000
H -22.890600 -24.518300 -29.092000
C -22.613800 -26.353500 -32.437400
N -22.611300 -22.915500 -31.069300
N -22.496300 -24.312700 -31.075500
C -22.449600 -25.036300 -29.825200
O -22.272700 -22.341300 -32.090700
N -22.178000 -28.045500 -28.454000
N -22.078700 -27.440800 -29.763700
O -22.046600 -28.274200 -34.299200
H -21.979300 -24.376600 -33.037400
C -21.905200 -24.951100 -32.222100
N -21.538100 -27.356900 -32.312400
O -21.142300 -28.444200 -27.959000
N -21.135900 -27.984000 -33.538400
N -21.093200 -25.465600 -29.433400
C -20.799900 -26.795800 -29.998000
N -20.505400 -25.326700 -31.954100
C -20.463800 -26.729900 -31.550400
O -20.409500 -23.365100 -29.221800
N -20.086100 -24.531400 -29.376100
H -20.068800 -27.250200 -29.489600
O -19.959800 -28.234000 -33.673900
O -19.682700 -23.717400 -33.257500
H -19.577100 -27.145500 -31.753200
N -19.491200 -24.820100 -32.778900
O -18.942100 -24.973300 -29.454200
O -18.465200 -25.476900 -32.865200
12
Fragment
H -25.342300 -35.377400 -24.997500
H -24.802400 -35.130700 -26.483700
C -24.618500 -34.988600 -25.531700
O -24.528800 -33.574600 -25.264300
H -23.770600 -35.420500 -25.295400
O -23.613000 -31.651400 -25.565000
C -23.568800 -32.933300 -25.918300
H -22.944400 -30.792100 -27.242800
H -22.790400 -29.868200 -25.945100
O -22.789800 -33.424100 -26.692300
C -22.712300 -30.782100 -26.290800
H -21.791200 -31.096900 -26.175800
48
Fragment
O -25.037900 -28.110000 -30.646300
O -24.633900 -27.991500 -32.781500
N -24.483300 -27.647600 -31.623200
H -23.888400 -26.546500 -29.374200
N -23.615800 -26.537800 -31.394500
O -23.303100 -28.168600 -28.008300
C -23.133000 -26.433700 -30.019600
O -23.096300 -22.409400 -30.078400
H -23.035100 -26.399900 -33.343000
H -22.890600 -24.518300 -29.092000
C -22.613800 -26.353500 -32.437400
N -22.611300 -22.915500 -31.069300
N -22.496300 -24.312700 -31.075500
C -22.449600 -25.036300 -29.825200
O -22.272700 -22.341300 -32.090700
N -22.178000 -28.045500 -28.454000
N -22.078700 -27.440800 -29.763700
O -22.046600 -28.274200 -34.299200
H -21.979300 -24.376600 -33.037400
C -21.905200 -24.951100 -32.222100
N -21.538100 -27.356900 -32.312400
O -21.142300 -28.444200 -27.959000
N -21.135900 -27.984000 -33.538400
N -21.093200 -25.465600 -29.433400
C -20.799900 -26.795800 -29.998000
N -20.505400 -25.326700 -31.954100
C -20.463800 -26.729900 -31.550400
O -20.409500 -23.365100 -29.221800
N -20.086100 -24.531400 -29.376100
H -20.068800 -27.250200 -29.489600
O -19.959800 -28.234000 -33.673900
O -19.682700 -23.717400 -33.257500
H -19.577100 -27.145500 -31.753200
N -19.491200 -24.820100 -32.778900
O -18.942100 -24.973300 -29.454200
O -18.465200 -25.476900 -32.865200
H -25.342300 -35.377400 -24.997500
H -24.802400 -35.130700 -26.483700
C -24.618500 -34.988600 -25.531700
O -24.528800 -33.574600 -25.264300
H -23.770600 -35.420500 -25.295400
O -23.613000 -31.651400 -25.565000
C -23.568800 -32.933300 -25.918300
H -22.944400 -30.792100 -27.242800
H -22.790400 -29.868200 -25.945100
O -22.789800 -33.424100 -26.692300
C -22.712300 -30.782100 -26.290800
H -21.791200 -31.096900 -26.175800
