36
Fragment
O -19.436800 -25.432100 -32.909800
O -18.971300 -24.937000 -29.510700
N -18.418400 -24.779700 -32.833000
H -18.343900 -27.107500 -31.813600
O -18.214100 -23.684700 -33.312700
O -17.949000 -28.193500 -33.719500
H -17.863100 -27.202600 -29.542800
N -17.826300 -24.499000 -29.426200
O -17.503400 -23.340400 -29.263800
C -17.457400 -26.693200 -31.606100
N -17.409000 -25.290400 -32.002400
C -17.128100 -26.752500 -30.049700
N -16.828600 -25.429300 -29.486200
O -16.791900 -28.409600 -28.017800
N -16.775600 -27.943300 -33.581400
N -16.377000 -27.320300 -32.356800
C -16.008400 -24.923400 -32.266100
H -15.931000 -24.348200 -33.080900
O -15.870000 -28.235600 -34.339300
N -15.847400 -27.407500 -29.811700
N -15.756400 -28.012300 -28.507400
O -15.632400 -22.321300 -32.131600
C -15.469700 -25.007000 -29.871300
N -15.421700 -24.283600 -31.118800
N -15.303200 -22.889700 -31.112600
C -15.300700 -26.315100 -32.480000
H -15.030100 -24.490900 -29.136900
H -14.875800 -26.361500 -33.383800
O -14.822000 -22.389500 -30.120200
C -14.791800 -26.404500 -30.065800
O -14.640900 -28.138200 -28.059000
N -14.307000 -26.504600 -31.432400
H -14.038200 -26.518900 -29.419200
N -13.435500 -27.611300 -31.664600
O -13.285800 -27.955400 -32.812200
O -12.888200 -28.072200 -30.687300
12
Fragment
H -16.802800 -25.897500 -24.844700
H -16.352300 -27.194400 -25.668900
C -16.051200 -26.341800 -25.289300
O -15.547600 -25.494600 -26.347700
H -15.338900 -26.507400 -24.636500
C -15.121200 -24.301300 -25.963100
O -15.112600 -23.879600 -24.833100
H -14.767000 -21.787300 -26.330300
O -14.704500 -23.648100 -27.038200
C -14.117900 -22.359200 -26.792500
H -13.868600 -21.946300 -27.645000
H -13.319500 -22.464400 -26.233500
48
Fragment
O -19.436800 -25.432100 -32.909800
O -18.971300 -24.937000 -29.510700
N -18.418400 -24.779700 -32.833000
H -18.343900 -27.107500 -31.813600
O -18.214100 -23.684700 -33.312700
O -17.949000 -28.193500 -33.719500
H -17.863100 -27.202600 -29.542800
N -17.826300 -24.499000 -29.426200
O -17.503400 -23.340400 -29.263800
C -17.457400 -26.693200 -31.606100
N -17.409000 -25.290400 -32.002400
C -17.128100 -26.752500 -30.049700
N -16.828600 -25.429300 -29.486200
O -16.791900 -28.409600 -28.017800
N -16.775600 -27.943300 -33.581400
N -16.377000 -27.320300 -32.356800
C -16.008400 -24.923400 -32.266100
H -15.931000 -24.348200 -33.080900
O -15.870000 -28.235600 -34.339300
N -15.847400 -27.407500 -29.811700
N -15.756400 -28.012300 -28.507400
O -15.632400 -22.321300 -32.131600
C -15.469700 -25.007000 -29.871300
N -15.421700 -24.283600 -31.118800
N -15.303200 -22.889700 -31.112600
C -15.300700 -26.315100 -32.480000
H -15.030100 -24.490900 -29.136900
H -14.875800 -26.361500 -33.383800
O -14.822000 -22.389500 -30.120200
C -14.791800 -26.404500 -30.065800
O -14.640900 -28.138200 -28.059000
N -14.307000 -26.504600 -31.432400
H -14.038200 -26.518900 -29.419200
N -13.435500 -27.611300 -31.664600
O -13.285800 -27.955400 -32.812200
O -12.888200 -28.072200 -30.687300
H -16.802800 -25.897500 -24.844700
H -16.352300 -27.194400 -25.668900
C -16.051200 -26.341800 -25.289300
O -15.547600 -25.494600 -26.347700
H -15.338900 -26.507400 -24.636500
C -15.121200 -24.301300 -25.963100
O -15.112600 -23.879600 -24.833100
H -14.767000 -21.787300 -26.330300
O -14.704500 -23.648100 -27.038200
C -14.117900 -22.359200 -26.792500
H -13.868600 -21.946300 -27.645000
H -13.319500 -22.464400 -26.233500
