34
Fragment
H -6.024600 -11.552900 -31.136900
C -5.096500 -11.568600 -31.086800
H -4.977600 -12.660700 -29.395000
H -4.877600 -4.960100 -32.043600
H -4.758400 -10.499600 -32.759300
C -4.468700 -12.228100 -30.043000
C -4.449300 -5.745800 -32.296300
H -4.413100 -6.552900 -30.467500
C -4.339100 -10.935600 -32.052800
H -4.265000 -5.283600 -34.252400
C -4.175000 -6.710600 -31.353000
C -4.092600 -5.939100 -33.613800
C -3.559900 -7.900500 -31.674900
C -3.470900 -7.130900 -33.976300
H -3.373800 -8.541000 -31.027000
H -3.285100 -6.223500 -36.688800
C -3.228300 -8.102500 -33.009700
C -3.097800 -12.246000 -29.959400
C -2.956500 -10.947500 -31.973000
C -2.900800 -7.591700 -35.224000
C -2.871100 -7.037000 -36.510300
H -2.679900 -12.680300 -29.250300
N -2.529300 -9.171200 -33.619000
C -2.345400 -11.622600 -30.922600
C -2.288100 -8.806200 -34.974000
C -2.212100 -7.727100 -37.500900
H -2.178400 -7.375200 -38.361300
C -2.106800 -10.372100 -33.035300
C -1.618500 -9.513700 -35.978500
C -1.605800 -8.927100 -37.237000
H -1.417600 -11.651400 -30.872600
H -1.205400 -10.329800 -35.813000
H -1.168200 -9.367200 -37.929100
O -1.109800 -10.923800 -33.442000
16
Fragment
N -7.211400 -0.136800 -35.000100
H -7.099800 0.782800 -38.351600
C -6.840100 -0.414500 -36.044500
C -6.607200 -0.000800 -38.442700
N -6.571100 0.996500 -41.798800
C -6.383800 0.400700 -40.851700
C -6.349800 -0.800500 -37.344400
C -6.116300 -0.386400 -39.686900
C -5.601000 -1.962900 -37.475400
C -5.367500 -1.548700 -39.817900
C -5.333600 -2.750000 -36.310700
N -5.146200 -3.345800 -35.363500
C -5.110200 -2.348400 -38.719700
C -4.877200 -1.934800 -41.117900
H -4.617500 -3.132000 -38.810700
N -4.505900 -2.212500 -42.162300
50
Fragment
H -6.024600 -11.552900 -31.136900
C -5.096500 -11.568600 -31.086800
H -4.977600 -12.660700 -29.395000
H -4.877600 -4.960100 -32.043600
H -4.758400 -10.499600 -32.759300
C -4.468700 -12.228100 -30.043000
C -4.449300 -5.745800 -32.296300
H -4.413100 -6.552900 -30.467500
C -4.339100 -10.935600 -32.052800
H -4.265000 -5.283600 -34.252400
C -4.175000 -6.710600 -31.353000
C -4.092600 -5.939100 -33.613800
C -3.559900 -7.900500 -31.674900
C -3.470900 -7.130900 -33.976300
H -3.373800 -8.541000 -31.027000
H -3.285100 -6.223500 -36.688800
C -3.228300 -8.102500 -33.009700
C -3.097800 -12.246000 -29.959400
C -2.956500 -10.947500 -31.973000
C -2.900800 -7.591700 -35.224000
C -2.871100 -7.037000 -36.510300
H -2.679900 -12.680300 -29.250300
N -2.529300 -9.171200 -33.619000
C -2.345400 -11.622600 -30.922600
C -2.288100 -8.806200 -34.974000
C -2.212100 -7.727100 -37.500900
H -2.178400 -7.375200 -38.361300
C -2.106800 -10.372100 -33.035300
C -1.618500 -9.513700 -35.978500
C -1.605800 -8.927100 -37.237000
H -1.417600 -11.651400 -30.872600
H -1.205400 -10.329800 -35.813000
H -1.168200 -9.367200 -37.929100
O -1.109800 -10.923800 -33.442000
N -7.211400 -0.136800 -35.000100
H -7.099800 0.782800 -38.351600
C -6.840100 -0.414500 -36.044500
C -6.607200 -0.000800 -38.442700
N -6.571100 0.996500 -41.798800
C -6.383800 0.400700 -40.851700
C -6.349800 -0.800500 -37.344400
C -6.116300 -0.386400 -39.686900
C -5.601000 -1.962900 -37.475400
C -5.367500 -1.548700 -39.817900
C -5.333600 -2.750000 -36.310700
N -5.146200 -3.345800 -35.363500
C -5.110200 -2.348400 -38.719700
C -4.877200 -1.934800 -41.117900
H -4.617500 -3.132000 -38.810700
N -4.505900 -2.212500 -42.162300
