34
Fragment
H -6.024600 -11.552900 -31.136900
C -5.096500 -11.568600 -31.086800
H -4.977600 -12.660700 -29.395000
H -4.877600 -4.960100 -32.043600
H -4.758400 -10.499600 -32.759300
C -4.468700 -12.228100 -30.043000
C -4.449300 -5.745800 -32.296300
H -4.413100 -6.552900 -30.467500
C -4.339100 -10.935600 -32.052800
H -4.265000 -5.283600 -34.252400
C -4.175000 -6.710600 -31.353000
C -4.092600 -5.939100 -33.613800
C -3.559900 -7.900500 -31.674900
C -3.470900 -7.130900 -33.976300
H -3.373800 -8.541000 -31.027000
H -3.285100 -6.223500 -36.688800
C -3.228300 -8.102500 -33.009700
C -3.097800 -12.246000 -29.959400
C -2.956500 -10.947500 -31.973000
C -2.900800 -7.591700 -35.224000
C -2.871100 -7.037000 -36.510300
H -2.679900 -12.680300 -29.250300
N -2.529300 -9.171200 -33.619000
C -2.345400 -11.622600 -30.922600
C -2.288100 -8.806200 -34.974000
C -2.212100 -7.727100 -37.500900
H -2.178400 -7.375200 -38.361300
C -2.106800 -10.372100 -33.035300
C -1.618500 -9.513700 -35.978500
C -1.605800 -8.927100 -37.237000
H -1.417600 -11.651400 -30.872600
H -1.205400 -10.329800 -35.813000
H -1.168200 -9.367200 -37.929100
O -1.109800 -10.923800 -33.442000
34
Fragment
O -10.155100 -11.822600 -24.429800
H -10.096700 -13.379300 -19.942600
H -10.059600 -12.416600 -22.058800
H -9.847400 -11.095100 -26.999100
C -9.659100 -13.819400 -20.634700
C -9.646400 -13.232700 -21.893300
C -9.158100 -12.374400 -24.836400
H -9.086500 -15.371300 -19.510500
C -9.052800 -15.019300 -20.370900
C -8.976900 -13.940200 -22.897700
C -8.919500 -11.123900 -26.949100
N -8.735600 -13.575200 -24.252700
H -8.585000 -10.066100 -28.621400
C -8.393800 -15.709400 -21.361400
C -8.364100 -15.154800 -22.647700
C -8.308400 -11.798900 -25.898800
C -8.167100 -10.500500 -27.912300
C -8.036600 -14.644000 -24.862100
H -7.979800 -16.523000 -21.183000
H -7.891100 -14.205400 -26.844800
C -7.794000 -15.615500 -23.895400
C -7.705000 -14.846000 -26.196800
C -7.172300 -16.807300 -24.257900
C -7.089900 -16.035800 -26.518800
H -6.999900 -17.462900 -23.619400
C -6.925800 -11.810800 -25.818900
H -6.851800 -16.193600 -27.404200
C -6.815600 -17.000600 -25.575500
C -6.796200 -10.518300 -27.828800
H -6.506500 -12.246800 -25.112500
H -6.387300 -17.786400 -25.828200
H -6.287300 -10.085700 -28.476800
C -6.168400 -11.177900 -26.785000
H -5.240300 -11.193600 -26.734800
68
Fragment
H -6.024600 -11.552900 -31.136900
C -5.096500 -11.568600 -31.086800
H -4.977600 -12.660700 -29.395000
H -4.877600 -4.960100 -32.043600
H -4.758400 -10.499600 -32.759300
C -4.468700 -12.228100 -30.043000
C -4.449300 -5.745800 -32.296300
H -4.413100 -6.552900 -30.467500
C -4.339100 -10.935600 -32.052800
H -4.265000 -5.283600 -34.252400
C -4.175000 -6.710600 -31.353000
C -4.092600 -5.939100 -33.613800
C -3.559900 -7.900500 -31.674900
C -3.470900 -7.130900 -33.976300
H -3.373800 -8.541000 -31.027000
H -3.285100 -6.223500 -36.688800
C -3.228300 -8.102500 -33.009700
C -3.097800 -12.246000 -29.959400
C -2.956500 -10.947500 -31.973000
C -2.900800 -7.591700 -35.224000
C -2.871100 -7.037000 -36.510300
H -2.679900 -12.680300 -29.250300
N -2.529300 -9.171200 -33.619000
C -2.345400 -11.622600 -30.922600
C -2.288100 -8.806200 -34.974000
C -2.212100 -7.727100 -37.500900
H -2.178400 -7.375200 -38.361300
C -2.106800 -10.372100 -33.035300
C -1.618500 -9.513700 -35.978500
C -1.605800 -8.927100 -37.237000
H -1.417600 -11.651400 -30.872600
H -1.205400 -10.329800 -35.813000
H -1.168200 -9.367200 -37.929100
O -1.109800 -10.923800 -33.442000
O -10.155100 -11.822600 -24.429800
H -10.096700 -13.379300 -19.942600
H -10.059600 -12.416600 -22.058800
H -9.847400 -11.095100 -26.999100
C -9.659100 -13.819400 -20.634700
C -9.646400 -13.232700 -21.893300
C -9.158100 -12.374400 -24.836400
H -9.086500 -15.371300 -19.510500
C -9.052800 -15.019300 -20.370900
C -8.976900 -13.940200 -22.897700
C -8.919500 -11.123900 -26.949100
N -8.735600 -13.575200 -24.252700
H -8.585000 -10.066100 -28.621400
C -8.393800 -15.709400 -21.361400
C -8.364100 -15.154800 -22.647700
C -8.308400 -11.798900 -25.898800
C -8.167100 -10.500500 -27.912300
C -8.036600 -14.644000 -24.862100
H -7.979800 -16.523000 -21.183000
H -7.891100 -14.205400 -26.844800
C -7.794000 -15.615500 -23.895400
C -7.705000 -14.846000 -26.196800
C -7.172300 -16.807300 -24.257900
C -7.089900 -16.035800 -26.518800
H -6.999900 -17.462900 -23.619400
C -6.925800 -11.810800 -25.818900
H -6.851800 -16.193600 -27.404200
C -6.815600 -17.000600 -25.575500
C -6.796200 -10.518300 -27.828800
H -6.506500 -12.246800 -25.112500
H -6.387300 -17.786400 -25.828200
H -6.287300 -10.085700 -28.476800
C -6.168400 -11.177900 -26.785000
H -5.240300 -11.193600 -26.734800
