34
Fragment
H -6.024600 -11.552900 -31.136900
C -5.096500 -11.568600 -31.086800
H -4.977600 -12.660700 -29.395000
H -4.877600 -4.960100 -32.043600
H -4.758400 -10.499600 -32.759300
C -4.468700 -12.228100 -30.043000
C -4.449300 -5.745800 -32.296300
H -4.413100 -6.552900 -30.467500
C -4.339100 -10.935600 -32.052800
H -4.265000 -5.283600 -34.252400
C -4.175000 -6.710600 -31.353000
C -4.092600 -5.939100 -33.613800
C -3.559900 -7.900500 -31.674900
C -3.470900 -7.130900 -33.976300
H -3.373800 -8.541000 -31.027000
H -3.285100 -6.223500 -36.688800
C -3.228300 -8.102500 -33.009700
C -3.097800 -12.246000 -29.959400
C -2.956500 -10.947500 -31.973000
C -2.900800 -7.591700 -35.224000
C -2.871100 -7.037000 -36.510300
H -2.679900 -12.680300 -29.250300
N -2.529300 -9.171200 -33.619000
C -2.345400 -11.622600 -30.922600
C -2.288100 -8.806200 -34.974000
C -2.212100 -7.727100 -37.500900
H -2.178400 -7.375200 -38.361300
C -2.106800 -10.372100 -33.035300
C -1.618500 -9.513700 -35.978500
C -1.605800 -8.927100 -37.237000
H -1.417600 -11.651400 -30.872600
H -1.205400 -10.329800 -35.813000
H -1.168200 -9.367200 -37.929100
O -1.109800 -10.923800 -33.442000
16
Fragment
N -4.697900 -16.307200 -20.887600
H -4.369000 -15.034400 -24.082400
C -4.248000 -16.489900 -21.910200
C -3.925600 -15.832900 -24.255200
N -3.792600 -14.350200 -27.357900
C -3.720500 -16.750100 -23.240300
C -3.659600 -15.145200 -26.559300
C -3.466800 -16.111400 -25.528000
C -3.030800 -17.941500 -23.493200
C -2.829700 -17.325200 -25.802100
C -2.744600 -18.845000 -22.412800
C -2.592800 -18.223800 -24.786300
N -2.511000 -19.544300 -21.549300
C -2.433300 -17.642100 -27.155400
N -2.155400 -17.918300 -28.226600
H -2.142000 -19.018400 -24.962000
50
Fragment
H -6.024600 -11.552900 -31.136900
C -5.096500 -11.568600 -31.086800
H -4.977600 -12.660700 -29.395000
H -4.877600 -4.960100 -32.043600
H -4.758400 -10.499600 -32.759300
C -4.468700 -12.228100 -30.043000
C -4.449300 -5.745800 -32.296300
H -4.413100 -6.552900 -30.467500
C -4.339100 -10.935600 -32.052800
H -4.265000 -5.283600 -34.252400
C -4.175000 -6.710600 -31.353000
C -4.092600 -5.939100 -33.613800
C -3.559900 -7.900500 -31.674900
C -3.470900 -7.130900 -33.976300
H -3.373800 -8.541000 -31.027000
H -3.285100 -6.223500 -36.688800
C -3.228300 -8.102500 -33.009700
C -3.097800 -12.246000 -29.959400
C -2.956500 -10.947500 -31.973000
C -2.900800 -7.591700 -35.224000
C -2.871100 -7.037000 -36.510300
H -2.679900 -12.680300 -29.250300
N -2.529300 -9.171200 -33.619000
C -2.345400 -11.622600 -30.922600
C -2.288100 -8.806200 -34.974000
C -2.212100 -7.727100 -37.500900
H -2.178400 -7.375200 -38.361300
C -2.106800 -10.372100 -33.035300
C -1.618500 -9.513700 -35.978500
C -1.605800 -8.927100 -37.237000
H -1.417600 -11.651400 -30.872600
H -1.205400 -10.329800 -35.813000
H -1.168200 -9.367200 -37.929100
O -1.109800 -10.923800 -33.442000
N -4.697900 -16.307200 -20.887600
H -4.369000 -15.034400 -24.082400
C -4.248000 -16.489900 -21.910200
C -3.925600 -15.832900 -24.255200
N -3.792600 -14.350200 -27.357900
C -3.720500 -16.750100 -23.240300
C -3.659600 -15.145200 -26.559300
C -3.466800 -16.111400 -25.528000
C -3.030800 -17.941500 -23.493200
C -2.829700 -17.325200 -25.802100
C -2.744600 -18.845000 -22.412800
C -2.592800 -18.223800 -24.786300
N -2.511000 -19.544300 -21.549300
C -2.433300 -17.642100 -27.155400
N -2.155400 -17.918300 -28.226600
H -2.142000 -19.018400 -24.962000
