34
Fragment
H -6.024600 -11.552900 -31.136900
C -5.096500 -11.568600 -31.086800
H -4.977600 -12.660700 -29.395000
H -4.877600 -4.960100 -32.043600
H -4.758400 -10.499600 -32.759300
C -4.468700 -12.228100 -30.043000
C -4.449300 -5.745800 -32.296300
H -4.413100 -6.552900 -30.467500
C -4.339100 -10.935600 -32.052800
H -4.265000 -5.283600 -34.252400
C -4.175000 -6.710600 -31.353000
C -4.092600 -5.939100 -33.613800
C -3.559900 -7.900500 -31.674900
C -3.470900 -7.130900 -33.976300
H -3.373800 -8.541000 -31.027000
H -3.285100 -6.223500 -36.688800
C -3.228300 -8.102500 -33.009700
C -3.097800 -12.246000 -29.959400
C -2.956500 -10.947500 -31.973000
C -2.900800 -7.591700 -35.224000
C -2.871100 -7.037000 -36.510300
H -2.679900 -12.680300 -29.250300
N -2.529300 -9.171200 -33.619000
C -2.345400 -11.622600 -30.922600
C -2.288100 -8.806200 -34.974000
C -2.212100 -7.727100 -37.500900
H -2.178400 -7.375200 -38.361300
C -2.106800 -10.372100 -33.035300
C -1.618500 -9.513700 -35.978500
C -1.605800 -8.927100 -37.237000
H -1.417600 -11.651400 -30.872600
H -1.205400 -10.329800 -35.813000
H -1.168200 -9.367200 -37.929100
O -1.109800 -10.923800 -33.442000
34
Fragment
O -2.591100 -11.822600 -24.429800
H -2.532700 -13.379300 -19.942600
H -2.495600 -12.416600 -22.058800
H -2.283400 -11.095100 -26.999100
C -2.095100 -13.819400 -20.634700
C -2.082400 -13.232700 -21.893300
C -1.594100 -12.374400 -24.836400
H -1.522500 -15.371300 -19.510500
C -1.488800 -15.019300 -20.370900
C -1.412900 -13.940200 -22.897700
C -1.355500 -11.123900 -26.949100
N -1.171600 -13.575200 -24.252700
H -1.021000 -10.066100 -28.621400
C -0.829800 -15.709400 -21.361400
C -0.800100 -15.154800 -22.647700
C -0.744400 -11.798900 -25.898800
C -0.603100 -10.500500 -27.912300
C -0.472600 -14.644000 -24.862100
H -0.415800 -16.523000 -21.183000
H -0.327100 -14.205400 -26.844800
C -0.230000 -15.615500 -23.895400
C -0.141000 -14.846000 -26.196800
C 0.391700 -16.807300 -24.257900
C 0.474100 -16.035800 -26.518800
H 0.564100 -17.462900 -23.619400
C 0.638200 -11.810800 -25.818900
H 0.712200 -16.193600 -27.404200
C 0.748400 -17.000600 -25.575500
C 0.767800 -10.518300 -27.828800
H 1.057500 -12.246800 -25.112500
H 1.176700 -17.786400 -25.828200
H 1.276700 -10.085700 -28.476800
C 1.395600 -11.177900 -26.785000
H 2.323700 -11.193600 -26.734800
68
Fragment
H -6.024600 -11.552900 -31.136900
C -5.096500 -11.568600 -31.086800
H -4.977600 -12.660700 -29.395000
H -4.877600 -4.960100 -32.043600
H -4.758400 -10.499600 -32.759300
C -4.468700 -12.228100 -30.043000
C -4.449300 -5.745800 -32.296300
H -4.413100 -6.552900 -30.467500
C -4.339100 -10.935600 -32.052800
H -4.265000 -5.283600 -34.252400
C -4.175000 -6.710600 -31.353000
C -4.092600 -5.939100 -33.613800
C -3.559900 -7.900500 -31.674900
C -3.470900 -7.130900 -33.976300
H -3.373800 -8.541000 -31.027000
H -3.285100 -6.223500 -36.688800
C -3.228300 -8.102500 -33.009700
C -3.097800 -12.246000 -29.959400
C -2.956500 -10.947500 -31.973000
C -2.900800 -7.591700 -35.224000
C -2.871100 -7.037000 -36.510300
H -2.679900 -12.680300 -29.250300
N -2.529300 -9.171200 -33.619000
C -2.345400 -11.622600 -30.922600
C -2.288100 -8.806200 -34.974000
C -2.212100 -7.727100 -37.500900
H -2.178400 -7.375200 -38.361300
C -2.106800 -10.372100 -33.035300
C -1.618500 -9.513700 -35.978500
C -1.605800 -8.927100 -37.237000
H -1.417600 -11.651400 -30.872600
H -1.205400 -10.329800 -35.813000
H -1.168200 -9.367200 -37.929100
O -1.109800 -10.923800 -33.442000
O -2.591100 -11.822600 -24.429800
H -2.532700 -13.379300 -19.942600
H -2.495600 -12.416600 -22.058800
H -2.283400 -11.095100 -26.999100
C -2.095100 -13.819400 -20.634700
C -2.082400 -13.232700 -21.893300
C -1.594100 -12.374400 -24.836400
H -1.522500 -15.371300 -19.510500
C -1.488800 -15.019300 -20.370900
C -1.412900 -13.940200 -22.897700
C -1.355500 -11.123900 -26.949100
N -1.171600 -13.575200 -24.252700
H -1.021000 -10.066100 -28.621400
C -0.829800 -15.709400 -21.361400
C -0.800100 -15.154800 -22.647700
C -0.744400 -11.798900 -25.898800
C -0.603100 -10.500500 -27.912300
C -0.472600 -14.644000 -24.862100
H -0.415800 -16.523000 -21.183000
H -0.327100 -14.205400 -26.844800
C -0.230000 -15.615500 -23.895400
C -0.141000 -14.846000 -26.196800
C 0.391700 -16.807300 -24.257900
C 0.474100 -16.035800 -26.518800
H 0.564100 -17.462900 -23.619400
C 0.638200 -11.810800 -25.818900
H 0.712200 -16.193600 -27.404200
C 0.748400 -17.000600 -25.575500
C 0.767800 -10.518300 -27.828800
H 1.057500 -12.246800 -25.112500
H 1.176700 -17.786400 -25.828200
H 1.276700 -10.085700 -28.476800
C 1.395600 -11.177900 -26.785000
H 2.323700 -11.193600 -26.734800
