34
Fragment
H -6.024600 -11.552900 -31.136900
C -5.096500 -11.568600 -31.086800
H -4.977600 -12.660700 -29.395000
H -4.877600 -4.960100 -32.043600
H -4.758400 -10.499600 -32.759300
C -4.468700 -12.228100 -30.043000
C -4.449300 -5.745800 -32.296300
H -4.413100 -6.552900 -30.467500
C -4.339100 -10.935600 -32.052800
H -4.265000 -5.283600 -34.252400
C -4.175000 -6.710600 -31.353000
C -4.092600 -5.939100 -33.613800
C -3.559900 -7.900500 -31.674900
C -3.470900 -7.130900 -33.976300
H -3.373800 -8.541000 -31.027000
H -3.285100 -6.223500 -36.688800
C -3.228300 -8.102500 -33.009700
C -3.097800 -12.246000 -29.959400
C -2.956500 -10.947500 -31.973000
C -2.900800 -7.591700 -35.224000
C -2.871100 -7.037000 -36.510300
H -2.679900 -12.680300 -29.250300
N -2.529300 -9.171200 -33.619000
C -2.345400 -11.622600 -30.922600
C -2.288100 -8.806200 -34.974000
C -2.212100 -7.727100 -37.500900
H -2.178400 -7.375200 -38.361300
C -2.106800 -10.372100 -33.035300
C -1.618500 -9.513700 -35.978500
C -1.605800 -8.927100 -37.237000
H -1.417600 -11.651400 -30.872600
H -1.205400 -10.329800 -35.813000
H -1.168200 -9.367200 -37.929100
O -1.109800 -10.923800 -33.442000
16
Fragment
H -7.702400 -13.054500 -32.909700
N -7.689100 -14.154600 -29.645200
C -7.411100 -14.430800 -30.716400
N -7.333400 -12.528600 -36.322400
C -7.251600 -13.849100 -33.085500
C -7.099900 -13.227900 -35.459000
C -7.014800 -14.747700 -32.069600
C -6.813700 -14.131400 -34.378500
C -6.377700 -15.961500 -32.343700
C -6.184800 -16.927700 -31.312500
C -6.123900 -15.322800 -34.631400
N -6.051800 -17.722700 -30.513800
C -5.918800 -16.239900 -33.616500
C -5.596400 -15.583000 -35.961500
H -5.475400 -17.038500 -33.789400
N -5.146500 -15.765700 -36.984100
50
Fragment
H -6.024600 -11.552900 -31.136900
C -5.096500 -11.568600 -31.086800
H -4.977600 -12.660700 -29.395000
H -4.877600 -4.960100 -32.043600
H -4.758400 -10.499600 -32.759300
C -4.468700 -12.228100 -30.043000
C -4.449300 -5.745800 -32.296300
H -4.413100 -6.552900 -30.467500
C -4.339100 -10.935600 -32.052800
H -4.265000 -5.283600 -34.252400
C -4.175000 -6.710600 -31.353000
C -4.092600 -5.939100 -33.613800
C -3.559900 -7.900500 -31.674900
C -3.470900 -7.130900 -33.976300
H -3.373800 -8.541000 -31.027000
H -3.285100 -6.223500 -36.688800
C -3.228300 -8.102500 -33.009700
C -3.097800 -12.246000 -29.959400
C -2.956500 -10.947500 -31.973000
C -2.900800 -7.591700 -35.224000
C -2.871100 -7.037000 -36.510300
H -2.679900 -12.680300 -29.250300
N -2.529300 -9.171200 -33.619000
C -2.345400 -11.622600 -30.922600
C -2.288100 -8.806200 -34.974000
C -2.212100 -7.727100 -37.500900
H -2.178400 -7.375200 -38.361300
C -2.106800 -10.372100 -33.035300
C -1.618500 -9.513700 -35.978500
C -1.605800 -8.927100 -37.237000
H -1.417600 -11.651400 -30.872600
H -1.205400 -10.329800 -35.813000
H -1.168200 -9.367200 -37.929100
O -1.109800 -10.923800 -33.442000
H -7.702400 -13.054500 -32.909700
N -7.689100 -14.154600 -29.645200
C -7.411100 -14.430800 -30.716400
N -7.333400 -12.528600 -36.322400
C -7.251600 -13.849100 -33.085500
C -7.099900 -13.227900 -35.459000
C -7.014800 -14.747700 -32.069600
C -6.813700 -14.131400 -34.378500
C -6.377700 -15.961500 -32.343700
C -6.184800 -16.927700 -31.312500
C -6.123900 -15.322800 -34.631400
N -6.051800 -17.722700 -30.513800
C -5.918800 -16.239900 -33.616500
C -5.596400 -15.583000 -35.961500
H -5.475400 -17.038500 -33.789400
N -5.146500 -15.765700 -36.984100
