34
Fragment
H -6.024600 -11.552900 -31.136900
C -5.096500 -11.568600 -31.086800
H -4.977600 -12.660700 -29.395000
H -4.877600 -4.960100 -32.043600
H -4.758400 -10.499600 -32.759300
C -4.468700 -12.228100 -30.043000
C -4.449300 -5.745800 -32.296300
H -4.413100 -6.552900 -30.467500
C -4.339100 -10.935600 -32.052800
H -4.265000 -5.283600 -34.252400
C -4.175000 -6.710600 -31.353000
C -4.092600 -5.939100 -33.613800
C -3.559900 -7.900500 -31.674900
C -3.470900 -7.130900 -33.976300
H -3.373800 -8.541000 -31.027000
H -3.285100 -6.223500 -36.688800
C -3.228300 -8.102500 -33.009700
C -3.097800 -12.246000 -29.959400
C -2.956500 -10.947500 -31.973000
C -2.900800 -7.591700 -35.224000
C -2.871100 -7.037000 -36.510300
H -2.679900 -12.680300 -29.250300
N -2.529300 -9.171200 -33.619000
C -2.345400 -11.622600 -30.922600
C -2.288100 -8.806200 -34.974000
C -2.212100 -7.727100 -37.500900
H -2.178400 -7.375200 -38.361300
C -2.106800 -10.372100 -33.035300
C -1.618500 -9.513700 -35.978500
C -1.605800 -8.927100 -37.237000
H -1.417600 -11.651400 -30.872600
H -1.205400 -10.329800 -35.813000
H -1.168200 -9.367200 -37.929100
O -1.109800 -10.923800 -33.442000
34
Fragment
O -0.202600 -10.078300 -43.720400
H -0.144200 -11.635000 -39.233200
H -0.107000 -10.672300 -41.349400
H 0.105200 -9.350800 -46.289700
C 0.293400 -12.075100 -39.925300
C 0.306100 -11.488400 -41.183800
C 0.794400 -10.630100 -44.127000
H 0.866000 -13.627000 -38.801100
C 0.899800 -13.275000 -39.661400
C 0.975700 -12.196000 -42.188300
C 1.033100 -9.379600 -46.239700
N 1.217000 -11.830900 -43.543300
H 1.367600 -8.321800 -47.912000
C 1.558700 -13.965100 -40.652000
C 1.588400 -13.410500 -41.938300
C 1.644100 -10.054600 -45.189300
C 1.785500 -8.756200 -47.202900
C 1.915900 -12.899700 -44.152700
H 1.972700 -14.778700 -40.473600
H 2.061400 -12.461100 -46.135400
C 2.158600 -13.871200 -43.186000
C 2.247600 -13.101700 -45.487400
C 2.780300 -15.063000 -43.548500
C 2.862600 -14.291500 -45.809300
H 2.952600 -15.718600 -42.910000
C 3.026700 -10.066500 -45.109500
H 3.100800 -14.449300 -46.694800
C 3.137000 -15.256300 -44.866000
C 3.156300 -8.774000 -47.119400
H 3.446000 -10.502500 -44.403100
H 3.565200 -16.042100 -45.118700
H 3.665200 -8.341400 -47.767300
C 3.784100 -9.433600 -46.075600
H 4.712200 -9.449300 -46.025400
68
Fragment
H -6.024600 -11.552900 -31.136900
C -5.096500 -11.568600 -31.086800
H -4.977600 -12.660700 -29.395000
H -4.877600 -4.960100 -32.043600
H -4.758400 -10.499600 -32.759300
C -4.468700 -12.228100 -30.043000
C -4.449300 -5.745800 -32.296300
H -4.413100 -6.552900 -30.467500
C -4.339100 -10.935600 -32.052800
H -4.265000 -5.283600 -34.252400
C -4.175000 -6.710600 -31.353000
C -4.092600 -5.939100 -33.613800
C -3.559900 -7.900500 -31.674900
C -3.470900 -7.130900 -33.976300
H -3.373800 -8.541000 -31.027000
H -3.285100 -6.223500 -36.688800
C -3.228300 -8.102500 -33.009700
C -3.097800 -12.246000 -29.959400
C -2.956500 -10.947500 -31.973000
C -2.900800 -7.591700 -35.224000
C -2.871100 -7.037000 -36.510300
H -2.679900 -12.680300 -29.250300
N -2.529300 -9.171200 -33.619000
C -2.345400 -11.622600 -30.922600
C -2.288100 -8.806200 -34.974000
C -2.212100 -7.727100 -37.500900
H -2.178400 -7.375200 -38.361300
C -2.106800 -10.372100 -33.035300
C -1.618500 -9.513700 -35.978500
C -1.605800 -8.927100 -37.237000
H -1.417600 -11.651400 -30.872600
H -1.205400 -10.329800 -35.813000
H -1.168200 -9.367200 -37.929100
O -1.109800 -10.923800 -33.442000
O -0.202600 -10.078300 -43.720400
H -0.144200 -11.635000 -39.233200
H -0.107000 -10.672300 -41.349400
H 0.105200 -9.350800 -46.289700
C 0.293400 -12.075100 -39.925300
C 0.306100 -11.488400 -41.183800
C 0.794400 -10.630100 -44.127000
H 0.866000 -13.627000 -38.801100
C 0.899800 -13.275000 -39.661400
C 0.975700 -12.196000 -42.188300
C 1.033100 -9.379600 -46.239700
N 1.217000 -11.830900 -43.543300
H 1.367600 -8.321800 -47.912000
C 1.558700 -13.965100 -40.652000
C 1.588400 -13.410500 -41.938300
C 1.644100 -10.054600 -45.189300
C 1.785500 -8.756200 -47.202900
C 1.915900 -12.899700 -44.152700
H 1.972700 -14.778700 -40.473600
H 2.061400 -12.461100 -46.135400
C 2.158600 -13.871200 -43.186000
C 2.247600 -13.101700 -45.487400
C 2.780300 -15.063000 -43.548500
C 2.862600 -14.291500 -45.809300
H 2.952600 -15.718600 -42.910000
C 3.026700 -10.066500 -45.109500
H 3.100800 -14.449300 -46.694800
C 3.137000 -15.256300 -44.866000
C 3.156300 -8.774000 -47.119400
H 3.446000 -10.502500 -44.403100
H 3.565200 -16.042100 -45.118700
H 3.665200 -8.341400 -47.767300
C 3.784100 -9.433600 -46.075600
H 4.712200 -9.449300 -46.025400
