30
Fragment
O -15.389300 -8.779200 -8.873200
C -14.366400 -8.961600 -9.576700
H -14.340200 -10.856400 -5.474800
O -14.195900 -8.452800 -10.721700
H -14.135100 -9.051000 -11.279500
H -14.045500 -9.591100 -4.746500
N -14.028800 -10.054300 -5.470000
H -13.759200 -11.641500 -9.878700
H -13.624700 -11.166600 -7.565600
C -13.513900 -9.525800 -6.597500
N -13.483100 -10.325200 -7.678000
C -13.224000 -9.844100 -9.030100
O -13.058200 -8.362500 -6.604700
C -12.996300 -11.046800 -9.949600
H -12.953800 -10.733000 -10.866800
H -12.402300 -9.309400 -9.014200
H -12.335100 -13.667700 -10.363200
H -12.326300 -12.820000 -12.399000
H -11.752300 -12.115400 -8.718600
C -11.736200 -11.833700 -9.646900
C -11.597700 -13.063200 -10.543200
N -11.586300 -12.744000 -11.967900
H -11.368200 -12.291500 -14.356700
H -10.964300 -11.259600 -9.770400
H -10.775100 -13.524600 -10.318600
N -10.619100 -12.156500 -13.956700
C -10.522100 -12.347000 -12.646000
H -9.932000 -11.898100 -14.406100
N -9.345100 -12.131500 -12.034100
H -8.661400 -12.161000 -12.477900
30
Fragment
H -12.283700 -7.690000 -11.426100
N -11.600000 -7.660500 -11.869900
H -11.013100 -7.427100 -9.497800
C -10.423000 -7.876000 -11.258000
N -10.326000 -7.685600 -9.947200
H -10.170000 -9.053700 -13.585400
H -9.980800 -6.788700 -14.133600
H -9.576900 -7.820600 -9.547300
N -9.358800 -8.273000 -11.936100
C -9.347400 -8.592300 -13.360700
C -9.208900 -7.362800 -14.257100
H -9.192800 -7.644400 -15.185400
H -8.618800 -8.349100 -11.505000
H -8.610000 -9.196700 -13.540800
H -8.542800 -4.838500 -14.889800
H -7.991300 -6.262000 -13.037200
C -7.948800 -6.575900 -13.954300
O -7.886900 -3.891500 -17.299300
C -7.721100 -5.373200 -14.873900
N -7.462000 -5.854300 -16.226000
C -7.431200 -5.054900 -17.306500
H -7.320400 -6.695700 -16.338400
H -7.185900 -7.170500 -14.025300
N -6.916300 -5.583300 -18.434000
H -6.899600 -5.120100 -19.157400
H -6.810000 -4.580000 -12.624500
O -6.749200 -3.981800 -13.182200
H -6.604900 -6.385400 -18.429200
C -6.578700 -4.490600 -14.327300
O -5.555800 -4.308200 -15.030800
60
Fragment
O -15.389300 -8.779200 -8.873200
C -14.366400 -8.961600 -9.576700
H -14.340200 -10.856400 -5.474800
O -14.195900 -8.452800 -10.721700
H -14.135100 -9.051000 -11.279500
H -14.045500 -9.591100 -4.746500
N -14.028800 -10.054300 -5.470000
H -13.759200 -11.641500 -9.878700
H -13.624700 -11.166600 -7.565600
C -13.513900 -9.525800 -6.597500
N -13.483100 -10.325200 -7.678000
C -13.224000 -9.844100 -9.030100
O -13.058200 -8.362500 -6.604700
C -12.996300 -11.046800 -9.949600
H -12.953800 -10.733000 -10.866800
H -12.402300 -9.309400 -9.014200
H -12.335100 -13.667700 -10.363200
H -12.326300 -12.820000 -12.399000
H -11.752300 -12.115400 -8.718600
C -11.736200 -11.833700 -9.646900
C -11.597700 -13.063200 -10.543200
N -11.586300 -12.744000 -11.967900
H -11.368200 -12.291500 -14.356700
H -10.964300 -11.259600 -9.770400
H -10.775100 -13.524600 -10.318600
N -10.619100 -12.156500 -13.956700
C -10.522100 -12.347000 -12.646000
H -9.932000 -11.898100 -14.406100
N -9.345100 -12.131500 -12.034100
H -8.661400 -12.161000 -12.477900
H -12.283700 -7.690000 -11.426100
N -11.600000 -7.660500 -11.869900
H -11.013100 -7.427100 -9.497800
C -10.423000 -7.876000 -11.258000
N -10.326000 -7.685600 -9.947200
H -10.170000 -9.053700 -13.585400
H -9.980800 -6.788700 -14.133600
H -9.576900 -7.820600 -9.547300
N -9.358800 -8.273000 -11.936100
C -9.347400 -8.592300 -13.360700
C -9.208900 -7.362800 -14.257100
H -9.192800 -7.644400 -15.185400
H -8.618800 -8.349100 -11.505000
H -8.610000 -9.196700 -13.540800
H -8.542800 -4.838500 -14.889800
H -7.991300 -6.262000 -13.037200
C -7.948800 -6.575900 -13.954300
O -7.886900 -3.891500 -17.299300
C -7.721100 -5.373200 -14.873900
N -7.462000 -5.854300 -16.226000
C -7.431200 -5.054900 -17.306500
H -7.320400 -6.695700 -16.338400
H -7.185900 -7.170500 -14.025300
N -6.916300 -5.583300 -18.434000
H -6.899600 -5.120100 -19.157400
H -6.810000 -4.580000 -12.624500
O -6.749200 -3.981800 -13.182200
H -6.604900 -6.385400 -18.429200
C -6.578700 -4.490600 -14.327300
O -5.555800 -4.308200 -15.030800
