3
Fragment
O -6.506800 -32.232300 -12.023900
H -6.078300 -32.260400 -12.774100
H -6.021400 -31.712400 -11.491900
29
Fragment
O -5.437700 -29.255400 -16.443500
F -5.010800 -35.933500 -10.453100
H -4.609300 -30.899500 -14.626500
C -4.415300 -29.308400 -15.793700
H -4.307200 -33.756700 -11.505300
N -4.084600 -30.264100 -14.870900
O -3.904800 -32.342300 -13.297500
C -3.730600 -35.491000 -10.638700
C -3.572400 -34.266600 -11.251200
H -3.528900 -27.475800 -15.464200
C -3.248500 -28.349400 -15.824400
H -2.913100 -28.204500 -16.714800
H -2.857300 -37.108600 -9.796900
C -2.800700 -30.081800 -14.377000
C -2.783100 -31.933600 -12.988200
C -2.700700 -36.288000 -10.205100
N -2.274800 -29.007700 -14.976600
C -2.270000 -33.821200 -11.475900
N -2.154000 -30.801200 -13.488000
N -1.977000 -32.598000 -12.108900
C -1.412800 -35.806400 -10.405700
H -1.219500 -32.235800 -11.924600
C -1.193800 -34.595400 -11.042000
H -0.979900 -27.679000 -14.260700
C -0.935300 -28.486100 -14.777500
H -0.686200 -36.306000 -10.108300
H -0.534700 -28.298900 -15.629400
H -0.404700 -29.136400 -14.310300
H -0.323600 -34.296600 -11.180500
32
Fragment
O -6.506800 -32.232300 -12.023900
H -6.078300 -32.260400 -12.774100
H -6.021400 -31.712400 -11.491900
O -5.437700 -29.255400 -16.443500
F -5.010800 -35.933500 -10.453100
H -4.609300 -30.899500 -14.626500
C -4.415300 -29.308400 -15.793700
H -4.307200 -33.756700 -11.505300
N -4.084600 -30.264100 -14.870900
O -3.904800 -32.342300 -13.297500
C -3.730600 -35.491000 -10.638700
C -3.572400 -34.266600 -11.251200
H -3.528900 -27.475800 -15.464200
C -3.248500 -28.349400 -15.824400
H -2.913100 -28.204500 -16.714800
H -2.857300 -37.108600 -9.796900
C -2.800700 -30.081800 -14.377000
C -2.783100 -31.933600 -12.988200
C -2.700700 -36.288000 -10.205100
N -2.274800 -29.007700 -14.976600
C -2.270000 -33.821200 -11.475900
N -2.154000 -30.801200 -13.488000
N -1.977000 -32.598000 -12.108900
C -1.412800 -35.806400 -10.405700
H -1.219500 -32.235800 -11.924600
C -1.193800 -34.595400 -11.042000
H -0.979900 -27.679000 -14.260700
C -0.935300 -28.486100 -14.777500
H -0.686200 -36.306000 -10.108300
H -0.534700 -28.298900 -15.629400
H -0.404700 -29.136400 -14.310300
H -0.323600 -34.296600 -11.180500
