3
Fragment
O -6.506800 -32.232300 -12.023900
H -6.078300 -32.260400 -12.774100
H -6.021400 -31.712400 -11.491900
29
Fragment
O -12.782200 -29.255400 -16.443500
F -12.355300 -35.933500 -10.453100
H -11.953800 -30.899500 -14.626500
C -11.759800 -29.308400 -15.793700
H -11.651700 -33.756700 -11.505300
N -11.429100 -30.264100 -14.870900
O -11.249300 -32.342300 -13.297500
C -11.075100 -35.491000 -10.638700
C -10.916900 -34.266600 -11.251200
H -10.873400 -27.475800 -15.464200
C -10.593000 -28.349400 -15.824400
H -10.257600 -28.204500 -16.714800
H -10.201800 -37.108600 -9.796900
C -10.145200 -30.081800 -14.377000
C -10.127600 -31.933600 -12.988200
C -10.045200 -36.288000 -10.205100
N -9.619300 -29.007700 -14.976600
C -9.614500 -33.821200 -11.475900
N -9.498500 -30.801200 -13.488000
N -9.321500 -32.598000 -12.108900
C -8.757300 -35.806400 -10.405700
H -8.564000 -32.235800 -11.924600
C -8.538300 -34.595400 -11.042000
H -8.324400 -27.679000 -14.260700
C -8.279800 -28.486100 -14.777500
H -8.030700 -36.306000 -10.108300
H -7.879200 -28.298900 -15.629400
H -7.749200 -29.136400 -14.310300
H -7.668100 -34.296600 -11.180500
32
Fragment
O -6.506800 -32.232300 -12.023900
H -6.078300 -32.260400 -12.774100
H -6.021400 -31.712400 -11.491900
O -12.782200 -29.255400 -16.443500
F -12.355300 -35.933500 -10.453100
H -11.953800 -30.899500 -14.626500
C -11.759800 -29.308400 -15.793700
H -11.651700 -33.756700 -11.505300
N -11.429100 -30.264100 -14.870900
O -11.249300 -32.342300 -13.297500
C -11.075100 -35.491000 -10.638700
C -10.916900 -34.266600 -11.251200
H -10.873400 -27.475800 -15.464200
C -10.593000 -28.349400 -15.824400
H -10.257600 -28.204500 -16.714800
H -10.201800 -37.108600 -9.796900
C -10.145200 -30.081800 -14.377000
C -10.127600 -31.933600 -12.988200
C -10.045200 -36.288000 -10.205100
N -9.619300 -29.007700 -14.976600
C -9.614500 -33.821200 -11.475900
N -9.498500 -30.801200 -13.488000
N -9.321500 -32.598000 -12.108900
C -8.757300 -35.806400 -10.405700
H -8.564000 -32.235800 -11.924600
C -8.538300 -34.595400 -11.042000
H -8.324400 -27.679000 -14.260700
C -8.279800 -28.486100 -14.777500
H -8.030700 -36.306000 -10.108300
H -7.879200 -28.298900 -15.629400
H -7.749200 -29.136400 -14.310300
H -7.668100 -34.296600 -11.180500
