17
Fragment
H -14.249700 -8.332900 -22.162600
N -13.816200 -7.858300 -23.950200
N -13.677300 -7.834100 -22.636200
O -13.640300 -7.348000 -26.601500
H -13.567400 -7.109200 -27.498500
O -13.088100 -7.334900 -19.927500
C -12.878100 -7.012700 -24.422100
C -12.749300 -6.747200 -25.851500
C -12.686800 -6.998700 -22.220900
C -12.454100 -6.769200 -20.803000
C -12.125400 -6.441100 -23.370700
O -11.864300 -6.007900 -26.279800
O -11.516700 -5.873700 -20.574200
H -11.414600 -5.711900 -19.633200
N -11.058900 -5.599700 -23.455500
H -10.966300 -5.144600 -24.201300
H -10.791500 -5.191100 -22.667100
17
Fragment
H -14.478000 -7.511500 -32.770600
H -14.303100 -7.558000 -31.236300
N -14.210500 -7.102900 -31.982100
H -13.854800 -6.990700 -35.804400
O -13.752800 -6.828900 -34.863500
O -13.405100 -6.694700 -29.157800
C -13.144000 -6.261500 -32.066900
C -12.815300 -5.933400 -34.634700
C -12.582600 -5.703900 -33.216700
C -12.520200 -5.955400 -29.586100
C -12.391300 -5.689900 -31.015600
O -12.181400 -5.367700 -35.510200
H -11.702100 -5.593400 -27.939200
O -11.629200 -5.354600 -28.836200
N -11.592100 -4.868500 -32.801500
N -11.453300 -4.844300 -31.487500
H -11.019800 -4.369700 -33.275100
34
Fragment
H -14.249700 -8.332900 -22.162600
N -13.816200 -7.858300 -23.950200
N -13.677300 -7.834100 -22.636200
O -13.640300 -7.348000 -26.601500
H -13.567400 -7.109200 -27.498500
O -13.088100 -7.334900 -19.927500
C -12.878100 -7.012700 -24.422100
C -12.749300 -6.747200 -25.851500
C -12.686800 -6.998700 -22.220900
C -12.454100 -6.769200 -20.803000
C -12.125400 -6.441100 -23.370700
O -11.864300 -6.007900 -26.279800
O -11.516700 -5.873700 -20.574200
H -11.414600 -5.711900 -19.633200
N -11.058900 -5.599700 -23.455500
H -10.966300 -5.144600 -24.201300
H -10.791500 -5.191100 -22.667100
H -14.478000 -7.511500 -32.770600
H -14.303100 -7.558000 -31.236300
N -14.210500 -7.102900 -31.982100
H -13.854800 -6.990700 -35.804400
O -13.752800 -6.828900 -34.863500
O -13.405100 -6.694700 -29.157800
C -13.144000 -6.261500 -32.066900
C -12.815300 -5.933400 -34.634700
C -12.582600 -5.703900 -33.216700
C -12.520200 -5.955400 -29.586100
C -12.391300 -5.689900 -31.015600
O -12.181400 -5.367700 -35.510200
H -11.702100 -5.593400 -27.939200
O -11.629200 -5.354600 -28.836200
N -11.592100 -4.868500 -32.801500
N -11.453300 -4.844300 -31.487500
H -11.019800 -4.369700 -33.275100
