17
Fragment
H -14.249700 -8.332900 -22.162600
N -13.816200 -7.858300 -23.950200
N -13.677300 -7.834100 -22.636200
O -13.640300 -7.348000 -26.601500
H -13.567400 -7.109200 -27.498500
O -13.088100 -7.334900 -19.927500
C -12.878100 -7.012700 -24.422100
C -12.749300 -6.747200 -25.851500
C -12.686800 -6.998700 -22.220900
C -12.454100 -6.769200 -20.803000
C -12.125400 -6.441100 -23.370700
O -11.864300 -6.007900 -26.279800
O -11.516700 -5.873700 -20.574200
H -11.414600 -5.711900 -19.633200
N -11.058900 -5.599700 -23.455500
H -10.966300 -5.144600 -24.201300
H -10.791500 -5.191100 -22.667100
17
Fragment
H -9.709600 -7.308200 -25.840900
H -9.534700 -7.261700 -24.306600
N -9.442100 -7.716800 -25.052400
H -9.086400 -7.829000 -28.874700
O -8.984400 -7.990800 -27.933800
O -8.636700 -8.125000 -22.228100
C -8.375600 -8.558200 -25.137200
C -8.046900 -8.886300 -27.705000
C -7.814200 -9.115800 -26.287000
C -7.751800 -8.864300 -22.656400
C -7.622900 -9.129800 -24.085900
O -7.413000 -9.452000 -28.580500
H -6.933700 -9.226300 -21.009500
O -6.860800 -9.465100 -21.906500
N -6.823700 -9.951200 -25.871800
N -6.684900 -9.975400 -24.557800
H -6.251400 -10.450000 -26.345400
34
Fragment
H -14.249700 -8.332900 -22.162600
N -13.816200 -7.858300 -23.950200
N -13.677300 -7.834100 -22.636200
O -13.640300 -7.348000 -26.601500
H -13.567400 -7.109200 -27.498500
O -13.088100 -7.334900 -19.927500
C -12.878100 -7.012700 -24.422100
C -12.749300 -6.747200 -25.851500
C -12.686800 -6.998700 -22.220900
C -12.454100 -6.769200 -20.803000
C -12.125400 -6.441100 -23.370700
O -11.864300 -6.007900 -26.279800
O -11.516700 -5.873700 -20.574200
H -11.414600 -5.711900 -19.633200
N -11.058900 -5.599700 -23.455500
H -10.966300 -5.144600 -24.201300
H -10.791500 -5.191100 -22.667100
H -9.709600 -7.308200 -25.840900
H -9.534700 -7.261700 -24.306600
N -9.442100 -7.716800 -25.052400
H -9.086400 -7.829000 -28.874700
O -8.984400 -7.990800 -27.933800
O -8.636700 -8.125000 -22.228100
C -8.375600 -8.558200 -25.137200
C -8.046900 -8.886300 -27.705000
C -7.814200 -9.115800 -26.287000
C -7.751800 -8.864300 -22.656400
C -7.622900 -9.129800 -24.085900
O -7.413000 -9.452000 -28.580500
H -6.933700 -9.226300 -21.009500
O -6.860800 -9.465100 -21.906500
N -6.823700 -9.951200 -25.871800
N -6.684900 -9.975400 -24.557800
H -6.251400 -10.450000 -26.345400
