17
Fragment
H -14.249700 -8.332900 -22.162600
N -13.816200 -7.858300 -23.950200
N -13.677300 -7.834100 -22.636200
O -13.640300 -7.348000 -26.601500
H -13.567400 -7.109200 -27.498500
O -13.088100 -7.334900 -19.927500
C -12.878100 -7.012700 -24.422100
C -12.749300 -6.747200 -25.851500
C -12.686800 -6.998700 -22.220900
C -12.454100 -6.769200 -20.803000
C -12.125400 -6.441100 -23.370700
O -11.864300 -6.007900 -26.279800
O -11.516700 -5.873700 -20.574200
H -11.414600 -5.711900 -19.633200
N -11.058900 -5.599700 -23.455500
H -10.966300 -5.144600 -24.201300
H -10.791500 -5.191100 -22.667100
17
Fragment
H -19.018100 -6.486800 -29.092300
N -18.584600 -6.961400 -30.879900
N -18.445700 -6.985600 -29.565900
O -18.408700 -7.471700 -33.531200
H -18.335800 -7.710500 -34.428200
O -17.856500 -7.484800 -26.857200
C -17.646500 -7.807000 -31.351800
C -17.517600 -8.072500 -32.781200
C -17.455200 -7.821000 -29.150600
C -17.222500 -8.050500 -27.732700
C -16.893800 -8.378600 -30.300400
O -16.632700 -8.811800 -33.209500
O -16.285100 -8.946000 -27.503900
H -16.183000 -9.107800 -26.562900
N -15.827300 -9.220000 -30.385200
H -15.734700 -9.675100 -31.131000
H -15.559900 -9.628600 -29.596800
34
Fragment
H -14.249700 -8.332900 -22.162600
N -13.816200 -7.858300 -23.950200
N -13.677300 -7.834100 -22.636200
O -13.640300 -7.348000 -26.601500
H -13.567400 -7.109200 -27.498500
O -13.088100 -7.334900 -19.927500
C -12.878100 -7.012700 -24.422100
C -12.749300 -6.747200 -25.851500
C -12.686800 -6.998700 -22.220900
C -12.454100 -6.769200 -20.803000
C -12.125400 -6.441100 -23.370700
O -11.864300 -6.007900 -26.279800
O -11.516700 -5.873700 -20.574200
H -11.414600 -5.711900 -19.633200
N -11.058900 -5.599700 -23.455500
H -10.966300 -5.144600 -24.201300
H -10.791500 -5.191100 -22.667100
H -19.018100 -6.486800 -29.092300
N -18.584600 -6.961400 -30.879900
N -18.445700 -6.985600 -29.565900
O -18.408700 -7.471700 -33.531200
H -18.335800 -7.710500 -34.428200
O -17.856500 -7.484800 -26.857200
C -17.646500 -7.807000 -31.351800
C -17.517600 -8.072500 -32.781200
C -17.455200 -7.821000 -29.150600
C -17.222500 -8.050500 -27.732700
C -16.893800 -8.378600 -30.300400
O -16.632700 -8.811800 -33.209500
O -16.285100 -8.946000 -27.503900
H -16.183000 -9.107800 -26.562900
N -15.827300 -9.220000 -30.385200
H -15.734700 -9.675100 -31.131000
H -15.559900 -9.628600 -29.596800
