17
Fragment
H -14.249700 -8.332900 -22.162600
N -13.816200 -7.858300 -23.950200
N -13.677300 -7.834100 -22.636200
O -13.640300 -7.348000 -26.601500
H -13.567400 -7.109200 -27.498500
O -13.088100 -7.334900 -19.927500
C -12.878100 -7.012700 -24.422100
C -12.749300 -6.747200 -25.851500
C -12.686800 -6.998700 -22.220900
C -12.454100 -6.769200 -20.803000
C -12.125400 -6.441100 -23.370700
O -11.864300 -6.007900 -26.279800
O -11.516700 -5.873700 -20.574200
H -11.414600 -5.711900 -19.633200
N -11.058900 -5.599700 -23.455500
H -10.966300 -5.144600 -24.201300
H -10.791500 -5.191100 -22.667100
17
Fragment
H -9.481300 -6.486800 -15.232900
N -9.047800 -6.961400 -17.020500
N -8.908900 -6.985600 -15.706500
O -8.871900 -7.471700 -19.671800
H -8.799000 -7.710500 -20.568800
O -8.319700 -7.484800 -12.997800
C -8.109700 -7.807000 -17.492400
C -7.980900 -8.072500 -18.921800
C -7.918400 -7.821000 -15.291200
C -7.685800 -8.050500 -13.873300
C -7.357000 -8.378600 -16.441000
O -7.095900 -8.811800 -19.350100
O -6.748300 -8.946000 -13.644500
H -6.646200 -9.107800 -12.703500
N -6.290500 -9.220000 -16.525800
H -6.198000 -9.675100 -17.271600
H -6.023100 -9.628600 -15.737400
34
Fragment
H -14.249700 -8.332900 -22.162600
N -13.816200 -7.858300 -23.950200
N -13.677300 -7.834100 -22.636200
O -13.640300 -7.348000 -26.601500
H -13.567400 -7.109200 -27.498500
O -13.088100 -7.334900 -19.927500
C -12.878100 -7.012700 -24.422100
C -12.749300 -6.747200 -25.851500
C -12.686800 -6.998700 -22.220900
C -12.454100 -6.769200 -20.803000
C -12.125400 -6.441100 -23.370700
O -11.864300 -6.007900 -26.279800
O -11.516700 -5.873700 -20.574200
H -11.414600 -5.711900 -19.633200
N -11.058900 -5.599700 -23.455500
H -10.966300 -5.144600 -24.201300
H -10.791500 -5.191100 -22.667100
H -9.481300 -6.486800 -15.232900
N -9.047800 -6.961400 -17.020500
N -8.908900 -6.985600 -15.706500
O -8.871900 -7.471700 -19.671800
H -8.799000 -7.710500 -20.568800
O -8.319700 -7.484800 -12.997800
C -8.109700 -7.807000 -17.492400
C -7.980900 -8.072500 -18.921800
C -7.918400 -7.821000 -15.291200
C -7.685800 -8.050500 -13.873300
C -7.357000 -8.378600 -16.441000
O -7.095900 -8.811800 -19.350100
O -6.748300 -8.946000 -13.644500
H -6.646200 -9.107800 -12.703500
N -6.290500 -9.220000 -16.525800
H -6.198000 -9.675100 -17.271600
H -6.023100 -9.628600 -15.737400
