17
Fragment
H -14.249700 -8.332900 -22.162600
N -13.816200 -7.858300 -23.950200
N -13.677300 -7.834100 -22.636200
O -13.640300 -7.348000 -26.601500
H -13.567400 -7.109200 -27.498500
O -13.088100 -7.334900 -19.927500
C -12.878100 -7.012700 -24.422100
C -12.749300 -6.747200 -25.851500
C -12.686800 -6.998700 -22.220900
C -12.454100 -6.769200 -20.803000
C -12.125400 -6.441100 -23.370700
O -11.864300 -6.007900 -26.279800
O -11.516700 -5.873700 -20.574200
H -11.414600 -5.711900 -19.633200
N -11.058900 -5.599700 -23.455500
H -10.966300 -5.144600 -24.201300
H -10.791500 -5.191100 -22.667100
17
Fragment
H -14.249700 -4.098700 -22.162600
N -13.816200 -3.624100 -23.950200
N -13.677300 -3.599900 -22.636200
O -13.640300 -3.113800 -26.601500
H -13.567400 -2.875000 -27.498500
O -13.088100 -3.100700 -19.927500
C -12.878100 -2.778500 -24.422100
C -12.749300 -2.513000 -25.851500
C -12.686800 -2.764500 -22.220900
C -12.454100 -2.535000 -20.803000
C -12.125400 -2.206900 -23.370700
O -11.864300 -1.773700 -26.279800
O -11.516700 -1.639500 -20.574200
H -11.414600 -1.477700 -19.633200
N -11.058900 -1.365500 -23.455500
H -10.966300 -0.910400 -24.201300
H -10.791500 -0.956900 -22.667100
34
Fragment
H -14.249700 -8.332900 -22.162600
N -13.816200 -7.858300 -23.950200
N -13.677300 -7.834100 -22.636200
O -13.640300 -7.348000 -26.601500
H -13.567400 -7.109200 -27.498500
O -13.088100 -7.334900 -19.927500
C -12.878100 -7.012700 -24.422100
C -12.749300 -6.747200 -25.851500
C -12.686800 -6.998700 -22.220900
C -12.454100 -6.769200 -20.803000
C -12.125400 -6.441100 -23.370700
O -11.864300 -6.007900 -26.279800
O -11.516700 -5.873700 -20.574200
H -11.414600 -5.711900 -19.633200
N -11.058900 -5.599700 -23.455500
H -10.966300 -5.144600 -24.201300
H -10.791500 -5.191100 -22.667100
H -14.249700 -4.098700 -22.162600
N -13.816200 -3.624100 -23.950200
N -13.677300 -3.599900 -22.636200
O -13.640300 -3.113800 -26.601500
H -13.567400 -2.875000 -27.498500
O -13.088100 -3.100700 -19.927500
C -12.878100 -2.778500 -24.422100
C -12.749300 -2.513000 -25.851500
C -12.686800 -2.764500 -22.220900
C -12.454100 -2.535000 -20.803000
C -12.125400 -2.206900 -23.370700
O -11.864300 -1.773700 -26.279800
O -11.516700 -1.639500 -20.574200
H -11.414600 -1.477700 -19.633200
N -11.058900 -1.365500 -23.455500
H -10.966300 -0.910400 -24.201300
H -10.791500 -0.956900 -22.667100
