17
Fragment
H -14.249700 -8.332900 -22.162600
N -13.816200 -7.858300 -23.950200
N -13.677300 -7.834100 -22.636200
O -13.640300 -7.348000 -26.601500
H -13.567400 -7.109200 -27.498500
O -13.088100 -7.334900 -19.927500
C -12.878100 -7.012700 -24.422100
C -12.749300 -6.747200 -25.851500
C -12.686800 -6.998700 -22.220900
C -12.454100 -6.769200 -20.803000
C -12.125400 -6.441100 -23.370700
O -11.864300 -6.007900 -26.279800
O -11.516700 -5.873700 -20.574200
H -11.414600 -5.711900 -19.633200
N -11.058900 -5.599700 -23.455500
H -10.966300 -5.144600 -24.201300
H -10.791500 -5.191100 -22.667100
17
Fragment
H -9.709600 -3.074000 -25.840900
H -9.534700 -3.027500 -24.306600
N -9.442100 -3.482600 -25.052400
H -9.086400 -3.594800 -28.874700
O -8.984400 -3.756600 -27.933800
O -8.636700 -3.890800 -22.228100
C -8.375600 -4.324000 -25.137200
C -8.046900 -4.652100 -27.705000
C -7.814200 -4.881600 -26.287000
C -7.751800 -4.630100 -22.656400
C -7.622900 -4.895600 -24.085900
O -7.413000 -5.217800 -28.580500
H -6.933700 -4.992100 -21.009500
O -6.860800 -5.230900 -21.906500
N -6.823700 -5.717000 -25.871800
N -6.684900 -5.741200 -24.557800
H -6.251400 -6.215800 -26.345400
34
Fragment
H -14.249700 -8.332900 -22.162600
N -13.816200 -7.858300 -23.950200
N -13.677300 -7.834100 -22.636200
O -13.640300 -7.348000 -26.601500
H -13.567400 -7.109200 -27.498500
O -13.088100 -7.334900 -19.927500
C -12.878100 -7.012700 -24.422100
C -12.749300 -6.747200 -25.851500
C -12.686800 -6.998700 -22.220900
C -12.454100 -6.769200 -20.803000
C -12.125400 -6.441100 -23.370700
O -11.864300 -6.007900 -26.279800
O -11.516700 -5.873700 -20.574200
H -11.414600 -5.711900 -19.633200
N -11.058900 -5.599700 -23.455500
H -10.966300 -5.144600 -24.201300
H -10.791500 -5.191100 -22.667100
H -9.709600 -3.074000 -25.840900
H -9.534700 -3.027500 -24.306600
N -9.442100 -3.482600 -25.052400
H -9.086400 -3.594800 -28.874700
O -8.984400 -3.756600 -27.933800
O -8.636700 -3.890800 -22.228100
C -8.375600 -4.324000 -25.137200
C -8.046900 -4.652100 -27.705000
C -7.814200 -4.881600 -26.287000
C -7.751800 -4.630100 -22.656400
C -7.622900 -4.895600 -24.085900
O -7.413000 -5.217800 -28.580500
H -6.933700 -4.992100 -21.009500
O -6.860800 -5.230900 -21.906500
N -6.823700 -5.717000 -25.871800
N -6.684900 -5.741200 -24.557800
H -6.251400 -6.215800 -26.345400
