36
Fragment
O -24.651600 -12.293400 -28.582800
O -24.618700 -11.328000 -26.653900
N -24.191200 -11.558400 -27.758300
H -23.706300 -8.127100 -29.084900
H -23.600900 -9.259100 -27.122800
O -23.164600 -8.510500 -31.760000
N -23.096200 -9.847500 -29.997900
N -22.989400 -9.642600 -31.359900
C -22.929400 -8.723400 -29.064300
N -22.912400 -10.935700 -28.052500
H -22.869000 -11.858900 -29.851800
C -22.853700 -9.505500 -27.707500
O -22.816500 -6.218500 -30.024800
O -22.759500 -10.626400 -32.028100
O -22.546400 -9.822800 -25.136500
C -22.495300 -11.053700 -29.438500
N -21.736000 -6.763000 -29.922000
N -21.703600 -7.986800 -29.247300
N -21.576900 -9.211300 -27.063500
N -21.509100 -9.698400 -25.735500
C -20.907800 -11.035400 -29.546700
O -20.662400 -6.318100 -30.279300
H -20.571300 -11.825500 -30.019000
N -20.518200 -9.807600 -30.217900
C -20.474800 -8.743300 -29.225800
O -20.397200 -9.906500 -25.292100
C -20.382700 -9.502300 -27.851000
N -20.330500 -10.924600 -28.205400
H -19.698100 -8.162100 -29.362900
H -19.574000 -9.237600 -27.363100
N -19.464700 -9.875400 -31.181200
O -19.269400 -10.950100 -31.682700
N -19.035400 -11.543200 -28.042200
O -18.951700 -8.828600 -31.463700
O -18.699700 -12.327700 -28.880800
O -18.459300 -11.265800 -27.021900
18
Fragment
O -31.008000 -9.049500 -28.783600
H -30.679200 -6.633800 -27.964900
C -29.788700 -9.010400 -28.730800
C -29.754500 -6.664900 -27.876300
H -29.547500 -4.814500 -27.158300
H -29.428400 -10.897500 -29.534200
C -29.077100 -5.580700 -27.396100
C -29.061400 -7.816100 -28.231800
C -28.993100 -10.164000 -29.160800
C -27.701000 -5.607000 -27.258900
C -27.670700 -10.195900 -29.033500
C -27.668900 -7.855200 -28.093800
H -27.250200 -4.862400 -26.932700
H -27.208500 -10.952500 -29.312700
C -26.999700 -6.738300 -27.607400
C -26.920800 -9.075800 -28.466600
H -26.073600 -6.755000 -27.517800
O -25.709200 -9.149900 -28.301800
54
Fragment
O -24.651600 -12.293400 -28.582800
O -24.618700 -11.328000 -26.653900
N -24.191200 -11.558400 -27.758300
H -23.706300 -8.127100 -29.084900
H -23.600900 -9.259100 -27.122800
O -23.164600 -8.510500 -31.760000
N -23.096200 -9.847500 -29.997900
N -22.989400 -9.642600 -31.359900
C -22.929400 -8.723400 -29.064300
N -22.912400 -10.935700 -28.052500
H -22.869000 -11.858900 -29.851800
C -22.853700 -9.505500 -27.707500
O -22.816500 -6.218500 -30.024800
O -22.759500 -10.626400 -32.028100
O -22.546400 -9.822800 -25.136500
C -22.495300 -11.053700 -29.438500
N -21.736000 -6.763000 -29.922000
N -21.703600 -7.986800 -29.247300
N -21.576900 -9.211300 -27.063500
N -21.509100 -9.698400 -25.735500
C -20.907800 -11.035400 -29.546700
O -20.662400 -6.318100 -30.279300
H -20.571300 -11.825500 -30.019000
N -20.518200 -9.807600 -30.217900
C -20.474800 -8.743300 -29.225800
O -20.397200 -9.906500 -25.292100
C -20.382700 -9.502300 -27.851000
N -20.330500 -10.924600 -28.205400
H -19.698100 -8.162100 -29.362900
H -19.574000 -9.237600 -27.363100
N -19.464700 -9.875400 -31.181200
O -19.269400 -10.950100 -31.682700
N -19.035400 -11.543200 -28.042200
O -18.951700 -8.828600 -31.463700
O -18.699700 -12.327700 -28.880800
O -18.459300 -11.265800 -27.021900
O -31.008000 -9.049500 -28.783600
H -30.679200 -6.633800 -27.964900
C -29.788700 -9.010400 -28.730800
C -29.754500 -6.664900 -27.876300
H -29.547500 -4.814500 -27.158300
H -29.428400 -10.897500 -29.534200
C -29.077100 -5.580700 -27.396100
C -29.061400 -7.816100 -28.231800
C -28.993100 -10.164000 -29.160800
C -27.701000 -5.607000 -27.258900
C -27.670700 -10.195900 -29.033500
C -27.668900 -7.855200 -28.093800
H -27.250200 -4.862400 -26.932700
H -27.208500 -10.952500 -29.312700
C -26.999700 -6.738300 -27.607400
C -26.920800 -9.075800 -28.466600
H -26.073600 -6.755000 -27.517800
O -25.709200 -9.149900 -28.301800
