36
Fragment
O -24.651600 -12.293400 -28.582800
O -24.618700 -11.328000 -26.653900
N -24.191200 -11.558400 -27.758300
H -23.706300 -8.127100 -29.084900
H -23.600900 -9.259100 -27.122800
O -23.164600 -8.510500 -31.760000
N -23.096200 -9.847500 -29.997900
N -22.989400 -9.642600 -31.359900
C -22.929400 -8.723400 -29.064300
N -22.912400 -10.935700 -28.052500
H -22.869000 -11.858900 -29.851800
C -22.853700 -9.505500 -27.707500
O -22.816500 -6.218500 -30.024800
O -22.759500 -10.626400 -32.028100
O -22.546400 -9.822800 -25.136500
C -22.495300 -11.053700 -29.438500
N -21.736000 -6.763000 -29.922000
N -21.703600 -7.986800 -29.247300
N -21.576900 -9.211300 -27.063500
N -21.509100 -9.698400 -25.735500
C -20.907800 -11.035400 -29.546700
O -20.662400 -6.318100 -30.279300
H -20.571300 -11.825500 -30.019000
N -20.518200 -9.807600 -30.217900
C -20.474800 -8.743300 -29.225800
O -20.397200 -9.906500 -25.292100
C -20.382700 -9.502300 -27.851000
N -20.330500 -10.924600 -28.205400
H -19.698100 -8.162100 -29.362900
H -19.574000 -9.237600 -27.363100
N -19.464700 -9.875400 -31.181200
O -19.269400 -10.950100 -31.682700
N -19.035400 -11.543200 -28.042200
O -18.951700 -8.828600 -31.463700
O -18.699700 -12.327700 -28.880800
O -18.459300 -11.265800 -27.021900
18
Fragment
O -17.410500 -13.136100 -23.937900
H -17.046200 -10.741200 -24.721900
C -16.198900 -13.062000 -23.773000
C -16.120100 -10.724500 -24.632200
H -15.911200 -14.938700 -22.926900
H -15.869600 -8.848600 -25.307000
C -15.450900 -11.841400 -24.145800
C -15.449100 -14.182100 -23.206100
C -15.418700 -9.593200 -24.980800
C -14.126700 -14.150200 -23.078800
C -14.058400 -11.802300 -24.007900
C -14.042600 -9.566900 -24.843500
H -13.691400 -14.883700 -22.705400
H -13.572300 -8.800700 -25.081300
C -13.365200 -10.651100 -24.363300
C -13.331100 -12.996600 -23.508900
H -12.440500 -10.620000 -24.274700
O -12.111700 -13.035700 -23.456000
54
Fragment
O -24.651600 -12.293400 -28.582800
O -24.618700 -11.328000 -26.653900
N -24.191200 -11.558400 -27.758300
H -23.706300 -8.127100 -29.084900
H -23.600900 -9.259100 -27.122800
O -23.164600 -8.510500 -31.760000
N -23.096200 -9.847500 -29.997900
N -22.989400 -9.642600 -31.359900
C -22.929400 -8.723400 -29.064300
N -22.912400 -10.935700 -28.052500
H -22.869000 -11.858900 -29.851800
C -22.853700 -9.505500 -27.707500
O -22.816500 -6.218500 -30.024800
O -22.759500 -10.626400 -32.028100
O -22.546400 -9.822800 -25.136500
C -22.495300 -11.053700 -29.438500
N -21.736000 -6.763000 -29.922000
N -21.703600 -7.986800 -29.247300
N -21.576900 -9.211300 -27.063500
N -21.509100 -9.698400 -25.735500
C -20.907800 -11.035400 -29.546700
O -20.662400 -6.318100 -30.279300
H -20.571300 -11.825500 -30.019000
N -20.518200 -9.807600 -30.217900
C -20.474800 -8.743300 -29.225800
O -20.397200 -9.906500 -25.292100
C -20.382700 -9.502300 -27.851000
N -20.330500 -10.924600 -28.205400
H -19.698100 -8.162100 -29.362900
H -19.574000 -9.237600 -27.363100
N -19.464700 -9.875400 -31.181200
O -19.269400 -10.950100 -31.682700
N -19.035400 -11.543200 -28.042200
O -18.951700 -8.828600 -31.463700
O -18.699700 -12.327700 -28.880800
O -18.459300 -11.265800 -27.021900
O -17.410500 -13.136100 -23.937900
H -17.046200 -10.741200 -24.721900
C -16.198900 -13.062000 -23.773000
C -16.120100 -10.724500 -24.632200
H -15.911200 -14.938700 -22.926900
H -15.869600 -8.848600 -25.307000
C -15.450900 -11.841400 -24.145800
C -15.449100 -14.182100 -23.206100
C -15.418700 -9.593200 -24.980800
C -14.126700 -14.150200 -23.078800
C -14.058400 -11.802300 -24.007900
C -14.042600 -9.566900 -24.843500
H -13.691400 -14.883700 -22.705400
H -13.572300 -8.800700 -25.081300
C -13.365200 -10.651100 -24.363300
C -13.331100 -12.996600 -23.508900
H -12.440500 -10.620000 -24.274700
O -12.111700 -13.035700 -23.456000
