36
Fragment
O -25.362000 -11.962900 -16.791500
O -25.081300 -11.441700 -14.698100
N -24.793700 -12.020200 -15.725700
O -24.053100 -17.080800 -16.230900
O -23.960000 -16.891500 -14.079400
N -23.723700 -16.516100 -15.201200
N -23.707100 -12.912200 -15.643200
H -23.645300 -13.259900 -17.629500
H -23.545100 -12.709100 -13.658700
N -23.070200 -15.311600 -15.355200
C -23.061900 -13.368700 -16.850000
H -23.039100 -14.909800 -13.382000
H -23.003500 -15.441400 -17.368600
C -23.003500 -13.041600 -14.405000
O -22.663000 -10.784300 -17.471000
C -22.640700 -14.557200 -14.205200
C -22.637000 -14.872800 -16.659600
O -22.313900 -10.952100 -12.826700
N -21.755600 -12.753800 -17.074800
N -21.698800 -12.317600 -14.482400
N -21.647800 -11.386200 -17.189800
N -21.390700 -11.535900 -13.304300
N -21.178400 -14.459100 -14.086800
N -21.161500 -14.865500 -16.684200
O -21.129900 -16.544200 -18.154600
O -20.981400 -16.619700 -13.682000
C -20.704600 -13.515800 -16.412100
C -20.680100 -13.307700 -14.835500
O -20.538700 -10.920000 -17.015400
N -20.516800 -15.596600 -17.727100
N -20.427300 -15.614400 -14.049200
O -20.222800 -11.465600 -12.999200
H -19.826300 -13.344000 -16.812500
H -19.792000 -13.035000 -14.523300
O -19.385800 -15.256200 -17.990000
O -19.252100 -15.500900 -14.371000
12
Fragment
H -31.852500 -9.350200 -14.772300
H -31.517800 -9.543800 -16.971900
C -31.025000 -9.636400 -15.084700
C -30.828600 -9.759100 -16.385500
O -30.168400 -9.863800 -12.932300
C -29.977300 -9.940100 -14.135800
C -29.559600 -10.225700 -16.921400
O -29.410700 -10.435100 -18.104500
C -28.680600 -10.347200 -14.668200
C -28.481600 -10.467400 -15.971600
H -27.980800 -10.524000 -14.081800
H -27.640900 -10.710400 -16.285300
48
Fragment
O -25.362000 -11.962900 -16.791500
O -25.081300 -11.441700 -14.698100
N -24.793700 -12.020200 -15.725700
O -24.053100 -17.080800 -16.230900
O -23.960000 -16.891500 -14.079400
N -23.723700 -16.516100 -15.201200
N -23.707100 -12.912200 -15.643200
H -23.645300 -13.259900 -17.629500
H -23.545100 -12.709100 -13.658700
N -23.070200 -15.311600 -15.355200
C -23.061900 -13.368700 -16.850000
H -23.039100 -14.909800 -13.382000
H -23.003500 -15.441400 -17.368600
C -23.003500 -13.041600 -14.405000
O -22.663000 -10.784300 -17.471000
C -22.640700 -14.557200 -14.205200
C -22.637000 -14.872800 -16.659600
O -22.313900 -10.952100 -12.826700
N -21.755600 -12.753800 -17.074800
N -21.698800 -12.317600 -14.482400
N -21.647800 -11.386200 -17.189800
N -21.390700 -11.535900 -13.304300
N -21.178400 -14.459100 -14.086800
N -21.161500 -14.865500 -16.684200
O -21.129900 -16.544200 -18.154600
O -20.981400 -16.619700 -13.682000
C -20.704600 -13.515800 -16.412100
C -20.680100 -13.307700 -14.835500
O -20.538700 -10.920000 -17.015400
N -20.516800 -15.596600 -17.727100
N -20.427300 -15.614400 -14.049200
O -20.222800 -11.465600 -12.999200
H -19.826300 -13.344000 -16.812500
H -19.792000 -13.035000 -14.523300
O -19.385800 -15.256200 -17.990000
O -19.252100 -15.500900 -14.371000
H -31.852500 -9.350200 -14.772300
H -31.517800 -9.543800 -16.971900
C -31.025000 -9.636400 -15.084700
C -30.828600 -9.759100 -16.385500
O -30.168400 -9.863800 -12.932300
C -29.977300 -9.940100 -14.135800
C -29.559600 -10.225700 -16.921400
O -29.410700 -10.435100 -18.104500
C -28.680600 -10.347200 -14.668200
C -28.481600 -10.467400 -15.971600
H -27.980800 -10.524000 -14.081800
H -27.640900 -10.710400 -16.285300
