22
Fragment
H -18.338700 -20.441700 -12.801700
H -18.073700 -20.308200 -11.250400
C -17.671100 -20.277100 -12.125900
H -17.162100 -19.085100 -14.360300
N -17.126900 -18.914600 -12.341000
H -16.695400 -21.409100 -14.223000
N -16.632400 -21.315800 -12.215700
C -16.495800 -18.878200 -13.671600
H -16.474500 -18.740500 -10.449500
H -16.117500 -17.997700 -13.810100
C -16.073200 -18.679000 -11.326900
C -16.022300 -21.229000 -13.551400
H -15.998000 -21.054700 -10.314200
H -15.674900 -17.810300 -11.469200
C -15.600600 -21.022900 -11.205100
N -15.423900 -19.894600 -13.811300
H -15.299600 -21.878100 -13.623300
N -14.996400 -19.684500 -11.404400
H -14.893500 -21.685000 -11.273100
C -14.410900 -19.637500 -12.758700
H -14.038200 -18.761100 -12.914200
H -13.704400 -20.312200 -12.825500
38
Fragment
H -23.383000 -20.330200 -18.739700
O -23.014400 -20.967800 -19.114600
O -22.573000 -20.028500 -16.541900
H -22.439000 -19.912200 -15.747500
H -22.026400 -22.556600 -20.461300
C -21.948000 -21.379200 -18.366300
C -21.713200 -20.961900 -17.050300
O -21.259800 -22.769300 -20.215800
C -21.063800 -22.291700 -18.957800
C -20.632100 -21.463500 -16.327500
H -20.500600 -21.176700 -15.433700
C -19.953600 -22.749600 -18.253100
C -19.738000 -22.360200 -16.925300
H -19.621300 -23.336900 -14.437700
H -19.364400 -23.341300 -18.675700
C -18.791000 -23.440400 -14.863200
C -18.608600 -22.963000 -16.168900
H -17.911300 -24.420200 -13.311600
C -17.768200 -24.094400 -14.187900
C -17.357800 -23.149500 -16.776500
H -17.214700 -22.823700 -17.652800
C -16.517400 -24.280900 -14.795500
C -16.335000 -23.803500 -16.101200
H -15.761600 -23.902600 -12.288700
H -15.504700 -23.907000 -16.526700
C -15.388000 -24.883700 -14.039200
C -15.172400 -24.494300 -12.711300
H -14.625400 -26.067200 -15.530700
C -14.493900 -25.780400 -14.636900
C -14.062200 -24.952200 -12.006700
O -13.866200 -24.474600 -10.748600
C -13.412800 -26.282000 -13.914100
C -13.178000 -25.864700 -12.598100
H -13.099600 -24.687300 -10.503100
H -12.687000 -27.331700 -15.216900
O -12.553000 -27.215400 -14.422500
O -12.111600 -26.276100 -11.849800
H -11.743000 -26.913700 -12.224700
60
Fragment
H -18.338700 -20.441700 -12.801700
H -18.073700 -20.308200 -11.250400
C -17.671100 -20.277100 -12.125900
H -17.162100 -19.085100 -14.360300
N -17.126900 -18.914600 -12.341000
H -16.695400 -21.409100 -14.223000
N -16.632400 -21.315800 -12.215700
C -16.495800 -18.878200 -13.671600
H -16.474500 -18.740500 -10.449500
H -16.117500 -17.997700 -13.810100
C -16.073200 -18.679000 -11.326900
C -16.022300 -21.229000 -13.551400
H -15.998000 -21.054700 -10.314200
H -15.674900 -17.810300 -11.469200
C -15.600600 -21.022900 -11.205100
N -15.423900 -19.894600 -13.811300
H -15.299600 -21.878100 -13.623300
N -14.996400 -19.684500 -11.404400
H -14.893500 -21.685000 -11.273100
C -14.410900 -19.637500 -12.758700
H -14.038200 -18.761100 -12.914200
H -13.704400 -20.312200 -12.825500
H -23.383000 -20.330200 -18.739700
O -23.014400 -20.967800 -19.114600
O -22.573000 -20.028500 -16.541900
H -22.439000 -19.912200 -15.747500
H -22.026400 -22.556600 -20.461300
C -21.948000 -21.379200 -18.366300
C -21.713200 -20.961900 -17.050300
O -21.259800 -22.769300 -20.215800
C -21.063800 -22.291700 -18.957800
C -20.632100 -21.463500 -16.327500
H -20.500600 -21.176700 -15.433700
C -19.953600 -22.749600 -18.253100
C -19.738000 -22.360200 -16.925300
H -19.621300 -23.336900 -14.437700
H -19.364400 -23.341300 -18.675700
C -18.791000 -23.440400 -14.863200
C -18.608600 -22.963000 -16.168900
H -17.911300 -24.420200 -13.311600
C -17.768200 -24.094400 -14.187900
C -17.357800 -23.149500 -16.776500
H -17.214700 -22.823700 -17.652800
C -16.517400 -24.280900 -14.795500
C -16.335000 -23.803500 -16.101200
H -15.761600 -23.902600 -12.288700
H -15.504700 -23.907000 -16.526700
C -15.388000 -24.883700 -14.039200
C -15.172400 -24.494300 -12.711300
H -14.625400 -26.067200 -15.530700
C -14.493900 -25.780400 -14.636900
C -14.062200 -24.952200 -12.006700
O -13.866200 -24.474600 -10.748600
C -13.412800 -26.282000 -13.914100
C -13.178000 -25.864700 -12.598100
H -13.099600 -24.687300 -10.503100
H -12.687000 -27.331700 -15.216900
O -12.553000 -27.215400 -14.422500
O -12.111600 -26.276100 -11.849800
H -11.743000 -26.913700 -12.224700
