22
Fragment
H -18.338700 -20.441700 -12.801700
H -18.073700 -20.308200 -11.250400
C -17.671100 -20.277100 -12.125900
H -17.162100 -19.085100 -14.360300
N -17.126900 -18.914600 -12.341000
H -16.695400 -21.409100 -14.223000
N -16.632400 -21.315800 -12.215700
C -16.495800 -18.878200 -13.671600
H -16.474500 -18.740500 -10.449500
H -16.117500 -17.997700 -13.810100
C -16.073200 -18.679000 -11.326900
C -16.022300 -21.229000 -13.551400
H -15.998000 -21.054700 -10.314200
H -15.674900 -17.810300 -11.469200
C -15.600600 -21.022900 -11.205100
N -15.423900 -19.894600 -13.811300
H -15.299600 -21.878100 -13.623300
N -14.996400 -19.684500 -11.404400
H -14.893500 -21.685000 -11.273100
C -14.410900 -19.637500 -12.758700
H -14.038200 -18.761100 -12.914200
H -13.704400 -20.312200 -12.825500
38
Fragment
H -14.846500 -17.232400 -8.418200
O -14.477800 -17.870000 -8.793200
O -14.036500 -16.930600 -6.220400
H -13.902500 -16.814400 -5.426000
H -13.489800 -19.458700 -10.139800
C -13.411500 -18.281300 -8.044900
C -13.176600 -17.864000 -6.728900
O -12.723300 -19.671400 -9.894400
C -12.527300 -19.193800 -8.636300
C -12.095600 -18.365700 -6.006100
H -11.964100 -18.078800 -5.112200
C -11.417000 -19.651800 -7.931600
C -11.201400 -19.262300 -6.603800
H -11.084700 -20.239100 -4.116200
H -10.827900 -20.243500 -8.354200
C -10.254500 -20.342600 -4.541800
C -10.072000 -19.865100 -5.847400
H -9.374700 -21.322300 -2.990100
C -9.231600 -20.996500 -3.866400
C -8.821300 -20.051700 -6.455000
H -8.678200 -19.725900 -7.331300
C -7.980900 -21.183100 -4.474000
C -7.798500 -20.705600 -5.779700
H -7.225100 -20.804700 -1.967300
H -6.968200 -20.809100 -6.205300
C -6.851500 -21.785800 -3.717700
C -6.635900 -21.396400 -2.389800
H -6.088900 -22.969400 -5.209200
C -5.957400 -22.682500 -4.315400
C -5.525700 -21.854400 -1.685200
O -5.329600 -21.376800 -0.427100
C -4.876300 -23.184200 -3.592600
C -4.641500 -22.766900 -2.276600
H -4.563100 -21.589400 -0.181700
H -4.150500 -24.233800 -4.895500
O -4.016500 -24.117600 -4.101000
O -3.575100 -23.178200 -1.528300
H -3.206500 -23.815800 -1.903300
60
Fragment
H -18.338700 -20.441700 -12.801700
H -18.073700 -20.308200 -11.250400
C -17.671100 -20.277100 -12.125900
H -17.162100 -19.085100 -14.360300
N -17.126900 -18.914600 -12.341000
H -16.695400 -21.409100 -14.223000
N -16.632400 -21.315800 -12.215700
C -16.495800 -18.878200 -13.671600
H -16.474500 -18.740500 -10.449500
H -16.117500 -17.997700 -13.810100
C -16.073200 -18.679000 -11.326900
C -16.022300 -21.229000 -13.551400
H -15.998000 -21.054700 -10.314200
H -15.674900 -17.810300 -11.469200
C -15.600600 -21.022900 -11.205100
N -15.423900 -19.894600 -13.811300
H -15.299600 -21.878100 -13.623300
N -14.996400 -19.684500 -11.404400
H -14.893500 -21.685000 -11.273100
C -14.410900 -19.637500 -12.758700
H -14.038200 -18.761100 -12.914200
H -13.704400 -20.312200 -12.825500
H -14.846500 -17.232400 -8.418200
O -14.477800 -17.870000 -8.793200
O -14.036500 -16.930600 -6.220400
H -13.902500 -16.814400 -5.426000
H -13.489800 -19.458700 -10.139800
C -13.411500 -18.281300 -8.044900
C -13.176600 -17.864000 -6.728900
O -12.723300 -19.671400 -9.894400
C -12.527300 -19.193800 -8.636300
C -12.095600 -18.365700 -6.006100
H -11.964100 -18.078800 -5.112200
C -11.417000 -19.651800 -7.931600
C -11.201400 -19.262300 -6.603800
H -11.084700 -20.239100 -4.116200
H -10.827900 -20.243500 -8.354200
C -10.254500 -20.342600 -4.541800
C -10.072000 -19.865100 -5.847400
H -9.374700 -21.322300 -2.990100
C -9.231600 -20.996500 -3.866400
C -8.821300 -20.051700 -6.455000
H -8.678200 -19.725900 -7.331300
C -7.980900 -21.183100 -4.474000
C -7.798500 -20.705600 -5.779700
H -7.225100 -20.804700 -1.967300
H -6.968200 -20.809100 -6.205300
C -6.851500 -21.785800 -3.717700
C -6.635900 -21.396400 -2.389800
H -6.088900 -22.969400 -5.209200
C -5.957400 -22.682500 -4.315400
C -5.525700 -21.854400 -1.685200
O -5.329600 -21.376800 -0.427100
C -4.876300 -23.184200 -3.592600
C -4.641500 -22.766900 -2.276600
H -4.563100 -21.589400 -0.181700
H -4.150500 -24.233800 -4.895500
O -4.016500 -24.117600 -4.101000
O -3.575100 -23.178200 -1.528300
H -3.206500 -23.815800 -1.903300
