22
Fragment
H -18.338700 -20.441700 -12.801700
H -18.073700 -20.308200 -11.250400
C -17.671100 -20.277100 -12.125900
H -17.162100 -19.085100 -14.360300
N -17.126900 -18.914600 -12.341000
H -16.695400 -21.409100 -14.223000
N -16.632400 -21.315800 -12.215700
C -16.495800 -18.878200 -13.671600
H -16.474500 -18.740500 -10.449500
H -16.117500 -17.997700 -13.810100
C -16.073200 -18.679000 -11.326900
C -16.022300 -21.229000 -13.551400
H -15.998000 -21.054700 -10.314200
H -15.674900 -17.810300 -11.469200
C -15.600600 -21.022900 -11.205100
N -15.423900 -19.894600 -13.811300
H -15.299600 -21.878100 -13.623300
N -14.996400 -19.684500 -11.404400
H -14.893500 -21.685000 -11.273100
C -14.410900 -19.637500 -12.758700
H -14.038200 -18.761100 -12.914200
H -13.704400 -20.312200 -12.825500
22
Fragment
H -11.055700 -20.441700 -12.801700
H -10.790700 -20.308200 -11.250400
C -10.388100 -20.277100 -12.125900
H -9.879100 -19.085100 -14.360300
N -9.843900 -18.914600 -12.341000
H -9.412400 -21.409100 -14.223000
N -9.349400 -21.315800 -12.215700
C -9.212800 -18.878200 -13.671600
H -9.191500 -18.740500 -10.449500
H -8.834500 -17.997700 -13.810100
C -8.790200 -18.679000 -11.326900
C -8.739300 -21.229000 -13.551400
H -8.715000 -21.054700 -10.314200
H -8.391900 -17.810300 -11.469200
C -8.317600 -21.022900 -11.205100
N -8.140900 -19.894600 -13.811300
H -8.016600 -21.878100 -13.623300
N -7.713400 -19.684500 -11.404400
H -7.610500 -21.685000 -11.273100
C -7.127900 -19.637500 -12.758700
H -6.755200 -18.761100 -12.914200
H -6.421400 -20.312200 -12.825500
44
Fragment
H -18.338700 -20.441700 -12.801700
H -18.073700 -20.308200 -11.250400
C -17.671100 -20.277100 -12.125900
H -17.162100 -19.085100 -14.360300
N -17.126900 -18.914600 -12.341000
H -16.695400 -21.409100 -14.223000
N -16.632400 -21.315800 -12.215700
C -16.495800 -18.878200 -13.671600
H -16.474500 -18.740500 -10.449500
H -16.117500 -17.997700 -13.810100
C -16.073200 -18.679000 -11.326900
C -16.022300 -21.229000 -13.551400
H -15.998000 -21.054700 -10.314200
H -15.674900 -17.810300 -11.469200
C -15.600600 -21.022900 -11.205100
N -15.423900 -19.894600 -13.811300
H -15.299600 -21.878100 -13.623300
N -14.996400 -19.684500 -11.404400
H -14.893500 -21.685000 -11.273100
C -14.410900 -19.637500 -12.758700
H -14.038200 -18.761100 -12.914200
H -13.704400 -20.312200 -12.825500
H -11.055700 -20.441700 -12.801700
H -10.790700 -20.308200 -11.250400
C -10.388100 -20.277100 -12.125900
H -9.879100 -19.085100 -14.360300
N -9.843900 -18.914600 -12.341000
H -9.412400 -21.409100 -14.223000
N -9.349400 -21.315800 -12.215700
C -9.212800 -18.878200 -13.671600
H -9.191500 -18.740500 -10.449500
H -8.834500 -17.997700 -13.810100
C -8.790200 -18.679000 -11.326900
C -8.739300 -21.229000 -13.551400
H -8.715000 -21.054700 -10.314200
H -8.391900 -17.810300 -11.469200
C -8.317600 -21.022900 -11.205100
N -8.140900 -19.894600 -13.811300
H -8.016600 -21.878100 -13.623300
N -7.713400 -19.684500 -11.404400
H -7.610500 -21.685000 -11.273100
C -7.127900 -19.637500 -12.758700
H -6.755200 -18.761100 -12.914200
H -6.421400 -20.312200 -12.825500
