41
Fragment
H -21.931300 -14.154500 -57.154400
H -21.785600 -15.008600 -59.367800
H -21.612400 -10.686400 -47.041100
C -21.086400 -14.346900 -57.552100
C -20.954100 -14.831800 -58.847400
H -20.914000 -11.555300 -49.153700
C -20.698200 -10.577300 -47.329700
O -20.475000 -11.934800 -51.308400
C -20.281200 -11.089000 -48.535500
H -20.274700 -13.463900 -54.885900
H -20.111600 -9.446300 -45.604300
C -19.924300 -14.143400 -56.834000
C -19.827400 -9.880700 -46.511000
C -19.701700 -15.092500 -59.396800
N -19.701500 -13.684400 -55.550200
H -19.626800 -15.394700 -60.297200
C -19.236000 -11.902900 -51.227400
C -18.958800 -10.908500 -48.934200
C -18.672500 -14.395100 -57.407500
N -18.642800 -12.805200 -53.341700
C -18.536700 -14.874100 -58.696400
C -18.525700 -9.696500 -46.910900
N -18.503800 -11.432800 -50.167100
C -18.366300 -13.619800 -55.325200
C -18.231800 -12.317300 -52.196500
C -18.064600 -10.213400 -48.116400
H -17.873500 -9.201200 -46.353300
N -17.723100 -14.058700 -56.439600
N -17.714800 -13.171300 -54.242100
H -17.657000 -15.016000 -59.046800
N -17.110000 -11.530100 -50.398600
H -17.029300 -10.129500 -48.456600
C -16.955300 -12.059600 -51.582600
C -16.273500 -14.116700 -56.592400
H -15.978800 -14.978800 -56.961800
H -15.965800 -13.419300 -57.209400
H -15.856100 -14.013400 -55.690000
C -15.618000 -12.304600 -52.168400
H -15.496800 -13.241100 -52.473800
H -15.446300 -11.830100 -52.932400
H -14.934000 -12.119700 -51.480200
41
Fragment
H -14.716100 -17.867700 -49.847600
H -14.570400 -18.721700 -47.634200
H -14.397200 -14.399600 -59.960900
C -13.871200 -18.060000 -49.449900
C -13.738900 -18.545000 -48.154600
H -13.698800 -15.268500 -57.848300
C -13.483000 -14.290400 -59.672300
O -13.259800 -15.648000 -55.693600
C -13.066000 -14.802100 -58.466500
H -13.059500 -17.177000 -52.116100
H -12.896400 -13.159400 -61.397700
C -12.709100 -17.856500 -50.168000
C -12.612200 -13.593800 -60.491000
C -12.486500 -18.805600 -47.605200
N -12.486300 -17.397600 -51.451800
H -12.411600 -19.107900 -46.704800
C -12.020800 -15.616000 -55.774600
C -11.743600 -14.621600 -58.067800
C -11.457300 -18.108300 -49.594500
N -11.427600 -16.518300 -53.660300
C -11.321500 -18.587300 -48.305600
C -11.310500 -13.409700 -60.091100
N -11.288600 -15.145900 -56.834900
C -11.151100 -17.333000 -51.676800
C -11.016600 -16.030400 -54.805500
C -10.849400 -13.926500 -58.885600
H -10.658300 -12.914300 -60.648700
N -10.507900 -17.771900 -50.562400
N -10.499600 -16.884400 -52.759900
H -10.441800 -18.729100 -47.955200
N -9.894800 -15.243200 -56.603400
H -9.814100 -13.842600 -58.545400
C -9.740100 -15.772700 -55.419400
C -9.058300 -17.829800 -50.409600
H -8.763600 -18.692000 -50.040200
H -8.750600 -17.132500 -49.792600
H -8.640900 -17.726600 -51.312000
C -8.402800 -16.017800 -54.833600
H -8.281600 -16.954200 -54.528200
H -8.231100 -15.543200 -54.069600
H -7.718800 -15.832900 -55.521800
82
Fragment
H -21.931300 -14.154500 -57.154400
H -21.785600 -15.008600 -59.367800
H -21.612400 -10.686400 -47.041100
C -21.086400 -14.346900 -57.552100
C -20.954100 -14.831800 -58.847400
H -20.914000 -11.555300 -49.153700
C -20.698200 -10.577300 -47.329700
O -20.475000 -11.934800 -51.308400
C -20.281200 -11.089000 -48.535500
H -20.274700 -13.463900 -54.885900
H -20.111600 -9.446300 -45.604300
C -19.924300 -14.143400 -56.834000
C -19.827400 -9.880700 -46.511000
C -19.701700 -15.092500 -59.396800
N -19.701500 -13.684400 -55.550200
H -19.626800 -15.394700 -60.297200
C -19.236000 -11.902900 -51.227400
C -18.958800 -10.908500 -48.934200
C -18.672500 -14.395100 -57.407500
N -18.642800 -12.805200 -53.341700
C -18.536700 -14.874100 -58.696400
C -18.525700 -9.696500 -46.910900
N -18.503800 -11.432800 -50.167100
C -18.366300 -13.619800 -55.325200
C -18.231800 -12.317300 -52.196500
C -18.064600 -10.213400 -48.116400
H -17.873500 -9.201200 -46.353300
N -17.723100 -14.058700 -56.439600
N -17.714800 -13.171300 -54.242100
H -17.657000 -15.016000 -59.046800
N -17.110000 -11.530100 -50.398600
H -17.029300 -10.129500 -48.456600
C -16.955300 -12.059600 -51.582600
C -16.273500 -14.116700 -56.592400
H -15.978800 -14.978800 -56.961800
H -15.965800 -13.419300 -57.209400
H -15.856100 -14.013400 -55.690000
C -15.618000 -12.304600 -52.168400
H -15.496800 -13.241100 -52.473800
H -15.446300 -11.830100 -52.932400
H -14.934000 -12.119700 -51.480200
H -14.716100 -17.867700 -49.847600
H -14.570400 -18.721700 -47.634200
H -14.397200 -14.399600 -59.960900
C -13.871200 -18.060000 -49.449900
C -13.738900 -18.545000 -48.154600
H -13.698800 -15.268500 -57.848300
C -13.483000 -14.290400 -59.672300
O -13.259800 -15.648000 -55.693600
C -13.066000 -14.802100 -58.466500
H -13.059500 -17.177000 -52.116100
H -12.896400 -13.159400 -61.397700
C -12.709100 -17.856500 -50.168000
C -12.612200 -13.593800 -60.491000
C -12.486500 -18.805600 -47.605200
N -12.486300 -17.397600 -51.451800
H -12.411600 -19.107900 -46.704800
C -12.020800 -15.616000 -55.774600
C -11.743600 -14.621600 -58.067800
C -11.457300 -18.108300 -49.594500
N -11.427600 -16.518300 -53.660300
C -11.321500 -18.587300 -48.305600
C -11.310500 -13.409700 -60.091100
N -11.288600 -15.145900 -56.834900
C -11.151100 -17.333000 -51.676800
C -11.016600 -16.030400 -54.805500
C -10.849400 -13.926500 -58.885600
H -10.658300 -12.914300 -60.648700
N -10.507900 -17.771900 -50.562400
N -10.499600 -16.884400 -52.759900
H -10.441800 -18.729100 -47.955200
N -9.894800 -15.243200 -56.603400
H -9.814100 -13.842600 -58.545400
C -9.740100 -15.772700 -55.419400
C -9.058300 -17.829800 -50.409600
H -8.763600 -18.692000 -50.040200
H -8.750600 -17.132500 -49.792600
H -8.640900 -17.726600 -51.312000
C -8.402800 -16.017800 -54.833600
H -8.281600 -16.954200 -54.528200
H -8.231100 -15.543200 -54.069600
H -7.718800 -15.832900 -55.521800
