41
Fragment
H -21.931300 -14.154500 -57.154400
H -21.785600 -15.008600 -59.367800
H -21.612400 -10.686400 -47.041100
C -21.086400 -14.346900 -57.552100
C -20.954100 -14.831800 -58.847400
H -20.914000 -11.555300 -49.153700
C -20.698200 -10.577300 -47.329700
O -20.475000 -11.934800 -51.308400
C -20.281200 -11.089000 -48.535500
H -20.274700 -13.463900 -54.885900
H -20.111600 -9.446300 -45.604300
C -19.924300 -14.143400 -56.834000
C -19.827400 -9.880700 -46.511000
C -19.701700 -15.092500 -59.396800
N -19.701500 -13.684400 -55.550200
H -19.626800 -15.394700 -60.297200
C -19.236000 -11.902900 -51.227400
C -18.958800 -10.908500 -48.934200
C -18.672500 -14.395100 -57.407500
N -18.642800 -12.805200 -53.341700
C -18.536700 -14.874100 -58.696400
C -18.525700 -9.696500 -46.910900
N -18.503800 -11.432800 -50.167100
C -18.366300 -13.619800 -55.325200
C -18.231800 -12.317300 -52.196500
C -18.064600 -10.213400 -48.116400
H -17.873500 -9.201200 -46.353300
N -17.723100 -14.058700 -56.439600
N -17.714800 -13.171300 -54.242100
H -17.657000 -15.016000 -59.046800
N -17.110000 -11.530100 -50.398600
H -17.029300 -10.129500 -48.456600
C -16.955300 -12.059600 -51.582600
C -16.273500 -14.116700 -56.592400
H -15.978800 -14.978800 -56.961800
H -15.965800 -13.419300 -57.209400
H -15.856100 -14.013400 -55.690000
C -15.618000 -12.304600 -52.168400
H -15.496800 -13.241100 -52.473800
H -15.446300 -11.830100 -52.932400
H -14.934000 -12.119700 -51.480200
41
Fragment
H -28.357200 -10.159200 -40.235800
H -27.844900 -10.448800 -38.783600
H -27.794400 -9.037800 -39.242200
C -27.673200 -9.974300 -39.547600
H -27.435100 -8.265500 -36.026000
H -27.325400 -8.859600 -34.506600
H -27.312400 -7.300100 -34.754200
C -27.017700 -8.162200 -35.123600
C -26.335900 -10.219300 -40.133400
H -26.261900 -12.149400 -43.259400
N -26.181200 -10.748800 -41.317400
H -25.634200 -7.262900 -32.669200
N -25.576400 -9.107600 -37.473900
N -25.568100 -8.220200 -35.276400
H -25.417700 -13.077700 -45.362700
C -25.226600 -12.065500 -43.599600
C -25.059400 -9.961600 -39.519500
C -24.924900 -8.659100 -36.390800
N -24.787400 -10.846100 -41.548900
C -24.765500 -12.582400 -44.805100
C -24.754500 -7.404800 -33.019600
N -24.648400 -9.473700 -38.374300
C -24.618700 -7.883800 -34.308500
C -24.332400 -11.370400 -42.781800
C -24.055200 -10.376000 -40.488600
H -23.664400 -6.884200 -31.418800
N -23.589700 -8.594500 -36.165800
C -23.589500 -7.186400 -32.319200
C -23.463800 -12.398200 -45.205000
C -23.366900 -8.135500 -34.882000
H -23.179600 -12.832600 -46.111700
H -23.016500 -8.815000 -36.830100
C -23.010000 -11.189900 -43.180500
O -22.816200 -10.344100 -40.407600
C -22.593000 -11.701600 -44.386300
H -22.377200 -10.723600 -42.562300
C -22.337100 -7.447100 -32.868600
C -22.204800 -7.932000 -34.163900
H -21.678800 -11.592500 -44.674900
H -21.505600 -7.270300 -32.348200
H -21.359900 -8.124400 -34.561600
82
Fragment
H -21.931300 -14.154500 -57.154400
H -21.785600 -15.008600 -59.367800
H -21.612400 -10.686400 -47.041100
C -21.086400 -14.346900 -57.552100
C -20.954100 -14.831800 -58.847400
H -20.914000 -11.555300 -49.153700
C -20.698200 -10.577300 -47.329700
O -20.475000 -11.934800 -51.308400
C -20.281200 -11.089000 -48.535500
H -20.274700 -13.463900 -54.885900
H -20.111600 -9.446300 -45.604300
C -19.924300 -14.143400 -56.834000
C -19.827400 -9.880700 -46.511000
C -19.701700 -15.092500 -59.396800
N -19.701500 -13.684400 -55.550200
H -19.626800 -15.394700 -60.297200
C -19.236000 -11.902900 -51.227400
C -18.958800 -10.908500 -48.934200
C -18.672500 -14.395100 -57.407500
N -18.642800 -12.805200 -53.341700
C -18.536700 -14.874100 -58.696400
C -18.525700 -9.696500 -46.910900
N -18.503800 -11.432800 -50.167100
C -18.366300 -13.619800 -55.325200
C -18.231800 -12.317300 -52.196500
C -18.064600 -10.213400 -48.116400
H -17.873500 -9.201200 -46.353300
N -17.723100 -14.058700 -56.439600
N -17.714800 -13.171300 -54.242100
H -17.657000 -15.016000 -59.046800
N -17.110000 -11.530100 -50.398600
H -17.029300 -10.129500 -48.456600
C -16.955300 -12.059600 -51.582600
C -16.273500 -14.116700 -56.592400
H -15.978800 -14.978800 -56.961800
H -15.965800 -13.419300 -57.209400
H -15.856100 -14.013400 -55.690000
C -15.618000 -12.304600 -52.168400
H -15.496800 -13.241100 -52.473800
H -15.446300 -11.830100 -52.932400
H -14.934000 -12.119700 -51.480200
H -28.357200 -10.159200 -40.235800
H -27.844900 -10.448800 -38.783600
H -27.794400 -9.037800 -39.242200
C -27.673200 -9.974300 -39.547600
H -27.435100 -8.265500 -36.026000
H -27.325400 -8.859600 -34.506600
H -27.312400 -7.300100 -34.754200
C -27.017700 -8.162200 -35.123600
C -26.335900 -10.219300 -40.133400
H -26.261900 -12.149400 -43.259400
N -26.181200 -10.748800 -41.317400
H -25.634200 -7.262900 -32.669200
N -25.576400 -9.107600 -37.473900
N -25.568100 -8.220200 -35.276400
H -25.417700 -13.077700 -45.362700
C -25.226600 -12.065500 -43.599600
C -25.059400 -9.961600 -39.519500
C -24.924900 -8.659100 -36.390800
N -24.787400 -10.846100 -41.548900
C -24.765500 -12.582400 -44.805100
C -24.754500 -7.404800 -33.019600
N -24.648400 -9.473700 -38.374300
C -24.618700 -7.883800 -34.308500
C -24.332400 -11.370400 -42.781800
C -24.055200 -10.376000 -40.488600
H -23.664400 -6.884200 -31.418800
N -23.589700 -8.594500 -36.165800
C -23.589500 -7.186400 -32.319200
C -23.463800 -12.398200 -45.205000
C -23.366900 -8.135500 -34.882000
H -23.179600 -12.832600 -46.111700
H -23.016500 -8.815000 -36.830100
C -23.010000 -11.189900 -43.180500
O -22.816200 -10.344100 -40.407600
C -22.593000 -11.701600 -44.386300
H -22.377200 -10.723600 -42.562300
C -22.337100 -7.447100 -32.868600
C -22.204800 -7.932000 -34.163900
H -21.678800 -11.592500 -44.674900
H -21.505600 -7.270300 -32.348200
H -21.359900 -8.124400 -34.561600
