41
Fragment
H -21.931300 -14.154500 -57.154400
H -21.785600 -15.008600 -59.367800
H -21.612400 -10.686400 -47.041100
C -21.086400 -14.346900 -57.552100
C -20.954100 -14.831800 -58.847400
H -20.914000 -11.555300 -49.153700
C -20.698200 -10.577300 -47.329700
O -20.475000 -11.934800 -51.308400
C -20.281200 -11.089000 -48.535500
H -20.274700 -13.463900 -54.885900
H -20.111600 -9.446300 -45.604300
C -19.924300 -14.143400 -56.834000
C -19.827400 -9.880700 -46.511000
C -19.701700 -15.092500 -59.396800
N -19.701500 -13.684400 -55.550200
H -19.626800 -15.394700 -60.297200
C -19.236000 -11.902900 -51.227400
C -18.958800 -10.908500 -48.934200
C -18.672500 -14.395100 -57.407500
N -18.642800 -12.805200 -53.341700
C -18.536700 -14.874100 -58.696400
C -18.525700 -9.696500 -46.910900
N -18.503800 -11.432800 -50.167100
C -18.366300 -13.619800 -55.325200
C -18.231800 -12.317300 -52.196500
C -18.064600 -10.213400 -48.116400
H -17.873500 -9.201200 -46.353300
N -17.723100 -14.058700 -56.439600
N -17.714800 -13.171300 -54.242100
H -17.657000 -15.016000 -59.046800
N -17.110000 -11.530100 -50.398600
H -17.029300 -10.129500 -48.456600
C -16.955300 -12.059600 -51.582600
C -16.273500 -14.116700 -56.592400
H -15.978800 -14.978800 -56.961800
H -15.965800 -13.419300 -57.209400
H -15.856100 -14.013400 -55.690000
C -15.618000 -12.304600 -52.168400
H -15.496800 -13.241100 -52.473800
H -15.446300 -11.830100 -52.932400
H -14.934000 -12.119700 -51.480200
41
Fragment
H -28.357200 -4.693400 -55.521800
H -27.844900 -4.403800 -54.069600
H -27.794400 -5.814800 -54.528200
C -27.673200 -4.878300 -54.833600
H -27.435100 -6.587100 -51.312000
H -27.325400 -5.993000 -49.792600
H -27.312400 -7.552500 -50.040200
C -27.017700 -6.690400 -50.409600
C -26.335900 -4.633300 -55.419400
H -26.261900 -2.703200 -58.545400
N -26.181200 -4.103800 -56.603400
H -25.634200 -7.589700 -47.955200
N -25.576400 -5.745000 -52.759900
N -25.568100 -6.632400 -50.562400
H -25.417700 -1.774900 -60.648700
C -25.226600 -2.787100 -58.885600
C -25.059400 -4.891000 -54.805500
C -24.924900 -6.193500 -51.676800
N -24.787400 -4.006500 -56.834900
C -24.765500 -2.270200 -60.091100
C -24.754500 -7.447800 -48.305600
N -24.648400 -5.378900 -53.660300
C -24.618700 -6.968800 -49.594500
C -24.332400 -3.482200 -58.067800
C -24.055200 -4.476600 -55.774600
H -23.664400 -7.968400 -46.704800
N -23.589700 -6.258100 -51.451800
C -23.589500 -7.666200 -47.605200
C -23.463800 -2.454400 -60.491000
C -23.366900 -6.717100 -50.168000
H -23.179600 -2.020000 -61.397700
H -23.016500 -6.037600 -52.116100
C -23.010000 -3.662700 -58.466500
O -22.816200 -4.508500 -55.693600
C -22.593000 -3.151000 -59.672300
H -22.377200 -4.129000 -57.848300
C -22.337100 -7.405500 -48.154600
C -22.204800 -6.920600 -49.449900
H -21.678800 -3.260100 -59.960900
H -21.505600 -7.582300 -47.634200
H -21.359900 -6.728200 -49.847600
82
Fragment
H -21.931300 -14.154500 -57.154400
H -21.785600 -15.008600 -59.367800
H -21.612400 -10.686400 -47.041100
C -21.086400 -14.346900 -57.552100
C -20.954100 -14.831800 -58.847400
H -20.914000 -11.555300 -49.153700
C -20.698200 -10.577300 -47.329700
O -20.475000 -11.934800 -51.308400
C -20.281200 -11.089000 -48.535500
H -20.274700 -13.463900 -54.885900
H -20.111600 -9.446300 -45.604300
C -19.924300 -14.143400 -56.834000
C -19.827400 -9.880700 -46.511000
C -19.701700 -15.092500 -59.396800
N -19.701500 -13.684400 -55.550200
H -19.626800 -15.394700 -60.297200
C -19.236000 -11.902900 -51.227400
C -18.958800 -10.908500 -48.934200
C -18.672500 -14.395100 -57.407500
N -18.642800 -12.805200 -53.341700
C -18.536700 -14.874100 -58.696400
C -18.525700 -9.696500 -46.910900
N -18.503800 -11.432800 -50.167100
C -18.366300 -13.619800 -55.325200
C -18.231800 -12.317300 -52.196500
C -18.064600 -10.213400 -48.116400
H -17.873500 -9.201200 -46.353300
N -17.723100 -14.058700 -56.439600
N -17.714800 -13.171300 -54.242100
H -17.657000 -15.016000 -59.046800
N -17.110000 -11.530100 -50.398600
H -17.029300 -10.129500 -48.456600
C -16.955300 -12.059600 -51.582600
C -16.273500 -14.116700 -56.592400
H -15.978800 -14.978800 -56.961800
H -15.965800 -13.419300 -57.209400
H -15.856100 -14.013400 -55.690000
C -15.618000 -12.304600 -52.168400
H -15.496800 -13.241100 -52.473800
H -15.446300 -11.830100 -52.932400
H -14.934000 -12.119700 -51.480200
H -28.357200 -4.693400 -55.521800
H -27.844900 -4.403800 -54.069600
H -27.794400 -5.814800 -54.528200
C -27.673200 -4.878300 -54.833600
H -27.435100 -6.587100 -51.312000
H -27.325400 -5.993000 -49.792600
H -27.312400 -7.552500 -50.040200
C -27.017700 -6.690400 -50.409600
C -26.335900 -4.633300 -55.419400
H -26.261900 -2.703200 -58.545400
N -26.181200 -4.103800 -56.603400
H -25.634200 -7.589700 -47.955200
N -25.576400 -5.745000 -52.759900
N -25.568100 -6.632400 -50.562400
H -25.417700 -1.774900 -60.648700
C -25.226600 -2.787100 -58.885600
C -25.059400 -4.891000 -54.805500
C -24.924900 -6.193500 -51.676800
N -24.787400 -4.006500 -56.834900
C -24.765500 -2.270200 -60.091100
C -24.754500 -7.447800 -48.305600
N -24.648400 -5.378900 -53.660300
C -24.618700 -6.968800 -49.594500
C -24.332400 -3.482200 -58.067800
C -24.055200 -4.476600 -55.774600
H -23.664400 -7.968400 -46.704800
N -23.589700 -6.258100 -51.451800
C -23.589500 -7.666200 -47.605200
C -23.463800 -2.454400 -60.491000
C -23.366900 -6.717100 -50.168000
H -23.179600 -2.020000 -61.397700
H -23.016500 -6.037600 -52.116100
C -23.010000 -3.662700 -58.466500
O -22.816200 -4.508500 -55.693600
C -22.593000 -3.151000 -59.672300
H -22.377200 -4.129000 -57.848300
C -22.337100 -7.405500 -48.154600
C -22.204800 -6.920600 -49.449900
H -21.678800 -3.260100 -59.960900
H -21.505600 -7.582300 -47.634200
H -21.359900 -6.728200 -49.847600
