41
Fragment
H -21.931300 -14.154500 -57.154400
H -21.785600 -15.008600 -59.367800
H -21.612400 -10.686400 -47.041100
C -21.086400 -14.346900 -57.552100
C -20.954100 -14.831800 -58.847400
H -20.914000 -11.555300 -49.153700
C -20.698200 -10.577300 -47.329700
O -20.475000 -11.934800 -51.308400
C -20.281200 -11.089000 -48.535500
H -20.274700 -13.463900 -54.885900
H -20.111600 -9.446300 -45.604300
C -19.924300 -14.143400 -56.834000
C -19.827400 -9.880700 -46.511000
C -19.701700 -15.092500 -59.396800
N -19.701500 -13.684400 -55.550200
H -19.626800 -15.394700 -60.297200
C -19.236000 -11.902900 -51.227400
C -18.958800 -10.908500 -48.934200
C -18.672500 -14.395100 -57.407500
N -18.642800 -12.805200 -53.341700
C -18.536700 -14.874100 -58.696400
C -18.525700 -9.696500 -46.910900
N -18.503800 -11.432800 -50.167100
C -18.366300 -13.619800 -55.325200
C -18.231800 -12.317300 -52.196500
C -18.064600 -10.213400 -48.116400
H -17.873500 -9.201200 -46.353300
N -17.723100 -14.058700 -56.439600
N -17.714800 -13.171300 -54.242100
H -17.657000 -15.016000 -59.046800
N -17.110000 -11.530100 -50.398600
H -17.029300 -10.129500 -48.456600
C -16.955300 -12.059600 -51.582600
C -16.273500 -14.116700 -56.592400
H -15.978800 -14.978800 -56.961800
H -15.965800 -13.419300 -57.209400
H -15.856100 -14.013400 -55.690000
C -15.618000 -12.304600 -52.168400
H -15.496800 -13.241100 -52.473800
H -15.446300 -11.830100 -52.932400
H -14.934000 -12.119700 -51.480200
41
Fragment
H -21.142000 -13.872300 -36.194200
H -20.629700 -14.162000 -37.646400
H -20.579200 -12.751000 -37.187800
C -20.458000 -13.687400 -36.882400
H -20.219900 -11.978600 -40.404000
H -20.110200 -12.572700 -41.923400
H -20.097200 -11.013200 -41.675800
C -19.802500 -11.875400 -41.306400
C -19.120700 -13.932500 -36.296600
H -19.046700 -15.862600 -33.170600
N -18.966000 -14.462000 -35.112600
H -18.419000 -10.976100 -43.760800
N -18.361200 -12.820800 -38.956100
N -18.352900 -11.933300 -41.153600
H -18.202500 -16.790900 -31.067300
C -18.011400 -15.778700 -32.830400
C -17.844200 -13.674800 -36.910500
C -17.709700 -12.372200 -40.039200
N -17.572200 -14.559300 -34.881100
C -17.550300 -16.295500 -31.624900
C -17.539300 -11.117900 -43.410400
N -17.433200 -13.186900 -38.055700
C -17.403500 -11.596900 -42.121500
C -17.117200 -15.083600 -33.648200
C -16.840000 -14.089200 -35.941400
H -16.449200 -10.597300 -45.011200
N -16.374500 -12.307600 -40.264200
C -16.374300 -10.899600 -44.110800
C -16.248600 -16.111400 -31.225000
C -16.151700 -11.848700 -41.548000
H -15.964400 -16.545800 -30.318300
H -15.801300 -12.528200 -39.599900
C -15.794800 -14.903100 -33.249500
O -15.601000 -14.057200 -36.022400
C -15.377800 -15.414800 -32.043700
H -15.162000 -14.436700 -33.867700
C -15.121900 -11.160200 -43.561400
C -14.989600 -11.645200 -42.266100
H -14.463600 -15.305600 -31.755100
H -14.290400 -10.983500 -44.081800
H -14.144700 -11.837500 -41.868400
82
Fragment
H -21.931300 -14.154500 -57.154400
H -21.785600 -15.008600 -59.367800
H -21.612400 -10.686400 -47.041100
C -21.086400 -14.346900 -57.552100
C -20.954100 -14.831800 -58.847400
H -20.914000 -11.555300 -49.153700
C -20.698200 -10.577300 -47.329700
O -20.475000 -11.934800 -51.308400
C -20.281200 -11.089000 -48.535500
H -20.274700 -13.463900 -54.885900
H -20.111600 -9.446300 -45.604300
C -19.924300 -14.143400 -56.834000
C -19.827400 -9.880700 -46.511000
C -19.701700 -15.092500 -59.396800
N -19.701500 -13.684400 -55.550200
H -19.626800 -15.394700 -60.297200
C -19.236000 -11.902900 -51.227400
C -18.958800 -10.908500 -48.934200
C -18.672500 -14.395100 -57.407500
N -18.642800 -12.805200 -53.341700
C -18.536700 -14.874100 -58.696400
C -18.525700 -9.696500 -46.910900
N -18.503800 -11.432800 -50.167100
C -18.366300 -13.619800 -55.325200
C -18.231800 -12.317300 -52.196500
C -18.064600 -10.213400 -48.116400
H -17.873500 -9.201200 -46.353300
N -17.723100 -14.058700 -56.439600
N -17.714800 -13.171300 -54.242100
H -17.657000 -15.016000 -59.046800
N -17.110000 -11.530100 -50.398600
H -17.029300 -10.129500 -48.456600
C -16.955300 -12.059600 -51.582600
C -16.273500 -14.116700 -56.592400
H -15.978800 -14.978800 -56.961800
H -15.965800 -13.419300 -57.209400
H -15.856100 -14.013400 -55.690000
C -15.618000 -12.304600 -52.168400
H -15.496800 -13.241100 -52.473800
H -15.446300 -11.830100 -52.932400
H -14.934000 -12.119700 -51.480200
H -21.142000 -13.872300 -36.194200
H -20.629700 -14.162000 -37.646400
H -20.579200 -12.751000 -37.187800
C -20.458000 -13.687400 -36.882400
H -20.219900 -11.978600 -40.404000
H -20.110200 -12.572700 -41.923400
H -20.097200 -11.013200 -41.675800
C -19.802500 -11.875400 -41.306400
C -19.120700 -13.932500 -36.296600
H -19.046700 -15.862600 -33.170600
N -18.966000 -14.462000 -35.112600
H -18.419000 -10.976100 -43.760800
N -18.361200 -12.820800 -38.956100
N -18.352900 -11.933300 -41.153600
H -18.202500 -16.790900 -31.067300
C -18.011400 -15.778700 -32.830400
C -17.844200 -13.674800 -36.910500
C -17.709700 -12.372200 -40.039200
N -17.572200 -14.559300 -34.881100
C -17.550300 -16.295500 -31.624900
C -17.539300 -11.117900 -43.410400
N -17.433200 -13.186900 -38.055700
C -17.403500 -11.596900 -42.121500
C -17.117200 -15.083600 -33.648200
C -16.840000 -14.089200 -35.941400
H -16.449200 -10.597300 -45.011200
N -16.374500 -12.307600 -40.264200
C -16.374300 -10.899600 -44.110800
C -16.248600 -16.111400 -31.225000
C -16.151700 -11.848700 -41.548000
H -15.964400 -16.545800 -30.318300
H -15.801300 -12.528200 -39.599900
C -15.794800 -14.903100 -33.249500
O -15.601000 -14.057200 -36.022400
C -15.377800 -15.414800 -32.043700
H -15.162000 -14.436700 -33.867700
C -15.121900 -11.160200 -43.561400
C -14.989600 -11.645200 -42.266100
H -14.463600 -15.305600 -31.755100
H -14.290400 -10.983500 -44.081800
H -14.144700 -11.837500 -41.868400
