25
Fragment
H -25.992100 -9.853100 -26.883400
H -25.594200 -9.624500 -28.492000
C -25.257300 -9.749500 -27.564200
H -24.705700 -10.597300 -27.591100
H -24.572500 -10.389400 -25.243200
O -24.446200 -8.626900 -27.235300
C -23.983800 -9.623000 -25.062300
C -23.813400 -8.641400 -26.020000
H -23.402800 -10.243300 -23.186500
C -23.299100 -9.532800 -23.858300
C -22.946200 -7.583700 -25.772500
H -22.820500 -6.894300 -26.465500
C -22.432400 -8.478000 -23.585300
H -22.275600 -10.127400 -21.155700
C -22.272800 -7.500800 -24.571300
C -21.796900 -9.301400 -21.224500
C -21.739600 -8.424600 -22.290800
H -21.658900 -6.742100 -24.397200
H -21.306500 -9.878100 -18.673700
C -20.928600 -8.774200 -20.270100
N -20.892300 -7.440800 -21.941600
N -20.584700 -9.337300 -19.036800
H -20.543700 -6.775500 -22.470100
N -20.371500 -7.646400 -20.689200
H -20.180200 -8.761400 -18.418600
25
Fragment
H -25.837200 -9.660100 -34.090000
H -25.439300 -9.888700 -35.698500
C -25.102500 -9.763700 -34.770800
H -24.550900 -8.915900 -34.797700
H -24.417700 -9.123800 -32.449800
O -24.291400 -10.886300 -34.441900
C -23.828900 -9.890200 -32.268900
C -23.658600 -10.871800 -33.226500
H -23.248000 -9.269900 -30.393100
C -23.144200 -9.980400 -31.064900
C -22.791400 -11.929500 -32.979100
H -22.665700 -12.618900 -33.672100
C -22.277600 -11.035200 -30.791900
H -22.120700 -9.385800 -28.362200
C -22.117900 -12.012400 -31.777900
C -21.642000 -10.211800 -28.431100
C -21.584700 -11.088600 -29.497400
H -21.504000 -12.771100 -31.603800
H -21.151600 -9.635100 -25.880300
C -20.773800 -10.739000 -27.476700
N -20.737400 -12.072400 -29.148200
N -20.429800 -10.175900 -26.243400
H -20.388900 -12.737700 -29.676700
N -20.216700 -11.866800 -27.895800
H -20.025300 -10.751800 -25.625200
50
Fragment
H -25.992100 -9.853100 -26.883400
H -25.594200 -9.624500 -28.492000
C -25.257300 -9.749500 -27.564200
H -24.705700 -10.597300 -27.591100
H -24.572500 -10.389400 -25.243200
O -24.446200 -8.626900 -27.235300
C -23.983800 -9.623000 -25.062300
C -23.813400 -8.641400 -26.020000
H -23.402800 -10.243300 -23.186500
C -23.299100 -9.532800 -23.858300
C -22.946200 -7.583700 -25.772500
H -22.820500 -6.894300 -26.465500
C -22.432400 -8.478000 -23.585300
H -22.275600 -10.127400 -21.155700
C -22.272800 -7.500800 -24.571300
C -21.796900 -9.301400 -21.224500
C -21.739600 -8.424600 -22.290800
H -21.658900 -6.742100 -24.397200
H -21.306500 -9.878100 -18.673700
C -20.928600 -8.774200 -20.270100
N -20.892300 -7.440800 -21.941600
N -20.584700 -9.337300 -19.036800
H -20.543700 -6.775500 -22.470100
N -20.371500 -7.646400 -20.689200
H -20.180200 -8.761400 -18.418600
H -25.837200 -9.660100 -34.090000
H -25.439300 -9.888700 -35.698500
C -25.102500 -9.763700 -34.770800
H -24.550900 -8.915900 -34.797700
H -24.417700 -9.123800 -32.449800
O -24.291400 -10.886300 -34.441900
C -23.828900 -9.890200 -32.268900
C -23.658600 -10.871800 -33.226500
H -23.248000 -9.269900 -30.393100
C -23.144200 -9.980400 -31.064900
C -22.791400 -11.929500 -32.979100
H -22.665700 -12.618900 -33.672100
C -22.277600 -11.035200 -30.791900
H -22.120700 -9.385800 -28.362200
C -22.117900 -12.012400 -31.777900
C -21.642000 -10.211800 -28.431100
C -21.584700 -11.088600 -29.497400
H -21.504000 -12.771100 -31.603800
H -21.151600 -9.635100 -25.880300
C -20.773800 -10.739000 -27.476700
N -20.737400 -12.072400 -29.148200
N -20.429800 -10.175900 -26.243400
H -20.388900 -12.737700 -29.676700
N -20.216700 -11.866800 -27.895800
H -20.025300 -10.751800 -25.625200
