25
Fragment
H -25.992100 -9.853100 -26.883400
H -25.594200 -9.624500 -28.492000
C -25.257300 -9.749500 -27.564200
H -24.705700 -10.597300 -27.591100
H -24.572500 -10.389400 -25.243200
O -24.446200 -8.626900 -27.235300
C -23.983800 -9.623000 -25.062300
C -23.813400 -8.641400 -26.020000
H -23.402800 -10.243300 -23.186500
C -23.299100 -9.532800 -23.858300
C -22.946200 -7.583700 -25.772500
H -22.820500 -6.894300 -26.465500
C -22.432400 -8.478000 -23.585300
H -22.275600 -10.127400 -21.155700
C -22.272800 -7.500800 -24.571300
C -21.796900 -9.301400 -21.224500
C -21.739600 -8.424600 -22.290800
H -21.658900 -6.742100 -24.397200
H -21.306500 -9.878100 -18.673700
C -20.928600 -8.774200 -20.270100
N -20.892300 -7.440800 -21.941600
N -20.584700 -9.337300 -19.036800
H -20.543700 -6.775500 -22.470100
N -20.371500 -7.646400 -20.689200
H -20.180200 -8.761400 -18.418600
25
Fragment
H -30.678600 -7.964200 -39.234100
N -30.487200 -9.079200 -36.963400
H -30.315000 -9.950100 -35.182600
N -30.274000 -7.388300 -38.615900
N -29.966400 -9.284800 -35.711100
C -29.930100 -7.951400 -37.382600
H -29.552200 -6.847500 -38.979000
H -29.199800 -9.983500 -33.255500
C -29.119100 -8.301000 -35.361900
C -29.061900 -7.424200 -36.428100
C -28.586000 -9.224800 -33.081400
H -28.583200 -6.598200 -36.497000
C -28.426300 -8.247600 -34.067400
H -28.038200 -9.831300 -31.187200
C -27.912500 -9.141900 -31.880200
C -27.559700 -7.192800 -33.794400
H -27.455900 -6.482300 -34.466200
C -27.045300 -8.084200 -31.632700
C -26.874900 -7.102600 -32.590300
O -26.412500 -8.098700 -30.417400
H -26.286200 -6.336200 -32.409500
H -26.153000 -6.128300 -30.061600
C -25.601400 -6.976100 -30.088500
H -25.264600 -7.101100 -29.160700
H -24.866600 -6.872500 -30.769200
50
Fragment
H -25.992100 -9.853100 -26.883400
H -25.594200 -9.624500 -28.492000
C -25.257300 -9.749500 -27.564200
H -24.705700 -10.597300 -27.591100
H -24.572500 -10.389400 -25.243200
O -24.446200 -8.626900 -27.235300
C -23.983800 -9.623000 -25.062300
C -23.813400 -8.641400 -26.020000
H -23.402800 -10.243300 -23.186500
C -23.299100 -9.532800 -23.858300
C -22.946200 -7.583700 -25.772500
H -22.820500 -6.894300 -26.465500
C -22.432400 -8.478000 -23.585300
H -22.275600 -10.127400 -21.155700
C -22.272800 -7.500800 -24.571300
C -21.796900 -9.301400 -21.224500
C -21.739600 -8.424600 -22.290800
H -21.658900 -6.742100 -24.397200
H -21.306500 -9.878100 -18.673700
C -20.928600 -8.774200 -20.270100
N -20.892300 -7.440800 -21.941600
N -20.584700 -9.337300 -19.036800
H -20.543700 -6.775500 -22.470100
N -20.371500 -7.646400 -20.689200
H -20.180200 -8.761400 -18.418600
H -30.678600 -7.964200 -39.234100
N -30.487200 -9.079200 -36.963400
H -30.315000 -9.950100 -35.182600
N -30.274000 -7.388300 -38.615900
N -29.966400 -9.284800 -35.711100
C -29.930100 -7.951400 -37.382600
H -29.552200 -6.847500 -38.979000
H -29.199800 -9.983500 -33.255500
C -29.119100 -8.301000 -35.361900
C -29.061900 -7.424200 -36.428100
C -28.586000 -9.224800 -33.081400
H -28.583200 -6.598200 -36.497000
C -28.426300 -8.247600 -34.067400
H -28.038200 -9.831300 -31.187200
C -27.912500 -9.141900 -31.880200
C -27.559700 -7.192800 -33.794400
H -27.455900 -6.482300 -34.466200
C -27.045300 -8.084200 -31.632700
C -26.874900 -7.102600 -32.590300
O -26.412500 -8.098700 -30.417400
H -26.286200 -6.336200 -32.409500
H -26.153000 -6.128300 -30.061600
C -25.601400 -6.976100 -30.088500
H -25.264600 -7.101100 -29.160700
H -24.866600 -6.872500 -30.769200
