25
Fragment
H -25.992100 -9.853100 -26.883400
H -25.594200 -9.624500 -28.492000
C -25.257300 -9.749500 -27.564200
H -24.705700 -10.597300 -27.591100
H -24.572500 -10.389400 -25.243200
O -24.446200 -8.626900 -27.235300
C -23.983800 -9.623000 -25.062300
C -23.813400 -8.641400 -26.020000
H -23.402800 -10.243300 -23.186500
C -23.299100 -9.532800 -23.858300
C -22.946200 -7.583700 -25.772500
H -22.820500 -6.894300 -26.465500
C -22.432400 -8.478000 -23.585300
H -22.275600 -10.127400 -21.155700
C -22.272800 -7.500800 -24.571300
C -21.796900 -9.301400 -21.224500
C -21.739600 -8.424600 -22.290800
H -21.658900 -6.742100 -24.397200
H -21.306500 -9.878100 -18.673700
C -20.928600 -8.774200 -20.270100
N -20.892300 -7.440800 -21.941600
N -20.584700 -9.337300 -19.036800
H -20.543700 -6.775500 -22.470100
N -20.371500 -7.646400 -20.689200
H -20.180200 -8.761400 -18.418600
25
Fragment
H -25.992100 -15.428300 -26.883400
H -25.594200 -15.199700 -28.492000
C -25.257300 -15.324700 -27.564200
H -24.705700 -16.172500 -27.591100
H -24.572500 -15.964600 -25.243200
O -24.446200 -14.202100 -27.235300
C -23.983800 -15.198200 -25.062300
C -23.813400 -14.216600 -26.020000
H -23.402800 -15.818500 -23.186500
C -23.299100 -15.108000 -23.858300
C -22.946200 -13.158900 -25.772500
H -22.820500 -12.469500 -26.465500
C -22.432400 -14.053200 -23.585300
H -22.275600 -15.702600 -21.155700
C -22.272800 -13.076000 -24.571300
C -21.796900 -14.876600 -21.224500
C -21.739600 -13.999800 -22.290800
H -21.658900 -12.317300 -24.397200
H -21.306500 -15.453300 -18.673700
C -20.928600 -14.349400 -20.270100
N -20.892300 -13.016000 -21.941600
N -20.584700 -14.912500 -19.036800
H -20.543700 -12.350700 -22.470100
N -20.371500 -13.221600 -20.689200
H -20.180200 -14.336600 -18.418600
50
Fragment
H -25.992100 -9.853100 -26.883400
H -25.594200 -9.624500 -28.492000
C -25.257300 -9.749500 -27.564200
H -24.705700 -10.597300 -27.591100
H -24.572500 -10.389400 -25.243200
O -24.446200 -8.626900 -27.235300
C -23.983800 -9.623000 -25.062300
C -23.813400 -8.641400 -26.020000
H -23.402800 -10.243300 -23.186500
C -23.299100 -9.532800 -23.858300
C -22.946200 -7.583700 -25.772500
H -22.820500 -6.894300 -26.465500
C -22.432400 -8.478000 -23.585300
H -22.275600 -10.127400 -21.155700
C -22.272800 -7.500800 -24.571300
C -21.796900 -9.301400 -21.224500
C -21.739600 -8.424600 -22.290800
H -21.658900 -6.742100 -24.397200
H -21.306500 -9.878100 -18.673700
C -20.928600 -8.774200 -20.270100
N -20.892300 -7.440800 -21.941600
N -20.584700 -9.337300 -19.036800
H -20.543700 -6.775500 -22.470100
N -20.371500 -7.646400 -20.689200
H -20.180200 -8.761400 -18.418600
H -25.992100 -15.428300 -26.883400
H -25.594200 -15.199700 -28.492000
C -25.257300 -15.324700 -27.564200
H -24.705700 -16.172500 -27.591100
H -24.572500 -15.964600 -25.243200
O -24.446200 -14.202100 -27.235300
C -23.983800 -15.198200 -25.062300
C -23.813400 -14.216600 -26.020000
H -23.402800 -15.818500 -23.186500
C -23.299100 -15.108000 -23.858300
C -22.946200 -13.158900 -25.772500
H -22.820500 -12.469500 -26.465500
C -22.432400 -14.053200 -23.585300
H -22.275600 -15.702600 -21.155700
C -22.272800 -13.076000 -24.571300
C -21.796900 -14.876600 -21.224500
C -21.739600 -13.999800 -22.290800
H -21.658900 -12.317300 -24.397200
H -21.306500 -15.453300 -18.673700
C -20.928600 -14.349400 -20.270100
N -20.892300 -13.016000 -21.941600
N -20.584700 -14.912500 -19.036800
H -20.543700 -12.350700 -22.470100
N -20.371500 -13.221600 -20.689200
H -20.180200 -14.336600 -18.418600
