25
Fragment
H -25.992100 -9.853100 -26.883400
H -25.594200 -9.624500 -28.492000
C -25.257300 -9.749500 -27.564200
H -24.705700 -10.597300 -27.591100
H -24.572500 -10.389400 -25.243200
O -24.446200 -8.626900 -27.235300
C -23.983800 -9.623000 -25.062300
C -23.813400 -8.641400 -26.020000
H -23.402800 -10.243300 -23.186500
C -23.299100 -9.532800 -23.858300
C -22.946200 -7.583700 -25.772500
H -22.820500 -6.894300 -26.465500
C -22.432400 -8.478000 -23.585300
H -22.275600 -10.127400 -21.155700
C -22.272800 -7.500800 -24.571300
C -21.796900 -9.301400 -21.224500
C -21.739600 -8.424600 -22.290800
H -21.658900 -6.742100 -24.397200
H -21.306500 -9.878100 -18.673700
C -20.928600 -8.774200 -20.270100
N -20.892300 -7.440800 -21.941600
N -20.584700 -9.337300 -19.036800
H -20.543700 -6.775500 -22.470100
N -20.371500 -7.646400 -20.689200
H -20.180200 -8.761400 -18.418600
25
Fragment
H -26.147000 -9.660100 -19.676900
H -25.749000 -9.888700 -21.285400
C -25.412200 -9.763700 -20.357600
H -24.860600 -8.915900 -20.384600
H -24.727400 -9.123800 -18.036600
O -24.601100 -10.886300 -20.028700
C -24.138700 -9.890200 -17.855800
C -23.968300 -10.871800 -18.813400
H -23.557700 -9.269900 -15.979900
C -23.453900 -9.980400 -16.651700
C -23.101100 -11.929500 -18.565900
H -22.975400 -12.618900 -19.258900
C -22.587300 -11.035200 -16.378700
H -22.430400 -9.385800 -13.949100
C -22.427600 -12.012400 -17.364700
C -21.951700 -10.211800 -14.018000
C -21.894400 -11.088600 -15.084300
H -21.813800 -12.771100 -17.190600
H -21.461400 -9.635100 -11.467100
C -21.083500 -10.739000 -13.063500
N -21.047200 -12.072400 -14.735000
N -20.739600 -10.175900 -11.830200
H -20.698600 -12.737700 -15.263500
N -20.526400 -11.866800 -13.482700
H -20.335000 -10.751800 -11.212000
50
Fragment
H -25.992100 -9.853100 -26.883400
H -25.594200 -9.624500 -28.492000
C -25.257300 -9.749500 -27.564200
H -24.705700 -10.597300 -27.591100
H -24.572500 -10.389400 -25.243200
O -24.446200 -8.626900 -27.235300
C -23.983800 -9.623000 -25.062300
C -23.813400 -8.641400 -26.020000
H -23.402800 -10.243300 -23.186500
C -23.299100 -9.532800 -23.858300
C -22.946200 -7.583700 -25.772500
H -22.820500 -6.894300 -26.465500
C -22.432400 -8.478000 -23.585300
H -22.275600 -10.127400 -21.155700
C -22.272800 -7.500800 -24.571300
C -21.796900 -9.301400 -21.224500
C -21.739600 -8.424600 -22.290800
H -21.658900 -6.742100 -24.397200
H -21.306500 -9.878100 -18.673700
C -20.928600 -8.774200 -20.270100
N -20.892300 -7.440800 -21.941600
N -20.584700 -9.337300 -19.036800
H -20.543700 -6.775500 -22.470100
N -20.371500 -7.646400 -20.689200
H -20.180200 -8.761400 -18.418600
H -26.147000 -9.660100 -19.676900
H -25.749000 -9.888700 -21.285400
C -25.412200 -9.763700 -20.357600
H -24.860600 -8.915900 -20.384600
H -24.727400 -9.123800 -18.036600
O -24.601100 -10.886300 -20.028700
C -24.138700 -9.890200 -17.855800
C -23.968300 -10.871800 -18.813400
H -23.557700 -9.269900 -15.979900
C -23.453900 -9.980400 -16.651700
C -23.101100 -11.929500 -18.565900
H -22.975400 -12.618900 -19.258900
C -22.587300 -11.035200 -16.378700
H -22.430400 -9.385800 -13.949100
C -22.427600 -12.012400 -17.364700
C -21.951700 -10.211800 -14.018000
C -21.894400 -11.088600 -15.084300
H -21.813800 -12.771100 -17.190600
H -21.461400 -9.635100 -11.467100
C -21.083500 -10.739000 -13.063500
N -21.047200 -12.072400 -14.735000
N -20.739600 -10.175900 -11.830200
H -20.698600 -12.737700 -15.263500
N -20.526400 -11.866800 -13.482700
H -20.335000 -10.751800 -11.212000
