25
Fragment
H -25.992100 -9.853100 -26.883400
H -25.594200 -9.624500 -28.492000
C -25.257300 -9.749500 -27.564200
H -24.705700 -10.597300 -27.591100
H -24.572500 -10.389400 -25.243200
O -24.446200 -8.626900 -27.235300
C -23.983800 -9.623000 -25.062300
C -23.813400 -8.641400 -26.020000
H -23.402800 -10.243300 -23.186500
C -23.299100 -9.532800 -23.858300
C -22.946200 -7.583700 -25.772500
H -22.820500 -6.894300 -26.465500
C -22.432400 -8.478000 -23.585300
H -22.275600 -10.127400 -21.155700
C -22.272800 -7.500800 -24.571300
C -21.796900 -9.301400 -21.224500
C -21.739600 -8.424600 -22.290800
H -21.658900 -6.742100 -24.397200
H -21.306500 -9.878100 -18.673700
C -20.928600 -8.774200 -20.270100
N -20.892300 -7.440800 -21.941600
N -20.584700 -9.337300 -19.036800
H -20.543700 -6.775500 -22.470100
N -20.371500 -7.646400 -20.689200
H -20.180200 -8.761400 -18.418600
25
Fragment
H -30.833400 -11.549000 -32.027500
N -30.642100 -10.434000 -29.756900
H -30.469900 -9.563100 -27.976000
N -30.428900 -12.124900 -31.409300
N -30.121300 -10.228400 -28.504500
C -30.085000 -11.561800 -30.176000
H -29.707100 -12.665700 -31.772400
H -29.354700 -9.529700 -26.048900
C -29.274000 -11.212200 -28.155300
C -29.216700 -12.089000 -29.221600
C -28.740800 -10.288400 -25.874800
H -28.738000 -12.915000 -29.290400
C -28.581200 -11.265600 -26.860800
H -28.193100 -9.681900 -23.980600
C -28.067400 -10.371300 -24.673600
C -27.714500 -12.320400 -26.587800
H -27.610800 -13.030900 -27.259600
C -27.200200 -11.429000 -24.426100
C -27.029800 -12.410600 -25.383800
O -26.567400 -11.414500 -23.210800
H -26.441100 -13.177000 -25.202900
H -26.307900 -13.384900 -22.855000
C -25.756200 -12.537100 -22.881900
H -25.419400 -12.412100 -21.954100
H -25.021500 -12.640700 -23.562700
50
Fragment
H -25.992100 -9.853100 -26.883400
H -25.594200 -9.624500 -28.492000
C -25.257300 -9.749500 -27.564200
H -24.705700 -10.597300 -27.591100
H -24.572500 -10.389400 -25.243200
O -24.446200 -8.626900 -27.235300
C -23.983800 -9.623000 -25.062300
C -23.813400 -8.641400 -26.020000
H -23.402800 -10.243300 -23.186500
C -23.299100 -9.532800 -23.858300
C -22.946200 -7.583700 -25.772500
H -22.820500 -6.894300 -26.465500
C -22.432400 -8.478000 -23.585300
H -22.275600 -10.127400 -21.155700
C -22.272800 -7.500800 -24.571300
C -21.796900 -9.301400 -21.224500
C -21.739600 -8.424600 -22.290800
H -21.658900 -6.742100 -24.397200
H -21.306500 -9.878100 -18.673700
C -20.928600 -8.774200 -20.270100
N -20.892300 -7.440800 -21.941600
N -20.584700 -9.337300 -19.036800
H -20.543700 -6.775500 -22.470100
N -20.371500 -7.646400 -20.689200
H -20.180200 -8.761400 -18.418600
H -30.833400 -11.549000 -32.027500
N -30.642100 -10.434000 -29.756900
H -30.469900 -9.563100 -27.976000
N -30.428900 -12.124900 -31.409300
N -30.121300 -10.228400 -28.504500
C -30.085000 -11.561800 -30.176000
H -29.707100 -12.665700 -31.772400
H -29.354700 -9.529700 -26.048900
C -29.274000 -11.212200 -28.155300
C -29.216700 -12.089000 -29.221600
C -28.740800 -10.288400 -25.874800
H -28.738000 -12.915000 -29.290400
C -28.581200 -11.265600 -26.860800
H -28.193100 -9.681900 -23.980600
C -28.067400 -10.371300 -24.673600
C -27.714500 -12.320400 -26.587800
H -27.610800 -13.030900 -27.259600
C -27.200200 -11.429000 -24.426100
C -27.029800 -12.410600 -25.383800
O -26.567400 -11.414500 -23.210800
H -26.441100 -13.177000 -25.202900
H -26.307900 -13.384900 -22.855000
C -25.756200 -12.537100 -22.881900
H -25.419400 -12.412100 -21.954100
H -25.021500 -12.640700 -23.562700
