16
Fragment
O -2.473800 -11.706400 -14.000100
H -2.412700 -9.521400 -13.389600
H -2.349500 -13.029800 -15.285400
C -2.249300 -10.707800 -14.689600
O -2.247200 -9.498300 -14.212400
O -2.207000 -13.205500 -16.093800
C -1.965600 -10.800800 -16.149300
C -1.959600 -12.068000 -16.760000
C -1.713500 -9.652700 -16.900900
H -1.706400 -8.802600 -16.477000
C -1.705000 -12.144300 -18.119600
H -1.691000 -12.991400 -18.548800
C -1.473400 -9.744500 -18.253600
C -1.471000 -10.997100 -18.858900
H -1.311100 -8.962600 -18.766900
H -1.306500 -11.066500 -19.791900
16
Fragment
H -1.725700 -14.360100 -20.831900
H -1.721100 -16.464100 -21.857000
C -1.561100 -14.429600 -21.764900
C -1.558800 -15.682100 -22.370200
H -1.341100 -12.435300 -22.075000
C -1.327100 -13.282300 -22.504200
H -1.325800 -16.624100 -24.146800
C -1.318600 -15.774000 -23.723000
C -1.072500 -13.358600 -23.863800
C -1.066500 -14.625900 -24.474500
O -0.825200 -12.221200 -24.530000
O -0.784900 -15.928400 -26.411400
C -0.782900 -14.718800 -25.934300
H -0.682600 -12.396800 -25.338400
H -0.619400 -15.905300 -27.234200
O -0.558300 -13.720300 -26.623800
32
Fragment
O -2.473800 -11.706400 -14.000100
H -2.412700 -9.521400 -13.389600
H -2.349500 -13.029800 -15.285400
C -2.249300 -10.707800 -14.689600
O -2.247200 -9.498300 -14.212400
O -2.207000 -13.205500 -16.093800
C -1.965600 -10.800800 -16.149300
C -1.959600 -12.068000 -16.760000
C -1.713500 -9.652700 -16.900900
H -1.706400 -8.802600 -16.477000
C -1.705000 -12.144300 -18.119600
H -1.691000 -12.991400 -18.548800
C -1.473400 -9.744500 -18.253600
C -1.471000 -10.997100 -18.858900
H -1.311100 -8.962600 -18.766900
H -1.306500 -11.066500 -19.791900
H -1.725700 -14.360100 -20.831900
H -1.721100 -16.464100 -21.857000
C -1.561100 -14.429600 -21.764900
C -1.558800 -15.682100 -22.370200
H -1.341100 -12.435300 -22.075000
C -1.327100 -13.282300 -22.504200
H -1.325800 -16.624100 -24.146800
C -1.318600 -15.774000 -23.723000
C -1.072500 -13.358600 -23.863800
C -1.066500 -14.625900 -24.474500
O -0.825200 -12.221200 -24.530000
O -0.784900 -15.928400 -26.411400
C -0.782900 -14.718800 -25.934300
H -0.682600 -12.396800 -25.338400
H -0.619400 -15.905300 -27.234200
O -0.558300 -13.720300 -26.623800
