16
Fragment
O -2.473800 -11.706400 -14.000100
H -2.412700 -9.521400 -13.389600
H -2.349500 -13.029800 -15.285400
C -2.249300 -10.707800 -14.689600
O -2.247200 -9.498300 -14.212400
O -2.207000 -13.205500 -16.093800
C -1.965600 -10.800800 -16.149300
C -1.959600 -12.068000 -16.760000
C -1.713500 -9.652700 -16.900900
H -1.706400 -8.802600 -16.477000
C -1.705000 -12.144300 -18.119600
H -1.691000 -12.991400 -18.548800
C -1.473400 -9.744500 -18.253600
C -1.471000 -10.997100 -18.858900
H -1.311100 -8.962600 -18.766900
H -1.306500 -11.066500 -19.791900
21
Fragment
H -1.591500 -4.831700 -14.478300
H -0.811700 -6.178400 -14.853400
C -0.749500 -5.200800 -14.816900
O -0.531200 -6.748600 -17.117500
H -0.520100 -0.493300 -19.136500
N -0.493500 -4.680700 -16.157400
N -0.430000 -2.355200 -15.449200
C -0.416400 -5.544000 -17.231300
C -0.355300 -3.319700 -16.378200
C -0.233100 -1.231200 -16.130400
H -0.222700 -0.369400 -15.730900
N -0.177700 -4.963500 -18.463500
C -0.124000 -2.806200 -17.624000
H -0.110400 -5.525300 -19.137900
N -0.050700 -1.445600 -17.438500
C -0.027900 -3.614900 -18.793900
H -0.015900 -4.941900 -14.221000
O 0.140200 -3.263600 -19.946000
H 0.184900 0.447100 -18.050500
C 0.186700 -0.443500 -18.459500
H 1.055800 -0.606900 -18.882000
37
Fragment
O -2.473800 -11.706400 -14.000100
H -2.412700 -9.521400 -13.389600
H -2.349500 -13.029800 -15.285400
C -2.249300 -10.707800 -14.689600
O -2.247200 -9.498300 -14.212400
O -2.207000 -13.205500 -16.093800
C -1.965600 -10.800800 -16.149300
C -1.959600 -12.068000 -16.760000
C -1.713500 -9.652700 -16.900900
H -1.706400 -8.802600 -16.477000
C -1.705000 -12.144300 -18.119600
H -1.691000 -12.991400 -18.548800
C -1.473400 -9.744500 -18.253600
C -1.471000 -10.997100 -18.858900
H -1.311100 -8.962600 -18.766900
H -1.306500 -11.066500 -19.791900
H -1.591500 -4.831700 -14.478300
H -0.811700 -6.178400 -14.853400
C -0.749500 -5.200800 -14.816900
O -0.531200 -6.748600 -17.117500
H -0.520100 -0.493300 -19.136500
N -0.493500 -4.680700 -16.157400
N -0.430000 -2.355200 -15.449200
C -0.416400 -5.544000 -17.231300
C -0.355300 -3.319700 -16.378200
C -0.233100 -1.231200 -16.130400
H -0.222700 -0.369400 -15.730900
N -0.177700 -4.963500 -18.463500
C -0.124000 -2.806200 -17.624000
H -0.110400 -5.525300 -19.137900
N -0.050700 -1.445600 -17.438500
C -0.027900 -3.614900 -18.793900
H -0.015900 -4.941900 -14.221000
O 0.140200 -3.263600 -19.946000
H 0.184900 0.447100 -18.050500
C 0.186700 -0.443500 -18.459500
H 1.055800 -0.606900 -18.882000
