16
Fragment
O -2.473800 -11.706400 -14.000100
H -2.412700 -9.521400 -13.389600
H -2.349500 -13.029800 -15.285400
C -2.249300 -10.707800 -14.689600
O -2.247200 -9.498300 -14.212400
O -2.207000 -13.205500 -16.093800
C -1.965600 -10.800800 -16.149300
C -1.959600 -12.068000 -16.760000
C -1.713500 -9.652700 -16.900900
H -1.706400 -8.802600 -16.477000
C -1.705000 -12.144300 -18.119600
H -1.691000 -12.991400 -18.548800
C -1.473400 -9.744500 -18.253600
C -1.471000 -10.997100 -18.858900
H -1.311100 -8.962600 -18.766900
H -1.306500 -11.066500 -19.791900
21
Fragment
H -2.461100 -18.917000 -8.200600
C -1.592100 -19.080300 -8.623100
H -1.590200 -19.970900 -9.032000
O -1.545500 -16.260200 -7.136500
H -1.389400 -14.582000 -12.861500
C -1.377400 -15.909000 -8.288600
N -1.354600 -18.078200 -9.644100
H -1.295000 -13.998500 -7.944700
C -1.281300 -16.717700 -9.458600
N -1.227600 -14.560300 -8.619000
H -1.182600 -19.154400 -11.351700
C -1.172300 -18.292600 -10.952200
C -1.050100 -16.204100 -10.704400
C -0.988900 -13.979900 -9.851300
N -0.975300 -17.168600 -11.633300
N -0.911800 -14.843100 -10.925100
H -0.885300 -19.030600 -7.946000
O -0.874100 -12.775200 -9.965000
C -0.655800 -14.323000 -12.265700
H -0.593600 -13.345400 -12.229100
H 0.186200 -14.692100 -12.604200
37
Fragment
O -2.473800 -11.706400 -14.000100
H -2.412700 -9.521400 -13.389600
H -2.349500 -13.029800 -15.285400
C -2.249300 -10.707800 -14.689600
O -2.247200 -9.498300 -14.212400
O -2.207000 -13.205500 -16.093800
C -1.965600 -10.800800 -16.149300
C -1.959600 -12.068000 -16.760000
C -1.713500 -9.652700 -16.900900
H -1.706400 -8.802600 -16.477000
C -1.705000 -12.144300 -18.119600
H -1.691000 -12.991400 -18.548800
C -1.473400 -9.744500 -18.253600
C -1.471000 -10.997100 -18.858900
H -1.311100 -8.962600 -18.766900
H -1.306500 -11.066500 -19.791900
H -2.461100 -18.917000 -8.200600
C -1.592100 -19.080300 -8.623100
H -1.590200 -19.970900 -9.032000
O -1.545500 -16.260200 -7.136500
H -1.389400 -14.582000 -12.861500
C -1.377400 -15.909000 -8.288600
N -1.354600 -18.078200 -9.644100
H -1.295000 -13.998500 -7.944700
C -1.281300 -16.717700 -9.458600
N -1.227600 -14.560300 -8.619000
H -1.182600 -19.154400 -11.351700
C -1.172300 -18.292600 -10.952200
C -1.050100 -16.204100 -10.704400
C -0.988900 -13.979900 -9.851300
N -0.975300 -17.168600 -11.633300
N -0.911800 -14.843100 -10.925100
H -0.885300 -19.030600 -7.946000
O -0.874100 -12.775200 -9.965000
C -0.655800 -14.323000 -12.265700
H -0.593600 -13.345400 -12.229100
H 0.186200 -14.692100 -12.604200
