16
Fragment
O -2.473800 -11.706400 -14.000100
H -2.412700 -9.521400 -13.389600
H -2.349500 -13.029800 -15.285400
C -2.249300 -10.707800 -14.689600
O -2.247200 -9.498300 -14.212400
O -2.207000 -13.205500 -16.093800
C -1.965600 -10.800800 -16.149300
C -1.959600 -12.068000 -16.760000
C -1.713500 -9.652700 -16.900900
H -1.706400 -8.802600 -16.477000
C -1.705000 -12.144300 -18.119600
H -1.691000 -12.991400 -18.548800
C -1.473400 -9.744500 -18.253600
C -1.471000 -10.997100 -18.858900
H -1.311100 -8.962600 -18.766900
H -1.306500 -11.066500 -19.791900
21
Fragment
H -4.309400 -11.198800 -8.200600
C -3.440300 -11.362100 -8.623100
H -3.438500 -12.252800 -9.032000
O -3.393800 -8.542000 -7.136500
H -3.237700 -6.863800 -12.861500
C -3.225700 -8.190800 -8.288600
N -3.202900 -10.360000 -9.644100
H -3.143200 -6.280300 -7.944700
C -3.129600 -8.999500 -9.458600
N -3.075900 -6.842100 -8.619000
H -3.030900 -11.436200 -11.351700
C -3.020500 -10.574400 -10.952200
C -2.898300 -8.485900 -10.704400
C -2.837200 -6.261700 -9.851300
N -2.823600 -9.450400 -11.633300
N -2.760100 -7.124900 -10.925100
H -2.733500 -11.312400 -7.946000
O -2.722400 -5.057000 -9.965000
C -2.504100 -6.604800 -12.265700
H -2.441900 -5.627200 -12.229100
H -1.662100 -6.973900 -12.604200
37
Fragment
O -2.473800 -11.706400 -14.000100
H -2.412700 -9.521400 -13.389600
H -2.349500 -13.029800 -15.285400
C -2.249300 -10.707800 -14.689600
O -2.247200 -9.498300 -14.212400
O -2.207000 -13.205500 -16.093800
C -1.965600 -10.800800 -16.149300
C -1.959600 -12.068000 -16.760000
C -1.713500 -9.652700 -16.900900
H -1.706400 -8.802600 -16.477000
C -1.705000 -12.144300 -18.119600
H -1.691000 -12.991400 -18.548800
C -1.473400 -9.744500 -18.253600
C -1.471000 -10.997100 -18.858900
H -1.311100 -8.962600 -18.766900
H -1.306500 -11.066500 -19.791900
H -4.309400 -11.198800 -8.200600
C -3.440300 -11.362100 -8.623100
H -3.438500 -12.252800 -9.032000
O -3.393800 -8.542000 -7.136500
H -3.237700 -6.863800 -12.861500
C -3.225700 -8.190800 -8.288600
N -3.202900 -10.360000 -9.644100
H -3.143200 -6.280300 -7.944700
C -3.129600 -8.999500 -9.458600
N -3.075900 -6.842100 -8.619000
H -3.030900 -11.436200 -11.351700
C -3.020500 -10.574400 -10.952200
C -2.898300 -8.485900 -10.704400
C -2.837200 -6.261700 -9.851300
N -2.823600 -9.450400 -11.633300
N -2.760100 -7.124900 -10.925100
H -2.733500 -11.312400 -7.946000
O -2.722400 -5.057000 -9.965000
C -2.504100 -6.604800 -12.265700
H -2.441900 -5.627200 -12.229100
H -1.662100 -6.973900 -12.604200
