16
Fragment
O -2.473800 -11.706400 -14.000100
H -2.412700 -9.521400 -13.389600
H -2.349500 -13.029800 -15.285400
C -2.249300 -10.707800 -14.689600
O -2.247200 -9.498300 -14.212400
O -2.207000 -13.205500 -16.093800
C -1.965600 -10.800800 -16.149300
C -1.959600 -12.068000 -16.760000
C -1.713500 -9.652700 -16.900900
H -1.706400 -8.802600 -16.477000
C -1.705000 -12.144300 -18.119600
H -1.691000 -12.991400 -18.548800
C -1.473400 -9.744500 -18.253600
C -1.471000 -10.997100 -18.858900
H -1.311100 -8.962600 -18.766900
H -1.306500 -11.066500 -19.791900
16
Fragment
H -0.098900 -8.457300 -7.290600
H -0.094300 -10.561300 -8.315700
C 0.065700 -8.526700 -8.223600
C 0.068000 -9.779300 -8.828900
H 0.285700 -6.532500 -8.533700
C 0.299700 -7.379500 -8.963000
H 0.301000 -10.721200 -10.605500
C 0.308200 -9.871200 -10.181700
C 0.554300 -7.455800 -10.322500
C 0.560300 -8.723100 -10.933200
O 0.801600 -6.318300 -10.988700
O 0.841900 -10.025500 -12.870200
C 0.843900 -8.816000 -12.393000
H 0.944200 -6.494000 -11.797200
H 1.007400 -10.002500 -13.692900
O 1.068500 -7.817500 -13.082500
32
Fragment
O -2.473800 -11.706400 -14.000100
H -2.412700 -9.521400 -13.389600
H -2.349500 -13.029800 -15.285400
C -2.249300 -10.707800 -14.689600
O -2.247200 -9.498300 -14.212400
O -2.207000 -13.205500 -16.093800
C -1.965600 -10.800800 -16.149300
C -1.959600 -12.068000 -16.760000
C -1.713500 -9.652700 -16.900900
H -1.706400 -8.802600 -16.477000
C -1.705000 -12.144300 -18.119600
H -1.691000 -12.991400 -18.548800
C -1.473400 -9.744500 -18.253600
C -1.471000 -10.997100 -18.858900
H -1.311100 -8.962600 -18.766900
H -1.306500 -11.066500 -19.791900
H -0.098900 -8.457300 -7.290600
H -0.094300 -10.561300 -8.315700
C 0.065700 -8.526700 -8.223600
C 0.068000 -9.779300 -8.828900
H 0.285700 -6.532500 -8.533700
C 0.299700 -7.379500 -8.963000
H 0.301000 -10.721200 -10.605500
C 0.308200 -9.871200 -10.181700
C 0.554300 -7.455800 -10.322500
C 0.560300 -8.723100 -10.933200
O 0.801600 -6.318300 -10.988700
O 0.841900 -10.025500 -12.870200
C 0.843900 -8.816000 -12.393000
H 0.944200 -6.494000 -11.797200
H 1.007400 -10.002500 -13.692900
O 1.068500 -7.817500 -13.082500
