44
Fragment
N -7.331400 -15.715000 -24.859800
N -7.331100 -14.737400 -23.878600
H -6.879900 -12.408500 -22.577800
H -6.793700 -20.896500 -29.276400
H -6.756500 -16.971400 -27.209600
H -6.538300 -18.920500 -28.409500
H -6.465200 -11.150700 -20.697500
C -6.381500 -12.772600 -21.882600
C -6.371500 -17.715900 -26.807200
C -6.301000 -21.522700 -28.797200
C -6.250800 -18.885900 -27.525900
C -6.236200 -16.424900 -24.719100
C -6.224300 -14.871000 -23.183300
N -6.158600 -22.764800 -29.164100
C -6.132800 -12.017100 -20.759300
H -6.027400 -9.944800 -18.814300
C -5.931200 -17.626600 -25.498800
C -5.899300 -14.071700 -21.995600
C -5.702000 -20.008700 -26.930500
N -5.653100 -21.245400 -27.643000
C -5.506600 -10.495600 -18.274500
N -5.502600 -15.917900 -23.675900
C -5.384400 -12.550500 -19.718400
C -5.378100 -23.329700 -28.191600
C -5.348200 -18.752900 -24.925800
C -5.231300 -19.932000 -25.633100
C -5.179400 -14.600100 -20.934700
H -5.124900 -9.380200 -16.629700
H -5.107000 -24.218900 -28.181300
N -5.097500 -11.777800 -18.558400
C -5.056800 -22.417300 -27.250300
H -5.031400 -18.710100 -24.051800
C -5.006900 -10.194400 -17.063500
C -4.917000 -13.850300 -19.809400
H -4.869200 -15.474900 -20.984500
H -4.835300 -20.674100 -25.237400
H -4.537500 -22.555800 -26.490500
H -4.425300 -14.217400 -19.111400
C -4.383200 -12.175400 -17.477600
N -4.300600 -11.248600 -16.556500
H -4.184300 -16.898500 -22.785900
N -4.161100 -16.208500 -23.342200
H -3.993800 -13.016300 -17.399100
H -3.751600 -16.434200 -24.096300
3
Fragment
H -6.845100 -25.862900 -26.421600
O -6.693200 -25.702100 -25.619600
H -5.944200 -25.396800 -25.543100
47
Fragment
N -7.331400 -15.715000 -24.859800
N -7.331100 -14.737400 -23.878600
H -6.879900 -12.408500 -22.577800
H -6.793700 -20.896500 -29.276400
H -6.756500 -16.971400 -27.209600
H -6.538300 -18.920500 -28.409500
H -6.465200 -11.150700 -20.697500
C -6.381500 -12.772600 -21.882600
C -6.371500 -17.715900 -26.807200
C -6.301000 -21.522700 -28.797200
C -6.250800 -18.885900 -27.525900
C -6.236200 -16.424900 -24.719100
C -6.224300 -14.871000 -23.183300
N -6.158600 -22.764800 -29.164100
C -6.132800 -12.017100 -20.759300
H -6.027400 -9.944800 -18.814300
C -5.931200 -17.626600 -25.498800
C -5.899300 -14.071700 -21.995600
C -5.702000 -20.008700 -26.930500
N -5.653100 -21.245400 -27.643000
C -5.506600 -10.495600 -18.274500
N -5.502600 -15.917900 -23.675900
C -5.384400 -12.550500 -19.718400
C -5.378100 -23.329700 -28.191600
C -5.348200 -18.752900 -24.925800
C -5.231300 -19.932000 -25.633100
C -5.179400 -14.600100 -20.934700
H -5.124900 -9.380200 -16.629700
H -5.107000 -24.218900 -28.181300
N -5.097500 -11.777800 -18.558400
C -5.056800 -22.417300 -27.250300
H -5.031400 -18.710100 -24.051800
C -5.006900 -10.194400 -17.063500
C -4.917000 -13.850300 -19.809400
H -4.869200 -15.474900 -20.984500
H -4.835300 -20.674100 -25.237400
H -4.537500 -22.555800 -26.490500
H -4.425300 -14.217400 -19.111400
C -4.383200 -12.175400 -17.477600
N -4.300600 -11.248600 -16.556500
H -4.184300 -16.898500 -22.785900
N -4.161100 -16.208500 -23.342200
H -3.993800 -13.016300 -17.399100
H -3.751600 -16.434200 -24.096300
H -6.845100 -25.862900 -26.421600
O -6.693200 -25.702100 -25.619600
H -5.944200 -25.396800 -25.543100
