19
Fragment
H -15.315800 -18.227100 -13.122500
N -15.026600 -16.292400 -13.614600
O -14.966000 -11.231600 -13.106800
N -14.857100 -17.613900 -13.621500
O -14.570400 -10.335200 -15.026000
N -14.543000 -11.266500 -14.256000
N -14.538100 -13.614400 -14.218700
C -14.164300 -15.935800 -14.537900
C -14.007000 -12.527000 -14.735300
N -13.966600 -18.035800 -14.472100
N -13.918600 -14.610400 -14.892500
N -13.494100 -16.953300 -15.083000
C -13.044100 -12.784600 -15.738200
C -13.025700 -14.154500 -15.798100
H -12.546700 -14.711000 -16.334400
C -12.156100 -11.909000 -16.523900
O -12.024200 -10.721900 -16.390300
O -11.513400 -12.627800 -17.430500
H -10.997400 -12.082000 -17.886300
3
Fragment
H -16.424700 -12.618800 -16.953200
O -16.215100 -13.380600 -17.064200
H -15.653600 -13.484100 -17.738900
22
Fragment
H -15.315800 -18.227100 -13.122500
N -15.026600 -16.292400 -13.614600
O -14.966000 -11.231600 -13.106800
N -14.857100 -17.613900 -13.621500
O -14.570400 -10.335200 -15.026000
N -14.543000 -11.266500 -14.256000
N -14.538100 -13.614400 -14.218700
C -14.164300 -15.935800 -14.537900
C -14.007000 -12.527000 -14.735300
N -13.966600 -18.035800 -14.472100
N -13.918600 -14.610400 -14.892500
N -13.494100 -16.953300 -15.083000
C -13.044100 -12.784600 -15.738200
C -13.025700 -14.154500 -15.798100
H -12.546700 -14.711000 -16.334400
C -12.156100 -11.909000 -16.523900
O -12.024200 -10.721900 -16.390300
O -11.513400 -12.627800 -17.430500
H -10.997400 -12.082000 -17.886300
H -16.424700 -12.618800 -16.953200
O -16.215100 -13.380600 -17.064200
H -15.653600 -13.484100 -17.738900
