19
Fragment
H -15.315800 -18.227100 -13.122500
N -15.026600 -16.292400 -13.614600
O -14.966000 -11.231600 -13.106800
N -14.857100 -17.613900 -13.621500
O -14.570400 -10.335200 -15.026000
N -14.543000 -11.266500 -14.256000
N -14.538100 -13.614400 -14.218700
C -14.164300 -15.935800 -14.537900
C -14.007000 -12.527000 -14.735300
N -13.966600 -18.035800 -14.472100
N -13.918600 -14.610400 -14.892500
N -13.494100 -16.953300 -15.083000
C -13.044100 -12.784600 -15.738200
C -13.025700 -14.154500 -15.798100
H -12.546700 -14.711000 -16.334400
C -12.156100 -11.909000 -16.523900
O -12.024200 -10.721900 -16.390300
O -11.513400 -12.627800 -17.430500
H -10.997400 -12.082000 -17.886300
19
Fragment
H -21.396500 -9.825600 -11.580400
O -20.880500 -9.279800 -12.036200
O -20.369700 -11.185700 -13.076300
C -20.237900 -9.998600 -12.942700
H -19.847200 -7.196600 -13.132300
C -19.368300 -7.753100 -13.668600
C -19.349800 -9.123000 -13.728500
N -18.899800 -4.954300 -14.383700
N -18.475300 -7.297200 -14.574200
N -18.427300 -3.871800 -14.994600
C -18.386900 -9.380600 -14.731400
C -18.229600 -5.971800 -14.928800
N -17.855800 -8.293200 -15.248000
N -17.850900 -10.641100 -15.210700
O -17.823500 -11.572400 -14.440600
N -17.536900 -4.293700 -15.845200
O -17.427900 -10.676000 -16.359900
N -17.367300 -5.615200 -15.852100
H -17.078100 -3.680500 -16.344200
38
Fragment
H -15.315800 -18.227100 -13.122500
N -15.026600 -16.292400 -13.614600
O -14.966000 -11.231600 -13.106800
N -14.857100 -17.613900 -13.621500
O -14.570400 -10.335200 -15.026000
N -14.543000 -11.266500 -14.256000
N -14.538100 -13.614400 -14.218700
C -14.164300 -15.935800 -14.537900
C -14.007000 -12.527000 -14.735300
N -13.966600 -18.035800 -14.472100
N -13.918600 -14.610400 -14.892500
N -13.494100 -16.953300 -15.083000
C -13.044100 -12.784600 -15.738200
C -13.025700 -14.154500 -15.798100
H -12.546700 -14.711000 -16.334400
C -12.156100 -11.909000 -16.523900
O -12.024200 -10.721900 -16.390300
O -11.513400 -12.627800 -17.430500
H -10.997400 -12.082000 -17.886300
H -21.396500 -9.825600 -11.580400
O -20.880500 -9.279800 -12.036200
O -20.369700 -11.185700 -13.076300
C -20.237900 -9.998600 -12.942700
H -19.847200 -7.196600 -13.132300
C -19.368300 -7.753100 -13.668600
C -19.349800 -9.123000 -13.728500
N -18.899800 -4.954300 -14.383700
N -18.475300 -7.297200 -14.574200
N -18.427300 -3.871800 -14.994600
C -18.386900 -9.380600 -14.731400
C -18.229600 -5.971800 -14.928800
N -17.855800 -8.293200 -15.248000
N -17.850900 -10.641100 -15.210700
O -17.823500 -11.572400 -14.440600
N -17.536900 -4.293700 -15.845200
O -17.427900 -10.676000 -16.359900
N -17.367300 -5.615200 -15.852100
H -17.078100 -3.680500 -16.344200
