19
Fragment
H -15.315800 -18.227100 -13.122500
N -15.026600 -16.292400 -13.614600
O -14.966000 -11.231600 -13.106800
N -14.857100 -17.613900 -13.621500
O -14.570400 -10.335200 -15.026000
N -14.543000 -11.266500 -14.256000
N -14.538100 -13.614400 -14.218700
C -14.164300 -15.935800 -14.537900
C -14.007000 -12.527000 -14.735300
N -13.966600 -18.035800 -14.472100
N -13.918600 -14.610400 -14.892500
N -13.494100 -16.953300 -15.083000
C -13.044100 -12.784600 -15.738200
C -13.025700 -14.154500 -15.798100
H -12.546700 -14.711000 -16.334400
C -12.156100 -11.909000 -16.523900
O -12.024200 -10.721900 -16.390300
O -11.513400 -12.627800 -17.430500
H -10.997400 -12.082000 -17.886300
19
Fragment
H -12.352700 -17.558900 -16.491500
O -11.836600 -18.104700 -16.947300
O -11.325800 -16.198800 -17.987400
C -11.194000 -17.385900 -17.853900
H -10.803300 -20.187900 -18.043400
C -10.324400 -19.631400 -18.579700
C -10.305900 -18.261500 -18.639600
N -9.856000 -22.430200 -19.294800
N -9.431400 -20.087300 -19.485300
N -9.383500 -23.512700 -19.905700
C -9.343100 -18.003900 -19.642500
C -9.185800 -21.412700 -19.839900
N -8.812000 -19.091300 -20.159100
N -8.807000 -16.743400 -20.121800
O -8.779700 -15.812100 -19.351800
N -8.493000 -23.090800 -20.756300
O -8.384000 -16.708500 -21.271000
N -8.323500 -21.769300 -20.763200
H -8.034300 -23.704000 -21.255300
38
Fragment
H -15.315800 -18.227100 -13.122500
N -15.026600 -16.292400 -13.614600
O -14.966000 -11.231600 -13.106800
N -14.857100 -17.613900 -13.621500
O -14.570400 -10.335200 -15.026000
N -14.543000 -11.266500 -14.256000
N -14.538100 -13.614400 -14.218700
C -14.164300 -15.935800 -14.537900
C -14.007000 -12.527000 -14.735300
N -13.966600 -18.035800 -14.472100
N -13.918600 -14.610400 -14.892500
N -13.494100 -16.953300 -15.083000
C -13.044100 -12.784600 -15.738200
C -13.025700 -14.154500 -15.798100
H -12.546700 -14.711000 -16.334400
C -12.156100 -11.909000 -16.523900
O -12.024200 -10.721900 -16.390300
O -11.513400 -12.627800 -17.430500
H -10.997400 -12.082000 -17.886300
H -12.352700 -17.558900 -16.491500
O -11.836600 -18.104700 -16.947300
O -11.325800 -16.198800 -17.987400
C -11.194000 -17.385900 -17.853900
H -10.803300 -20.187900 -18.043400
C -10.324400 -19.631400 -18.579700
C -10.305900 -18.261500 -18.639600
N -9.856000 -22.430200 -19.294800
N -9.431400 -20.087300 -19.485300
N -9.383500 -23.512700 -19.905700
C -9.343100 -18.003900 -19.642500
C -9.185800 -21.412700 -19.839900
N -8.812000 -19.091300 -20.159100
N -8.807000 -16.743400 -20.121800
O -8.779700 -15.812100 -19.351800
N -8.493000 -23.090800 -20.756300
O -8.384000 -16.708500 -21.271000
N -8.323500 -21.769300 -20.763200
H -8.034300 -23.704000 -21.255300
