19
Fragment
H -15.315800 -18.227100 -13.122500
N -15.026600 -16.292400 -13.614600
O -14.966000 -11.231600 -13.106800
N -14.857100 -17.613900 -13.621500
O -14.570400 -10.335200 -15.026000
N -14.543000 -11.266500 -14.256000
N -14.538100 -13.614400 -14.218700
C -14.164300 -15.935800 -14.537900
C -14.007000 -12.527000 -14.735300
N -13.966600 -18.035800 -14.472100
N -13.918600 -14.610400 -14.892500
N -13.494100 -16.953300 -15.083000
C -13.044100 -12.784600 -15.738200
C -13.025700 -14.154500 -15.798100
H -12.546700 -14.711000 -16.334400
C -12.156100 -11.909000 -16.523900
O -12.024200 -10.721900 -16.390300
O -11.513400 -12.627800 -17.430500
H -10.997400 -12.082000 -17.886300
19
Fragment
H -21.774700 -17.558900 -6.669300
O -21.258600 -18.104700 -7.125000
O -20.747800 -16.198800 -8.165200
C -20.616000 -17.385900 -8.031600
H -20.225300 -20.187900 -8.221200
C -19.746400 -19.631400 -8.757500
C -19.727900 -18.261500 -8.817400
N -19.278000 -22.430200 -9.472600
N -18.853400 -20.087300 -9.663100
N -18.805500 -23.512700 -10.083500
C -18.765100 -18.003900 -9.820300
C -18.607800 -21.412700 -10.017700
N -18.234000 -19.091300 -10.336900
N -18.229000 -16.743400 -10.299600
O -18.201700 -15.812100 -9.529500
N -17.915000 -23.090800 -10.934100
O -17.806000 -16.708500 -11.448800
N -17.745500 -21.769300 -10.941000
H -17.456300 -23.704000 -11.433100
38
Fragment
H -15.315800 -18.227100 -13.122500
N -15.026600 -16.292400 -13.614600
O -14.966000 -11.231600 -13.106800
N -14.857100 -17.613900 -13.621500
O -14.570400 -10.335200 -15.026000
N -14.543000 -11.266500 -14.256000
N -14.538100 -13.614400 -14.218700
C -14.164300 -15.935800 -14.537900
C -14.007000 -12.527000 -14.735300
N -13.966600 -18.035800 -14.472100
N -13.918600 -14.610400 -14.892500
N -13.494100 -16.953300 -15.083000
C -13.044100 -12.784600 -15.738200
C -13.025700 -14.154500 -15.798100
H -12.546700 -14.711000 -16.334400
C -12.156100 -11.909000 -16.523900
O -12.024200 -10.721900 -16.390300
O -11.513400 -12.627800 -17.430500
H -10.997400 -12.082000 -17.886300
H -21.774700 -17.558900 -6.669300
O -21.258600 -18.104700 -7.125000
O -20.747800 -16.198800 -8.165200
C -20.616000 -17.385900 -8.031600
H -20.225300 -20.187900 -8.221200
C -19.746400 -19.631400 -8.757500
C -19.727900 -18.261500 -8.817400
N -19.278000 -22.430200 -9.472600
N -18.853400 -20.087300 -9.663100
N -18.805500 -23.512700 -10.083500
C -18.765100 -18.003900 -9.820300
C -18.607800 -21.412700 -10.017700
N -18.234000 -19.091300 -10.336900
N -18.229000 -16.743400 -10.299600
O -18.201700 -15.812100 -9.529500
N -17.915000 -23.090800 -10.934100
O -17.806000 -16.708500 -11.448800
N -17.745500 -21.769300 -10.941000
H -17.456300 -23.704000 -11.433100
