19
Fragment
H -15.315800 -18.227100 -13.122500
N -15.026600 -16.292400 -13.614600
O -14.966000 -11.231600 -13.106800
N -14.857100 -17.613900 -13.621500
O -14.570400 -10.335200 -15.026000
N -14.543000 -11.266500 -14.256000
N -14.538100 -13.614400 -14.218700
C -14.164300 -15.935800 -14.537900
C -14.007000 -12.527000 -14.735300
N -13.966600 -18.035800 -14.472100
N -13.918600 -14.610400 -14.892500
N -13.494100 -16.953300 -15.083000
C -13.044100 -12.784600 -15.738200
C -13.025700 -14.154500 -15.798100
H -12.546700 -14.711000 -16.334400
C -12.156100 -11.909000 -16.523900
O -12.024200 -10.721900 -16.390300
O -11.513400 -12.627800 -17.430500
H -10.997400 -12.082000 -17.886300
19
Fragment
H -12.730800 -9.825600 -11.580400
O -12.214800 -9.279800 -12.036200
O -11.704000 -11.185700 -13.076300
C -11.572200 -9.998600 -12.942700
H -11.181500 -7.196600 -13.132300
C -10.702600 -7.753100 -13.668600
C -10.684100 -9.123000 -13.728500
N -10.234100 -4.954300 -14.383700
N -9.809600 -7.297200 -14.574200
N -9.761600 -3.871800 -14.994600
C -9.721200 -9.380600 -14.731400
C -9.563900 -5.971800 -14.928800
N -9.190100 -8.293200 -15.248000
N -9.185200 -10.641100 -15.210700
O -9.157800 -11.572400 -14.440600
N -8.871200 -4.293700 -15.845200
O -8.762200 -10.676000 -16.359900
N -8.701600 -5.615200 -15.852100
H -8.412400 -3.680500 -16.344200
38
Fragment
H -15.315800 -18.227100 -13.122500
N -15.026600 -16.292400 -13.614600
O -14.966000 -11.231600 -13.106800
N -14.857100 -17.613900 -13.621500
O -14.570400 -10.335200 -15.026000
N -14.543000 -11.266500 -14.256000
N -14.538100 -13.614400 -14.218700
C -14.164300 -15.935800 -14.537900
C -14.007000 -12.527000 -14.735300
N -13.966600 -18.035800 -14.472100
N -13.918600 -14.610400 -14.892500
N -13.494100 -16.953300 -15.083000
C -13.044100 -12.784600 -15.738200
C -13.025700 -14.154500 -15.798100
H -12.546700 -14.711000 -16.334400
C -12.156100 -11.909000 -16.523900
O -12.024200 -10.721900 -16.390300
O -11.513400 -12.627800 -17.430500
H -10.997400 -12.082000 -17.886300
H -12.730800 -9.825600 -11.580400
O -12.214800 -9.279800 -12.036200
O -11.704000 -11.185700 -13.076300
C -11.572200 -9.998600 -12.942700
H -11.181500 -7.196600 -13.132300
C -10.702600 -7.753100 -13.668600
C -10.684100 -9.123000 -13.728500
N -10.234100 -4.954300 -14.383700
N -9.809600 -7.297200 -14.574200
N -9.761600 -3.871800 -14.994600
C -9.721200 -9.380600 -14.731400
C -9.563900 -5.971800 -14.928800
N -9.190100 -8.293200 -15.248000
N -9.185200 -10.641100 -15.210700
O -9.157800 -11.572400 -14.440600
N -8.871200 -4.293700 -15.845200
O -8.762200 -10.676000 -16.359900
N -8.701600 -5.615200 -15.852100
H -8.412400 -3.680500 -16.344200
