12
Fragment
O -12.710300 -19.693300 -22.012400
C -11.774500 -19.066200 -22.501300
F -11.685500 -17.468300 -20.787400
H -11.523300 -20.148800 -24.081300
N -11.205200 -19.444500 -23.703100
C -11.162800 -17.901000 -21.948900
C -10.177500 -18.799700 -24.350000
C -10.160700 -17.259400 -22.530900
H -9.791600 -16.505900 -22.128900
O -9.752700 -19.203700 -25.428500
N -9.669800 -17.714000 -23.732300
H -9.018200 -17.291800 -24.101700
12
Fragment
H -11.656000 -24.508600 -23.057900
N -11.004500 -24.086400 -23.427400
O -10.921500 -22.596700 -21.731200
H -10.882600 -25.294500 -25.030800
C -10.513600 -24.541000 -24.628800
C -10.496800 -23.000700 -22.809700
C -9.511500 -23.899400 -25.210800
N -9.469000 -22.355900 -23.456600
H -9.150900 -21.651600 -23.078400
F -8.988700 -24.332100 -26.372300
C -8.899800 -22.734200 -24.658400
O -7.964000 -22.107100 -25.147300
24
Fragment
O -12.710300 -19.693300 -22.012400
C -11.774500 -19.066200 -22.501300
F -11.685500 -17.468300 -20.787400
H -11.523300 -20.148800 -24.081300
N -11.205200 -19.444500 -23.703100
C -11.162800 -17.901000 -21.948900
C -10.177500 -18.799700 -24.350000
C -10.160700 -17.259400 -22.530900
H -9.791600 -16.505900 -22.128900
O -9.752700 -19.203700 -25.428500
N -9.669800 -17.714000 -23.732300
H -9.018200 -17.291800 -24.101700
H -11.656000 -24.508600 -23.057900
N -11.004500 -24.086400 -23.427400
O -10.921500 -22.596700 -21.731200
H -10.882600 -25.294500 -25.030800
C -10.513600 -24.541000 -24.628800
C -10.496800 -23.000700 -22.809700
C -9.511500 -23.899400 -25.210800
N -9.469000 -22.355900 -23.456600
H -9.150900 -21.651600 -23.078400
F -8.988700 -24.332100 -26.372300
C -8.899800 -22.734200 -24.658400
O -7.964000 -22.107100 -25.147300
