12
Fragment
O -12.710300 -19.693300 -22.012400
C -11.774500 -19.066200 -22.501300
F -11.685500 -17.468300 -20.787400
H -11.523300 -20.148800 -24.081300
N -11.205200 -19.444500 -23.703100
C -11.162800 -17.901000 -21.948900
C -10.177500 -18.799700 -24.350000
C -10.160700 -17.259400 -22.530900
H -9.791600 -16.505900 -22.128900
O -9.752700 -19.203700 -25.428500
N -9.669800 -17.714000 -23.732300
H -9.018200 -17.291800 -24.101700
12
Fragment
H -6.937400 -19.283600 -23.057900
N -6.285900 -18.861400 -23.427400
O -6.202900 -17.371600 -21.731200
H -6.164000 -20.069400 -25.030800
C -5.795000 -19.316000 -24.628800
C -5.778200 -17.775600 -22.809700
C -4.792900 -18.674300 -25.210800
N -4.750400 -17.130800 -23.456600
H -4.432300 -16.426500 -23.078400
F -4.270100 -19.107100 -26.372300
C -4.181200 -17.509100 -24.658400
O -3.245400 -16.882000 -25.147300
24
Fragment
O -12.710300 -19.693300 -22.012400
C -11.774500 -19.066200 -22.501300
F -11.685500 -17.468300 -20.787400
H -11.523300 -20.148800 -24.081300
N -11.205200 -19.444500 -23.703100
C -11.162800 -17.901000 -21.948900
C -10.177500 -18.799700 -24.350000
C -10.160700 -17.259400 -22.530900
H -9.791600 -16.505900 -22.128900
O -9.752700 -19.203700 -25.428500
N -9.669800 -17.714000 -23.732300
H -9.018200 -17.291800 -24.101700
H -6.937400 -19.283600 -23.057900
N -6.285900 -18.861400 -23.427400
O -6.202900 -17.371600 -21.731200
H -6.164000 -20.069400 -25.030800
C -5.795000 -19.316000 -24.628800
C -5.778200 -17.775600 -22.809700
C -4.792900 -18.674300 -25.210800
N -4.750400 -17.130800 -23.456600
H -4.432300 -16.426500 -23.078400
F -4.270100 -19.107100 -26.372300
C -4.181200 -17.509100 -24.658400
O -3.245400 -16.882000 -25.147300
