12
Fragment
O -12.710300 -19.693300 -22.012400
C -11.774500 -19.066200 -22.501300
F -11.685500 -17.468300 -20.787400
H -11.523300 -20.148800 -24.081300
N -11.205200 -19.444500 -23.703100
C -11.162800 -17.901000 -21.948900
C -10.177500 -18.799700 -24.350000
C -10.160700 -17.259400 -22.530900
H -9.791600 -16.505900 -22.128900
O -9.752700 -19.203700 -25.428500
N -9.669800 -17.714000 -23.732300
H -9.018200 -17.291800 -24.101700
8
Fragment
H -13.334400 -15.244600 -28.427900
H -13.022000 -15.999100 -27.181300
N -12.890900 -15.858000 -28.020100
C -12.004900 -16.585400 -28.683000
O -11.792400 -16.399400 -29.914500
H -11.529800 -17.646000 -27.176600
N -11.373400 -17.533200 -28.013800
H -10.805200 -18.037900 -28.416900
20
Fragment
O -12.710300 -19.693300 -22.012400
C -11.774500 -19.066200 -22.501300
F -11.685500 -17.468300 -20.787400
H -11.523300 -20.148800 -24.081300
N -11.205200 -19.444500 -23.703100
C -11.162800 -17.901000 -21.948900
C -10.177500 -18.799700 -24.350000
C -10.160700 -17.259400 -22.530900
H -9.791600 -16.505900 -22.128900
O -9.752700 -19.203700 -25.428500
N -9.669800 -17.714000 -23.732300
H -9.018200 -17.291800 -24.101700
H -13.334400 -15.244600 -28.427900
H -13.022000 -15.999100 -27.181300
N -12.890900 -15.858000 -28.020100
C -12.004900 -16.585400 -28.683000
O -11.792400 -16.399400 -29.914500
H -11.529800 -17.646000 -27.176600
N -11.373400 -17.533200 -28.013800
H -10.805200 -18.037900 -28.416900
