12
Fragment
O -12.710300 -19.693300 -22.012400
C -11.774500 -19.066200 -22.501300
F -11.685500 -17.468300 -20.787400
H -11.523300 -20.148800 -24.081300
N -11.205200 -19.444500 -23.703100
C -11.162800 -17.901000 -21.948900
C -10.177500 -18.799700 -24.350000
C -10.160700 -17.259400 -22.530900
H -9.791600 -16.505900 -22.128900
O -9.752700 -19.203700 -25.428500
N -9.669800 -17.714000 -23.732300
H -9.018200 -17.291800 -24.101700
12
Fragment
O -7.991700 -14.468300 -22.012400
C -7.055900 -13.841200 -22.501300
F -6.966900 -12.243200 -20.787400
H -6.804700 -14.923800 -24.081300
N -6.486600 -14.219500 -23.703100
C -6.444200 -12.676000 -21.948900
C -5.458900 -13.574700 -24.350000
C -5.442100 -12.034300 -22.530900
H -5.073000 -11.280900 -22.128900
O -5.034100 -13.978700 -25.428500
N -4.951200 -12.488900 -23.732300
H -4.299600 -12.066700 -24.101700
24
Fragment
O -12.710300 -19.693300 -22.012400
C -11.774500 -19.066200 -22.501300
F -11.685500 -17.468300 -20.787400
H -11.523300 -20.148800 -24.081300
N -11.205200 -19.444500 -23.703100
C -11.162800 -17.901000 -21.948900
C -10.177500 -18.799700 -24.350000
C -10.160700 -17.259400 -22.530900
H -9.791600 -16.505900 -22.128900
O -9.752700 -19.203700 -25.428500
N -9.669800 -17.714000 -23.732300
H -9.018200 -17.291800 -24.101700
O -7.991700 -14.468300 -22.012400
C -7.055900 -13.841200 -22.501300
F -6.966900 -12.243200 -20.787400
H -6.804700 -14.923800 -24.081300
N -6.486600 -14.219500 -23.703100
C -6.444200 -12.676000 -21.948900
C -5.458900 -13.574700 -24.350000
C -5.442100 -12.034300 -22.530900
H -5.073000 -11.280900 -22.128900
O -5.034100 -13.978700 -25.428500
N -4.951200 -12.488900 -23.732300
H -4.299600 -12.066700 -24.101700
