12
Fragment
O -12.710300 -19.693300 -22.012400
C -11.774500 -19.066200 -22.501300
F -11.685500 -17.468300 -20.787400
H -11.523300 -20.148800 -24.081300
N -11.205200 -19.444500 -23.703100
C -11.162800 -17.901000 -21.948900
C -10.177500 -18.799700 -24.350000
C -10.160700 -17.259400 -22.530900
H -9.791600 -16.505900 -22.128900
O -9.752700 -19.203700 -25.428500
N -9.669800 -17.714000 -23.732300
H -9.018200 -17.291800 -24.101700
12
Fragment
H -11.656000 -14.058500 -23.057900
N -11.004500 -13.636300 -23.427400
O -10.921500 -12.146600 -21.731200
H -10.882600 -14.844400 -25.030800
C -10.513600 -14.090900 -24.628800
C -10.496800 -12.550600 -22.809700
C -9.511500 -13.449300 -25.210800
N -9.469000 -11.905800 -23.456600
H -9.150900 -11.201500 -23.078400
F -8.988700 -13.882000 -26.372300
C -8.899800 -12.284100 -24.658400
O -7.964000 -11.657000 -25.147300
24
Fragment
O -12.710300 -19.693300 -22.012400
C -11.774500 -19.066200 -22.501300
F -11.685500 -17.468300 -20.787400
H -11.523300 -20.148800 -24.081300
N -11.205200 -19.444500 -23.703100
C -11.162800 -17.901000 -21.948900
C -10.177500 -18.799700 -24.350000
C -10.160700 -17.259400 -22.530900
H -9.791600 -16.505900 -22.128900
O -9.752700 -19.203700 -25.428500
N -9.669800 -17.714000 -23.732300
H -9.018200 -17.291800 -24.101700
H -11.656000 -14.058500 -23.057900
N -11.004500 -13.636300 -23.427400
O -10.921500 -12.146600 -21.731200
H -10.882600 -14.844400 -25.030800
C -10.513600 -14.090900 -24.628800
C -10.496800 -12.550600 -22.809700
C -9.511500 -13.449300 -25.210800
N -9.469000 -11.905800 -23.456600
H -9.150900 -11.201500 -23.078400
F -8.988700 -13.882000 -26.372300
C -8.899800 -12.284100 -24.658400
O -7.964000 -11.657000 -25.147300
