12
Fragment
O -12.710300 -19.693300 -22.012400
C -11.774500 -19.066200 -22.501300
F -11.685500 -17.468300 -20.787400
H -11.523300 -20.148800 -24.081300
N -11.205200 -19.444500 -23.703100
C -11.162800 -17.901000 -21.948900
C -10.177500 -18.799700 -24.350000
C -10.160700 -17.259400 -22.530900
H -9.791600 -16.505900 -22.128900
O -9.752700 -19.203700 -25.428500
N -9.669800 -17.714000 -23.732300
H -9.018200 -17.291800 -24.101700
8
Fragment
H -8.615800 -20.469700 -28.427900
H -8.303400 -21.224200 -27.181300
N -8.172300 -21.083100 -28.020100
C -7.286300 -21.810400 -28.683000
O -7.073800 -21.624500 -29.914500
H -6.811200 -22.871100 -27.176600
N -6.654800 -22.758200 -28.013800
H -6.086600 -23.263000 -28.416900
20
Fragment
O -12.710300 -19.693300 -22.012400
C -11.774500 -19.066200 -22.501300
F -11.685500 -17.468300 -20.787400
H -11.523300 -20.148800 -24.081300
N -11.205200 -19.444500 -23.703100
C -11.162800 -17.901000 -21.948900
C -10.177500 -18.799700 -24.350000
C -10.160700 -17.259400 -22.530900
H -9.791600 -16.505900 -22.128900
O -9.752700 -19.203700 -25.428500
N -9.669800 -17.714000 -23.732300
H -9.018200 -17.291800 -24.101700
H -8.615800 -20.469700 -28.427900
H -8.303400 -21.224200 -27.181300
N -8.172300 -21.083100 -28.020100
C -7.286300 -21.810400 -28.683000
O -7.073800 -21.624500 -29.914500
H -6.811200 -22.871100 -27.176600
N -6.654800 -22.758200 -28.013800
H -6.086600 -23.263000 -28.416900
