12
Fragment
O -12.710300 -19.693300 -22.012400
C -11.774500 -19.066200 -22.501300
F -11.685500 -17.468300 -20.787400
H -11.523300 -20.148800 -24.081300
N -11.205200 -19.444500 -23.703100
C -11.162800 -17.901000 -21.948900
C -10.177500 -18.799700 -24.350000
C -10.160700 -17.259400 -22.530900
H -9.791600 -16.505900 -22.128900
O -9.752700 -19.203700 -25.428500
N -9.669800 -17.714000 -23.732300
H -9.018200 -17.291800 -24.101700
8
Fragment
H -9.888700 -21.330700 -20.567900
H -9.576300 -20.576200 -19.321300
N -9.445200 -20.717300 -20.160100
C -8.559200 -19.990000 -20.823000
O -8.346700 -20.175900 -22.054500
H -8.084100 -18.929300 -19.316600
N -7.927700 -19.042200 -20.153800
H -7.359400 -18.537400 -20.556900
20
Fragment
O -12.710300 -19.693300 -22.012400
C -11.774500 -19.066200 -22.501300
F -11.685500 -17.468300 -20.787400
H -11.523300 -20.148800 -24.081300
N -11.205200 -19.444500 -23.703100
C -11.162800 -17.901000 -21.948900
C -10.177500 -18.799700 -24.350000
C -10.160700 -17.259400 -22.530900
H -9.791600 -16.505900 -22.128900
O -9.752700 -19.203700 -25.428500
N -9.669800 -17.714000 -23.732300
H -9.018200 -17.291800 -24.101700
H -9.888700 -21.330700 -20.567900
H -9.576300 -20.576200 -19.321300
N -9.445200 -20.717300 -20.160100
C -8.559200 -19.990000 -20.823000
O -8.346700 -20.175900 -22.054500
H -8.084100 -18.929300 -19.316600
N -7.927700 -19.042200 -20.153800
H -7.359400 -18.537400 -20.556900
