16
Fragment
H -17.561100 -13.121000 -16.689000
H -16.873000 -11.980600 -17.576000
H -16.800800 -11.904800 -15.979900
C -16.799900 -12.506400 -16.752800
O -16.317400 -14.355700 -18.556900
H -15.973100 -14.939600 -19.247000
C -15.524700 -13.291700 -16.773500
N -15.265400 -14.200600 -17.652300
N -14.731600 -12.168200 -14.877900
C -14.472300 -13.077100 -15.756600
H -14.023900 -11.429100 -13.283100
O -13.679600 -12.013100 -13.973200
C -13.197100 -13.862300 -15.777300
H -13.196200 -14.463900 -16.550200
H -13.124100 -14.388100 -14.954100
H -12.436000 -13.247700 -15.841100
30
Fragment
H -25.434900 -16.293900 -21.761600
H -25.197000 -17.736600 -18.258100
H -25.038900 -14.740400 -21.907900
H -24.771900 -18.521800 -16.911300
C -24.678100 -15.658200 -21.820400
H -24.452700 -19.634900 -19.292500
C -24.449200 -18.175300 -17.780500
H -23.927300 -15.385000 -23.767600
H -23.911000 -16.934100 -23.307800
N -23.810200 -15.766700 -20.628300
C -23.807400 -19.283300 -18.628500
C -23.776700 -16.000500 -23.006700
H -23.499700 -20.029600 -18.055300
H -23.481400 -16.400600 -17.434000
N -23.307300 -17.267600 -17.611900
N -22.662300 -18.633700 -19.303400
C -22.594100 -15.833600 -21.076500
C -22.479100 -17.529100 -18.677200
N -22.451400 -15.811400 -22.416400
H -21.698600 -16.002200 -22.854600
C -21.405900 -15.841500 -20.191400
C -21.384300 -16.579000 -19.005100
C -20.310700 -15.042100 -20.508700
H -20.301700 -14.566400 -21.331100
C -20.295300 -16.459300 -18.145600
H -20.283500 -16.952700 -17.334200
C -19.229900 -14.928300 -19.643600
C -19.229500 -15.631800 -18.457200
H -18.499600 -15.548700 -17.854700
H -18.495300 -14.368900 -19.867200
46
Fragment
H -17.561100 -13.121000 -16.689000
H -16.873000 -11.980600 -17.576000
H -16.800800 -11.904800 -15.979900
C -16.799900 -12.506400 -16.752800
O -16.317400 -14.355700 -18.556900
H -15.973100 -14.939600 -19.247000
C -15.524700 -13.291700 -16.773500
N -15.265400 -14.200600 -17.652300
N -14.731600 -12.168200 -14.877900
C -14.472300 -13.077100 -15.756600
H -14.023900 -11.429100 -13.283100
O -13.679600 -12.013100 -13.973200
C -13.197100 -13.862300 -15.777300
H -13.196200 -14.463900 -16.550200
H -13.124100 -14.388100 -14.954100
H -12.436000 -13.247700 -15.841100
H -25.434900 -16.293900 -21.761600
H -25.197000 -17.736600 -18.258100
H -25.038900 -14.740400 -21.907900
H -24.771900 -18.521800 -16.911300
C -24.678100 -15.658200 -21.820400
H -24.452700 -19.634900 -19.292500
C -24.449200 -18.175300 -17.780500
H -23.927300 -15.385000 -23.767600
H -23.911000 -16.934100 -23.307800
N -23.810200 -15.766700 -20.628300
C -23.807400 -19.283300 -18.628500
C -23.776700 -16.000500 -23.006700
H -23.499700 -20.029600 -18.055300
H -23.481400 -16.400600 -17.434000
N -23.307300 -17.267600 -17.611900
N -22.662300 -18.633700 -19.303400
C -22.594100 -15.833600 -21.076500
C -22.479100 -17.529100 -18.677200
N -22.451400 -15.811400 -22.416400
H -21.698600 -16.002200 -22.854600
C -21.405900 -15.841500 -20.191400
C -21.384300 -16.579000 -19.005100
C -20.310700 -15.042100 -20.508700
H -20.301700 -14.566400 -21.331100
C -20.295300 -16.459300 -18.145600
H -20.283500 -16.952700 -17.334200
C -19.229900 -14.928300 -19.643600
C -19.229500 -15.631800 -18.457200
H -18.499600 -15.548700 -17.854700
H -18.495300 -14.368900 -19.867200
