16
Fragment
H -17.561100 -13.121000 -16.689000
H -16.873000 -11.980600 -17.576000
H -16.800800 -11.904800 -15.979900
C -16.799900 -12.506400 -16.752800
O -16.317400 -14.355700 -18.556900
H -15.973100 -14.939600 -19.247000
C -15.524700 -13.291700 -16.773500
N -15.265400 -14.200600 -17.652300
N -14.731600 -12.168200 -14.877900
C -14.472300 -13.077100 -15.756600
H -14.023900 -11.429100 -13.283100
O -13.679600 -12.013100 -13.973200
C -13.197100 -13.862300 -15.777300
H -13.196200 -14.463900 -16.550200
H -13.124100 -14.388100 -14.954100
H -12.436000 -13.247700 -15.841100
30
Fragment
H -19.850700 -11.999900 -12.662900
H -19.846400 -10.820000 -14.675400
C -19.116400 -10.737000 -14.073000
C -19.116100 -11.440500 -12.886500
H -18.062400 -9.416000 -15.195900
C -18.050700 -9.909500 -14.384500
H -18.044300 -11.802300 -11.199000
C -18.035200 -11.326600 -12.021400
C -16.961600 -9.789700 -13.525000
C -16.940100 -10.527200 -12.338700
H -16.647300 -10.366500 -9.675500
N -15.894600 -10.557300 -10.113700
C -15.866900 -8.839700 -13.852900
C -15.751900 -10.535200 -11.453600
N -15.683600 -7.735000 -13.226700
N -15.038600 -9.101100 -14.918200
H -14.864600 -9.968100 -15.096100
H -14.846300 -6.339100 -14.474800
C -14.569200 -10.368200 -9.523400
C -14.538600 -7.085400 -13.901600
N -14.535800 -10.602000 -11.901800
H -14.434900 -9.434600 -9.222300
H -14.418600 -10.983700 -8.762500
C -13.896800 -8.193500 -14.749600
H -13.893200 -6.733800 -13.237600
C -13.667800 -10.710500 -10.709700
H -13.574100 -7.846900 -15.618800
H -13.307100 -11.628400 -10.622200
H -13.149000 -8.632100 -14.272000
H -12.911000 -10.074800 -10.768600
46
Fragment
H -17.561100 -13.121000 -16.689000
H -16.873000 -11.980600 -17.576000
H -16.800800 -11.904800 -15.979900
C -16.799900 -12.506400 -16.752800
O -16.317400 -14.355700 -18.556900
H -15.973100 -14.939600 -19.247000
C -15.524700 -13.291700 -16.773500
N -15.265400 -14.200600 -17.652300
N -14.731600 -12.168200 -14.877900
C -14.472300 -13.077100 -15.756600
H -14.023900 -11.429100 -13.283100
O -13.679600 -12.013100 -13.973200
C -13.197100 -13.862300 -15.777300
H -13.196200 -14.463900 -16.550200
H -13.124100 -14.388100 -14.954100
H -12.436000 -13.247700 -15.841100
H -19.850700 -11.999900 -12.662900
H -19.846400 -10.820000 -14.675400
C -19.116400 -10.737000 -14.073000
C -19.116100 -11.440500 -12.886500
H -18.062400 -9.416000 -15.195900
C -18.050700 -9.909500 -14.384500
H -18.044300 -11.802300 -11.199000
C -18.035200 -11.326600 -12.021400
C -16.961600 -9.789700 -13.525000
C -16.940100 -10.527200 -12.338700
H -16.647300 -10.366500 -9.675500
N -15.894600 -10.557300 -10.113700
C -15.866900 -8.839700 -13.852900
C -15.751900 -10.535200 -11.453600
N -15.683600 -7.735000 -13.226700
N -15.038600 -9.101100 -14.918200
H -14.864600 -9.968100 -15.096100
H -14.846300 -6.339100 -14.474800
C -14.569200 -10.368200 -9.523400
C -14.538600 -7.085400 -13.901600
N -14.535800 -10.602000 -11.901800
H -14.434900 -9.434600 -9.222300
H -14.418600 -10.983700 -8.762500
C -13.896800 -8.193500 -14.749600
H -13.893200 -6.733800 -13.237600
C -13.667800 -10.710500 -10.709700
H -13.574100 -7.846900 -15.618800
H -13.307100 -11.628400 -10.622200
H -13.149000 -8.632100 -14.272000
H -12.911000 -10.074800 -10.768600
