16
Fragment
H -17.561100 -13.121000 -16.689000
H -16.873000 -11.980600 -17.576000
H -16.800800 -11.904800 -15.979900
C -16.799900 -12.506400 -16.752800
O -16.317400 -14.355700 -18.556900
H -15.973100 -14.939600 -19.247000
C -15.524700 -13.291700 -16.773500
N -15.265400 -14.200600 -17.652300
N -14.731600 -12.168200 -14.877900
C -14.472300 -13.077100 -15.756600
H -14.023900 -11.429100 -13.283100
O -13.679600 -12.013100 -13.973200
C -13.197100 -13.862300 -15.777300
H -13.196200 -14.463900 -16.550200
H -13.124100 -14.388100 -14.954100
H -12.436000 -13.247700 -15.841100
30
Fragment
H -17.086000 -16.293900 -21.761600
H -16.848100 -17.736600 -18.258100
H -16.690000 -14.740400 -21.907900
H -16.423000 -18.521800 -16.911300
C -16.329200 -15.658200 -21.820400
H -16.103800 -19.634900 -19.292500
C -16.100300 -18.175300 -17.780500
H -15.578400 -15.385000 -23.767600
H -15.562100 -16.934100 -23.307800
N -15.461300 -15.766700 -20.628300
C -15.458500 -19.283300 -18.628500
C -15.427800 -16.000500 -23.006700
H -15.150800 -20.029600 -18.055300
H -15.132500 -16.400600 -17.434000
N -14.958400 -17.267600 -17.611900
N -14.313400 -18.633700 -19.303400
C -14.245200 -15.833600 -21.076500
C -14.130200 -17.529100 -18.677200
N -14.102500 -15.811400 -22.416400
H -13.349700 -16.002200 -22.854600
C -13.057000 -15.841500 -20.191400
C -13.035400 -16.579000 -19.005100
C -11.961800 -15.042100 -20.508700
H -11.952800 -14.566400 -21.331100
C -11.946400 -16.459300 -18.145600
H -11.934600 -16.952700 -17.334200
C -10.881000 -14.928300 -19.643600
C -10.880600 -15.631800 -18.457200
H -10.150700 -15.548700 -17.854700
H -10.146400 -14.368900 -19.867200
46
Fragment
H -17.561100 -13.121000 -16.689000
H -16.873000 -11.980600 -17.576000
H -16.800800 -11.904800 -15.979900
C -16.799900 -12.506400 -16.752800
O -16.317400 -14.355700 -18.556900
H -15.973100 -14.939600 -19.247000
C -15.524700 -13.291700 -16.773500
N -15.265400 -14.200600 -17.652300
N -14.731600 -12.168200 -14.877900
C -14.472300 -13.077100 -15.756600
H -14.023900 -11.429100 -13.283100
O -13.679600 -12.013100 -13.973200
C -13.197100 -13.862300 -15.777300
H -13.196200 -14.463900 -16.550200
H -13.124100 -14.388100 -14.954100
H -12.436000 -13.247700 -15.841100
H -17.086000 -16.293900 -21.761600
H -16.848100 -17.736600 -18.258100
H -16.690000 -14.740400 -21.907900
H -16.423000 -18.521800 -16.911300
C -16.329200 -15.658200 -21.820400
H -16.103800 -19.634900 -19.292500
C -16.100300 -18.175300 -17.780500
H -15.578400 -15.385000 -23.767600
H -15.562100 -16.934100 -23.307800
N -15.461300 -15.766700 -20.628300
C -15.458500 -19.283300 -18.628500
C -15.427800 -16.000500 -23.006700
H -15.150800 -20.029600 -18.055300
H -15.132500 -16.400600 -17.434000
N -14.958400 -17.267600 -17.611900
N -14.313400 -18.633700 -19.303400
C -14.245200 -15.833600 -21.076500
C -14.130200 -17.529100 -18.677200
N -14.102500 -15.811400 -22.416400
H -13.349700 -16.002200 -22.854600
C -13.057000 -15.841500 -20.191400
C -13.035400 -16.579000 -19.005100
C -11.961800 -15.042100 -20.508700
H -11.952800 -14.566400 -21.331100
C -11.946400 -16.459300 -18.145600
H -11.934600 -16.952700 -17.334200
C -10.881000 -14.928300 -19.643600
C -10.880600 -15.631800 -18.457200
H -10.150700 -15.548700 -17.854700
H -10.146400 -14.368900 -19.867200
