16
Fragment
H -17.561100 -13.121000 -16.689000
H -16.873000 -11.980600 -17.576000
H -16.800800 -11.904800 -15.979900
C -16.799900 -12.506400 -16.752800
O -16.317400 -14.355700 -18.556900
H -15.973100 -14.939600 -19.247000
C -15.524700 -13.291700 -16.773500
N -15.265400 -14.200600 -17.652300
N -14.731600 -12.168200 -14.877900
C -14.472300 -13.077100 -15.756600
H -14.023900 -11.429100 -13.283100
O -13.679600 -12.013100 -13.973200
C -13.197100 -13.862300 -15.777300
H -13.196200 -14.463900 -16.550200
H -13.124100 -14.388100 -14.954100
H -12.436000 -13.247700 -15.841100
30
Fragment
H -13.507800 -8.685900 -21.761600
H -13.269800 -10.128600 -18.258100
H -13.111700 -7.132300 -21.907900
H -12.844700 -10.913800 -16.911300
C -12.751000 -8.050200 -21.820400
H -12.525500 -12.026900 -19.292500
C -12.522000 -10.567200 -17.780500
H -12.000100 -7.777000 -23.767600
H -11.983900 -9.326100 -23.307800
N -11.883000 -8.158700 -20.628300
C -11.880200 -11.675300 -18.628500
C -11.849500 -8.392500 -23.006700
H -11.572500 -12.421600 -18.055300
H -11.554200 -8.792600 -17.434000
N -11.380100 -9.659600 -17.611900
N -10.735200 -11.025700 -19.303400
C -10.666900 -8.225500 -21.076500
C -10.551900 -9.921000 -18.677200
N -10.524200 -8.203400 -22.416400
H -9.771400 -8.394200 -22.854600
C -9.478700 -8.233500 -20.191400
C -9.457100 -8.971000 -19.005100
C -8.383500 -7.434100 -20.508700
H -8.374500 -6.958400 -21.331100
C -8.368100 -8.851200 -18.145600
H -8.356400 -9.344700 -17.334200
C -7.302700 -7.320300 -19.643600
C -7.302400 -8.023700 -18.457200
H -6.572400 -7.940700 -17.854700
H -6.568100 -6.760900 -19.867200
46
Fragment
H -17.561100 -13.121000 -16.689000
H -16.873000 -11.980600 -17.576000
H -16.800800 -11.904800 -15.979900
C -16.799900 -12.506400 -16.752800
O -16.317400 -14.355700 -18.556900
H -15.973100 -14.939600 -19.247000
C -15.524700 -13.291700 -16.773500
N -15.265400 -14.200600 -17.652300
N -14.731600 -12.168200 -14.877900
C -14.472300 -13.077100 -15.756600
H -14.023900 -11.429100 -13.283100
O -13.679600 -12.013100 -13.973200
C -13.197100 -13.862300 -15.777300
H -13.196200 -14.463900 -16.550200
H -13.124100 -14.388100 -14.954100
H -12.436000 -13.247700 -15.841100
H -13.507800 -8.685900 -21.761600
H -13.269800 -10.128600 -18.258100
H -13.111700 -7.132300 -21.907900
H -12.844700 -10.913800 -16.911300
C -12.751000 -8.050200 -21.820400
H -12.525500 -12.026900 -19.292500
C -12.522000 -10.567200 -17.780500
H -12.000100 -7.777000 -23.767600
H -11.983900 -9.326100 -23.307800
N -11.883000 -8.158700 -20.628300
C -11.880200 -11.675300 -18.628500
C -11.849500 -8.392500 -23.006700
H -11.572500 -12.421600 -18.055300
H -11.554200 -8.792600 -17.434000
N -11.380100 -9.659600 -17.611900
N -10.735200 -11.025700 -19.303400
C -10.666900 -8.225500 -21.076500
C -10.551900 -9.921000 -18.677200
N -10.524200 -8.203400 -22.416400
H -9.771400 -8.394200 -22.854600
C -9.478700 -8.233500 -20.191400
C -9.457100 -8.971000 -19.005100
C -8.383500 -7.434100 -20.508700
H -8.374500 -6.958400 -21.331100
C -8.368100 -8.851200 -18.145600
H -8.356400 -9.344700 -17.334200
C -7.302700 -7.320300 -19.643600
C -7.302400 -8.023700 -18.457200
H -6.572400 -7.940700 -17.854700
H -6.568100 -6.760900 -19.867200
