16
Fragment
H -17.561100 -13.121000 -16.689000
H -16.873000 -11.980600 -17.576000
H -16.800800 -11.904800 -15.979900
C -16.799900 -12.506400 -16.752800
O -16.317400 -14.355700 -18.556900
H -15.973100 -14.939600 -19.247000
C -15.524700 -13.291700 -16.773500
N -15.265400 -14.200600 -17.652300
N -14.731600 -12.168200 -14.877900
C -14.472300 -13.077100 -15.756600
H -14.023900 -11.429100 -13.283100
O -13.679600 -12.013100 -13.973200
C -13.197100 -13.862300 -15.777300
H -13.196200 -14.463900 -16.550200
H -13.124100 -14.388100 -14.954100
H -12.436000 -13.247700 -15.841100
30
Fragment
H -15.080000 -19.607900 -12.662900
H -15.075700 -18.428100 -14.675400
C -14.345800 -18.345000 -14.073000
C -14.345500 -19.048500 -12.886500
H -13.291800 -17.024000 -15.195900
C -13.280100 -17.517500 -14.384500
H -13.273600 -19.410300 -11.199000
C -13.264600 -18.934700 -12.021400
C -12.191000 -17.397700 -13.525000
C -12.169400 -18.135200 -12.338700
H -11.876700 -17.974500 -9.675500
N -11.123900 -18.165300 -10.113700
C -11.096200 -16.447700 -13.852900
C -10.981300 -18.143200 -11.453600
N -10.913000 -15.343000 -13.226700
N -10.268000 -16.709200 -14.918200
H -10.093900 -17.576200 -15.096100
H -10.075600 -13.947100 -14.474800
C -9.798600 -17.976200 -9.523400
C -9.768000 -14.693400 -13.901600
N -9.765100 -18.210000 -11.901800
H -9.664300 -17.042600 -9.222300
H -9.648000 -18.591700 -8.762500
C -9.126100 -15.801500 -14.749600
H -9.122600 -14.341800 -13.237600
C -8.897200 -18.318500 -10.709700
H -8.803400 -15.454900 -15.618800
H -8.536400 -19.236400 -10.622200
H -8.378400 -16.240200 -14.272000
H -8.140400 -17.682800 -10.768600
46
Fragment
H -17.561100 -13.121000 -16.689000
H -16.873000 -11.980600 -17.576000
H -16.800800 -11.904800 -15.979900
C -16.799900 -12.506400 -16.752800
O -16.317400 -14.355700 -18.556900
H -15.973100 -14.939600 -19.247000
C -15.524700 -13.291700 -16.773500
N -15.265400 -14.200600 -17.652300
N -14.731600 -12.168200 -14.877900
C -14.472300 -13.077100 -15.756600
H -14.023900 -11.429100 -13.283100
O -13.679600 -12.013100 -13.973200
C -13.197100 -13.862300 -15.777300
H -13.196200 -14.463900 -16.550200
H -13.124100 -14.388100 -14.954100
H -12.436000 -13.247700 -15.841100
H -15.080000 -19.607900 -12.662900
H -15.075700 -18.428100 -14.675400
C -14.345800 -18.345000 -14.073000
C -14.345500 -19.048500 -12.886500
H -13.291800 -17.024000 -15.195900
C -13.280100 -17.517500 -14.384500
H -13.273600 -19.410300 -11.199000
C -13.264600 -18.934700 -12.021400
C -12.191000 -17.397700 -13.525000
C -12.169400 -18.135200 -12.338700
H -11.876700 -17.974500 -9.675500
N -11.123900 -18.165300 -10.113700
C -11.096200 -16.447700 -13.852900
C -10.981300 -18.143200 -11.453600
N -10.913000 -15.343000 -13.226700
N -10.268000 -16.709200 -14.918200
H -10.093900 -17.576200 -15.096100
H -10.075600 -13.947100 -14.474800
C -9.798600 -17.976200 -9.523400
C -9.768000 -14.693400 -13.901600
N -9.765100 -18.210000 -11.901800
H -9.664300 -17.042600 -9.222300
H -9.648000 -18.591700 -8.762500
C -9.126100 -15.801500 -14.749600
H -9.122600 -14.341800 -13.237600
C -8.897200 -18.318500 -10.709700
H -8.803400 -15.454900 -15.618800
H -8.536400 -19.236400 -10.622200
H -8.378400 -16.240200 -14.272000
H -8.140400 -17.682800 -10.768600
