24
Fragment
H -9.748300 -37.012200 -15.132300
H -9.563500 -38.516000 -14.731800
H -9.287300 -38.057200 -16.205100
C -9.227500 -37.804400 -15.281100
N -7.828200 -37.540800 -14.936900
O -7.812000 -39.186800 -13.366200
N -7.580100 -35.836500 -16.624900
C -7.214300 -38.287100 -13.942000
C -7.104800 -36.591700 -15.620500
H -6.483600 -34.443100 -17.609300
C -6.479200 -35.087700 -16.938600
H -5.913300 -39.301000 -12.134200
N -5.892700 -37.968000 -13.626000
C -5.788900 -36.347800 -15.325300
N -5.369400 -35.364500 -16.181800
C -5.265900 -38.715800 -12.533000
C -5.088600 -37.022400 -14.286300
H -4.938600 -38.103100 -11.872000
H -4.535500 -39.234700 -12.878100
H -4.130400 -33.956300 -16.806700
C -4.062500 -34.778800 -16.317700
O -3.911000 -36.830500 -13.966200
H -3.697400 -34.603700 -15.447600
H -3.488100 -35.386200 -16.790600
23
Fragment
O -3.302600 -43.261100 -11.707100
H -3.288200 -42.729000 -12.330400
H -2.962800 -40.519200 -14.668300
H -2.653500 -44.760300 -9.814800
N -2.279100 -41.477500 -13.260100
O -2.255400 -40.504500 -14.254100
C -2.089600 -43.289400 -11.111200
C -1.935200 -44.226300 -10.065700
C -1.208700 -41.496700 -12.568400
C -1.031700 -42.457000 -11.481900
C -0.749100 -44.353000 -9.426300
H -0.670100 -44.971800 -8.736300
H -0.529700 -40.888800 -12.758200
C 0.231200 -42.588000 -10.810400
C 0.377200 -43.566700 -9.780200
H 1.316500 -41.159000 -11.785900
C 1.381000 -41.823700 -11.139300
C 1.639100 -43.748900 -9.165800
H 1.728000 -44.388200 -8.495800
C 2.581700 -42.045400 -10.524100
C 2.710400 -43.025600 -9.522800
H 3.323200 -41.541300 -10.771000
H 3.531600 -43.169900 -9.111100
47
Fragment
H -9.748300 -37.012200 -15.132300
H -9.563500 -38.516000 -14.731800
H -9.287300 -38.057200 -16.205100
C -9.227500 -37.804400 -15.281100
N -7.828200 -37.540800 -14.936900
O -7.812000 -39.186800 -13.366200
N -7.580100 -35.836500 -16.624900
C -7.214300 -38.287100 -13.942000
C -7.104800 -36.591700 -15.620500
H -6.483600 -34.443100 -17.609300
C -6.479200 -35.087700 -16.938600
H -5.913300 -39.301000 -12.134200
N -5.892700 -37.968000 -13.626000
C -5.788900 -36.347800 -15.325300
N -5.369400 -35.364500 -16.181800
C -5.265900 -38.715800 -12.533000
C -5.088600 -37.022400 -14.286300
H -4.938600 -38.103100 -11.872000
H -4.535500 -39.234700 -12.878100
H -4.130400 -33.956300 -16.806700
C -4.062500 -34.778800 -16.317700
O -3.911000 -36.830500 -13.966200
H -3.697400 -34.603700 -15.447600
H -3.488100 -35.386200 -16.790600
O -3.302600 -43.261100 -11.707100
H -3.288200 -42.729000 -12.330400
H -2.962800 -40.519200 -14.668300
H -2.653500 -44.760300 -9.814800
N -2.279100 -41.477500 -13.260100
O -2.255400 -40.504500 -14.254100
C -2.089600 -43.289400 -11.111200
C -1.935200 -44.226300 -10.065700
C -1.208700 -41.496700 -12.568400
C -1.031700 -42.457000 -11.481900
C -0.749100 -44.353000 -9.426300
H -0.670100 -44.971800 -8.736300
H -0.529700 -40.888800 -12.758200
C 0.231200 -42.588000 -10.810400
C 0.377200 -43.566700 -9.780200
H 1.316500 -41.159000 -11.785900
C 1.381000 -41.823700 -11.139300
C 1.639100 -43.748900 -9.165800
H 1.728000 -44.388200 -8.495800
C 2.581700 -42.045400 -10.524100
C 2.710400 -43.025600 -9.522800
H 3.323200 -41.541300 -10.771000
H 3.531600 -43.169900 -9.111100
