24
Fragment
H -9.748300 -37.012200 -15.132300
H -9.563500 -38.516000 -14.731800
H -9.287300 -38.057200 -16.205100
C -9.227500 -37.804400 -15.281100
N -7.828200 -37.540800 -14.936900
O -7.812000 -39.186800 -13.366200
N -7.580100 -35.836500 -16.624900
C -7.214300 -38.287100 -13.942000
C -7.104800 -36.591700 -15.620500
H -6.483600 -34.443100 -17.609300
C -6.479200 -35.087700 -16.938600
H -5.913300 -39.301000 -12.134200
N -5.892700 -37.968000 -13.626000
C -5.788900 -36.347800 -15.325300
N -5.369400 -35.364500 -16.181800
C -5.265900 -38.715800 -12.533000
C -5.088600 -37.022400 -14.286300
H -4.938600 -38.103100 -11.872000
H -4.535500 -39.234700 -12.878100
H -4.130400 -33.956300 -16.806700
C -4.062500 -34.778800 -16.317700
O -3.911000 -36.830500 -13.966200
H -3.697400 -34.603700 -15.447600
H -3.488100 -35.386200 -16.790600
23
Fragment
H -1.567400 -33.291100 -15.015700
H -1.359000 -34.919700 -13.355800
C -0.746200 -33.435400 -14.603900
C -0.617500 -34.415600 -13.602700
H 0.236200 -32.072800 -15.630900
C 0.325100 -32.712100 -14.961000
C 0.583100 -34.637300 -12.987400
H 0.647700 -35.302000 -12.340800
C 1.587000 -32.894300 -14.346600
C 1.733000 -33.873000 -13.316400
H 2.493900 -35.572200 -11.368500
H 2.634300 -31.489200 -15.390500
C 2.713200 -32.108000 -14.700400
C 2.995900 -34.004000 -12.644800
C 3.172900 -34.964300 -11.558300
C 3.899400 -32.234700 -14.061100
C 4.053800 -33.171600 -13.015600
O 4.219600 -35.956500 -9.872700
N 4.243300 -34.983500 -10.866700
H 4.617700 -31.700700 -14.312000
H 4.927000 -35.941800 -9.458500
H 5.252400 -33.732000 -11.796400
O 5.266700 -33.199900 -12.419700
47
Fragment
H -9.748300 -37.012200 -15.132300
H -9.563500 -38.516000 -14.731800
H -9.287300 -38.057200 -16.205100
C -9.227500 -37.804400 -15.281100
N -7.828200 -37.540800 -14.936900
O -7.812000 -39.186800 -13.366200
N -7.580100 -35.836500 -16.624900
C -7.214300 -38.287100 -13.942000
C -7.104800 -36.591700 -15.620500
H -6.483600 -34.443100 -17.609300
C -6.479200 -35.087700 -16.938600
H -5.913300 -39.301000 -12.134200
N -5.892700 -37.968000 -13.626000
C -5.788900 -36.347800 -15.325300
N -5.369400 -35.364500 -16.181800
C -5.265900 -38.715800 -12.533000
C -5.088600 -37.022400 -14.286300
H -4.938600 -38.103100 -11.872000
H -4.535500 -39.234700 -12.878100
H -4.130400 -33.956300 -16.806700
C -4.062500 -34.778800 -16.317700
O -3.911000 -36.830500 -13.966200
H -3.697400 -34.603700 -15.447600
H -3.488100 -35.386200 -16.790600
H -1.567400 -33.291100 -15.015700
H -1.359000 -34.919700 -13.355800
C -0.746200 -33.435400 -14.603900
C -0.617500 -34.415600 -13.602700
H 0.236200 -32.072800 -15.630900
C 0.325100 -32.712100 -14.961000
C 0.583100 -34.637300 -12.987400
H 0.647700 -35.302000 -12.340800
C 1.587000 -32.894300 -14.346600
C 1.733000 -33.873000 -13.316400
H 2.493900 -35.572200 -11.368500
H 2.634300 -31.489200 -15.390500
C 2.713200 -32.108000 -14.700400
C 2.995900 -34.004000 -12.644800
C 3.172900 -34.964300 -11.558300
C 3.899400 -32.234700 -14.061100
C 4.053800 -33.171600 -13.015600
O 4.219600 -35.956500 -9.872700
N 4.243300 -34.983500 -10.866700
H 4.617700 -31.700700 -14.312000
H 4.927000 -35.941800 -9.458500
H 5.252400 -33.732000 -11.796400
O 5.266700 -33.199900 -12.419700
