24
Fragment
H -9.748300 -37.012200 -15.132300
H -9.563500 -38.516000 -14.731800
H -9.287300 -38.057200 -16.205100
C -9.227500 -37.804400 -15.281100
N -7.828200 -37.540800 -14.936900
O -7.812000 -39.186800 -13.366200
N -7.580100 -35.836500 -16.624900
C -7.214300 -38.287100 -13.942000
C -7.104800 -36.591700 -15.620500
H -6.483600 -34.443100 -17.609300
C -6.479200 -35.087700 -16.938600
H -5.913300 -39.301000 -12.134200
N -5.892700 -37.968000 -13.626000
C -5.788900 -36.347800 -15.325300
N -5.369400 -35.364500 -16.181800
C -5.265900 -38.715800 -12.533000
C -5.088600 -37.022400 -14.286300
H -4.938600 -38.103100 -11.872000
H -4.535500 -39.234700 -12.878100
H -4.130400 -33.956300 -16.806700
C -4.062500 -34.778800 -16.317700
O -3.911000 -36.830500 -13.966200
H -3.697400 -34.603700 -15.447600
H -3.488100 -35.386200 -16.790600
23
Fragment
H -8.695700 -30.426400 -19.036800
H -8.487200 -28.797800 -17.376900
C -7.874500 -30.282100 -18.625100
C -7.745700 -29.301900 -17.623800
H -6.892000 -31.644700 -19.652000
C -6.803100 -31.005400 -18.982100
C -6.545100 -29.080200 -17.008600
H -6.480500 -28.415500 -16.362000
C -5.541200 -30.823200 -18.367700
C -5.395200 -29.844500 -17.337500
H -4.634300 -28.145300 -15.389700
H -4.493900 -32.228300 -19.411600
C -4.415000 -31.609500 -18.721600
C -4.132300 -29.713500 -16.666000
C -3.955300 -28.753200 -15.579500
C -3.228800 -31.482800 -18.082200
C -3.074400 -30.545900 -17.036700
O -2.908600 -27.761000 -13.893800
N -2.885000 -28.734000 -14.887800
H -2.510500 -32.016800 -18.333100
H -2.201300 -27.775700 -13.479600
H -1.875800 -29.985500 -15.817500
O -1.861500 -30.517600 -16.440800
47
Fragment
H -9.748300 -37.012200 -15.132300
H -9.563500 -38.516000 -14.731800
H -9.287300 -38.057200 -16.205100
C -9.227500 -37.804400 -15.281100
N -7.828200 -37.540800 -14.936900
O -7.812000 -39.186800 -13.366200
N -7.580100 -35.836500 -16.624900
C -7.214300 -38.287100 -13.942000
C -7.104800 -36.591700 -15.620500
H -6.483600 -34.443100 -17.609300
C -6.479200 -35.087700 -16.938600
H -5.913300 -39.301000 -12.134200
N -5.892700 -37.968000 -13.626000
C -5.788900 -36.347800 -15.325300
N -5.369400 -35.364500 -16.181800
C -5.265900 -38.715800 -12.533000
C -5.088600 -37.022400 -14.286300
H -4.938600 -38.103100 -11.872000
H -4.535500 -39.234700 -12.878100
H -4.130400 -33.956300 -16.806700
C -4.062500 -34.778800 -16.317700
O -3.911000 -36.830500 -13.966200
H -3.697400 -34.603700 -15.447600
H -3.488100 -35.386200 -16.790600
H -8.695700 -30.426400 -19.036800
H -8.487200 -28.797800 -17.376900
C -7.874500 -30.282100 -18.625100
C -7.745700 -29.301900 -17.623800
H -6.892000 -31.644700 -19.652000
C -6.803100 -31.005400 -18.982100
C -6.545100 -29.080200 -17.008600
H -6.480500 -28.415500 -16.362000
C -5.541200 -30.823200 -18.367700
C -5.395200 -29.844500 -17.337500
H -4.634300 -28.145300 -15.389700
H -4.493900 -32.228300 -19.411600
C -4.415000 -31.609500 -18.721600
C -4.132300 -29.713500 -16.666000
C -3.955300 -28.753200 -15.579500
C -3.228800 -31.482800 -18.082200
C -3.074400 -30.545900 -17.036700
O -2.908600 -27.761000 -13.893800
N -2.885000 -28.734000 -14.887800
H -2.510500 -32.016800 -18.333100
H -2.201300 -27.775700 -13.479600
H -1.875800 -29.985500 -15.817500
O -1.861500 -30.517600 -16.440800
