24
Fragment
H -9.748300 -37.012200 -15.132300
H -9.563500 -38.516000 -14.731800
H -9.287300 -38.057200 -16.205100
C -9.227500 -37.804400 -15.281100
N -7.828200 -37.540800 -14.936900
O -7.812000 -39.186800 -13.366200
N -7.580100 -35.836500 -16.624900
C -7.214300 -38.287100 -13.942000
C -7.104800 -36.591700 -15.620500
H -6.483600 -34.443100 -17.609300
C -6.479200 -35.087700 -16.938600
H -5.913300 -39.301000 -12.134200
N -5.892700 -37.968000 -13.626000
C -5.788900 -36.347800 -15.325300
N -5.369400 -35.364500 -16.181800
C -5.265900 -38.715800 -12.533000
C -5.088600 -37.022400 -14.286300
H -4.938600 -38.103100 -11.872000
H -4.535500 -39.234700 -12.878100
H -4.130400 -33.956300 -16.806700
C -4.062500 -34.778800 -16.317700
O -3.911000 -36.830500 -13.966200
H -3.697400 -34.603700 -15.447600
H -3.488100 -35.386200 -16.790600
24
Fragment
H -3.494400 -41.074800 -7.336100
H -3.285100 -41.857300 -8.679200
O -3.071500 -39.630500 -10.160600
C -2.920000 -41.682200 -7.809000
H -2.852100 -42.504700 -7.320100
H -2.447000 -37.226300 -11.248700
H -2.043900 -38.357900 -12.254800
C -1.893900 -39.438600 -9.840500
C -1.716600 -37.745200 -11.593700
N -1.613100 -41.096500 -7.944900
C -1.193600 -40.113200 -8.801400
N -1.089800 -38.493000 -10.500800
H -1.069200 -37.160000 -11.992600
C -0.503300 -41.373300 -7.188200
H -0.498900 -42.017900 -6.517400
C 0.122300 -39.869300 -8.506300
C 0.231800 -38.173900 -10.184700
N 0.597600 -40.624500 -7.501800
O 0.829500 -37.274200 -10.760500
N 0.845700 -38.920200 -9.189900
C 2.245000 -38.656600 -8.845700
H 2.304800 -38.403800 -7.921600
H 2.581000 -37.945000 -9.395000
H 2.765800 -39.448800 -8.994500
48
Fragment
H -9.748300 -37.012200 -15.132300
H -9.563500 -38.516000 -14.731800
H -9.287300 -38.057200 -16.205100
C -9.227500 -37.804400 -15.281100
N -7.828200 -37.540800 -14.936900
O -7.812000 -39.186800 -13.366200
N -7.580100 -35.836500 -16.624900
C -7.214300 -38.287100 -13.942000
C -7.104800 -36.591700 -15.620500
H -6.483600 -34.443100 -17.609300
C -6.479200 -35.087700 -16.938600
H -5.913300 -39.301000 -12.134200
N -5.892700 -37.968000 -13.626000
C -5.788900 -36.347800 -15.325300
N -5.369400 -35.364500 -16.181800
C -5.265900 -38.715800 -12.533000
C -5.088600 -37.022400 -14.286300
H -4.938600 -38.103100 -11.872000
H -4.535500 -39.234700 -12.878100
H -4.130400 -33.956300 -16.806700
C -4.062500 -34.778800 -16.317700
O -3.911000 -36.830500 -13.966200
H -3.697400 -34.603700 -15.447600
H -3.488100 -35.386200 -16.790600
H -3.494400 -41.074800 -7.336100
H -3.285100 -41.857300 -8.679200
O -3.071500 -39.630500 -10.160600
C -2.920000 -41.682200 -7.809000
H -2.852100 -42.504700 -7.320100
H -2.447000 -37.226300 -11.248700
H -2.043900 -38.357900 -12.254800
C -1.893900 -39.438600 -9.840500
C -1.716600 -37.745200 -11.593700
N -1.613100 -41.096500 -7.944900
C -1.193600 -40.113200 -8.801400
N -1.089800 -38.493000 -10.500800
H -1.069200 -37.160000 -11.992600
C -0.503300 -41.373300 -7.188200
H -0.498900 -42.017900 -6.517400
C 0.122300 -39.869300 -8.506300
C 0.231800 -38.173900 -10.184700
N 0.597600 -40.624500 -7.501800
O 0.829500 -37.274200 -10.760500
N 0.845700 -38.920200 -9.189900
C 2.245000 -38.656600 -8.845700
H 2.304800 -38.403800 -7.921600
H 2.581000 -37.945000 -9.395000
H 2.765800 -39.448800 -8.994500
