24
Fragment
H -9.748300 -37.012200 -15.132300
H -9.563500 -38.516000 -14.731800
H -9.287300 -38.057200 -16.205100
C -9.227500 -37.804400 -15.281100
N -7.828200 -37.540800 -14.936900
O -7.812000 -39.186800 -13.366200
N -7.580100 -35.836500 -16.624900
C -7.214300 -38.287100 -13.942000
C -7.104800 -36.591700 -15.620500
H -6.483600 -34.443100 -17.609300
C -6.479200 -35.087700 -16.938600
H -5.913300 -39.301000 -12.134200
N -5.892700 -37.968000 -13.626000
C -5.788900 -36.347800 -15.325300
N -5.369400 -35.364500 -16.181800
C -5.265900 -38.715800 -12.533000
C -5.088600 -37.022400 -14.286300
H -4.938600 -38.103100 -11.872000
H -4.535500 -39.234700 -12.878100
H -4.130400 -33.956300 -16.806700
C -4.062500 -34.778800 -16.317700
O -3.911000 -36.830500 -13.966200
H -3.697400 -34.603700 -15.447600
H -3.488100 -35.386200 -16.790600
23
Fragment
H -6.877200 -33.291100 -23.057900
H -6.668800 -34.919700 -21.398000
C -6.056000 -33.435400 -22.646200
C -5.927300 -34.415600 -21.644900
H -5.073500 -32.072800 -23.673200
C -4.984600 -32.712100 -23.003300
C -4.726600 -34.637300 -21.029700
H -4.662000 -35.302000 -20.383100
C -3.722800 -32.894300 -22.388800
C -3.576700 -33.873000 -21.358600
H -2.815900 -35.572200 -19.410800
H -2.675400 -31.489200 -23.432700
C -2.596500 -32.108000 -22.742700
C -2.313800 -34.004000 -20.687100
C -2.136900 -34.964300 -19.600600
C -1.410300 -32.234700 -22.103300
C -1.256000 -33.171600 -21.057800
O -1.090100 -35.956500 -17.914900
N -1.066500 -34.983500 -18.908900
H -0.692000 -31.700700 -22.354200
H -0.382800 -35.941800 -17.500700
H -0.057300 -33.732000 -19.838600
O -0.043000 -33.199900 -20.461900
47
Fragment
H -9.748300 -37.012200 -15.132300
H -9.563500 -38.516000 -14.731800
H -9.287300 -38.057200 -16.205100
C -9.227500 -37.804400 -15.281100
N -7.828200 -37.540800 -14.936900
O -7.812000 -39.186800 -13.366200
N -7.580100 -35.836500 -16.624900
C -7.214300 -38.287100 -13.942000
C -7.104800 -36.591700 -15.620500
H -6.483600 -34.443100 -17.609300
C -6.479200 -35.087700 -16.938600
H -5.913300 -39.301000 -12.134200
N -5.892700 -37.968000 -13.626000
C -5.788900 -36.347800 -15.325300
N -5.369400 -35.364500 -16.181800
C -5.265900 -38.715800 -12.533000
C -5.088600 -37.022400 -14.286300
H -4.938600 -38.103100 -11.872000
H -4.535500 -39.234700 -12.878100
H -4.130400 -33.956300 -16.806700
C -4.062500 -34.778800 -16.317700
O -3.911000 -36.830500 -13.966200
H -3.697400 -34.603700 -15.447600
H -3.488100 -35.386200 -16.790600
H -6.877200 -33.291100 -23.057900
H -6.668800 -34.919700 -21.398000
C -6.056000 -33.435400 -22.646200
C -5.927300 -34.415600 -21.644900
H -5.073500 -32.072800 -23.673200
C -4.984600 -32.712100 -23.003300
C -4.726600 -34.637300 -21.029700
H -4.662000 -35.302000 -20.383100
C -3.722800 -32.894300 -22.388800
C -3.576700 -33.873000 -21.358600
H -2.815900 -35.572200 -19.410800
H -2.675400 -31.489200 -23.432700
C -2.596500 -32.108000 -22.742700
C -2.313800 -34.004000 -20.687100
C -2.136900 -34.964300 -19.600600
C -1.410300 -32.234700 -22.103300
C -1.256000 -33.171600 -21.057800
O -1.090100 -35.956500 -17.914900
N -1.066500 -34.983500 -18.908900
H -0.692000 -31.700700 -22.354200
H -0.382800 -35.941800 -17.500700
H -0.057300 -33.732000 -19.838600
O -0.043000 -33.199900 -20.461900
