24
Fragment
H -26.216000 -6.182600 -10.648500
H -26.148200 -3.663700 -9.180900
N -25.812100 -3.977500 -8.412300
H -25.734400 -3.440800 -7.728100
N -25.507500 -5.632300 -10.735400
H -25.035200 -5.933400 -11.439700
C -24.899500 -4.958900 -8.480000
N -24.734300 -5.769900 -9.562200
N -24.081000 -5.338800 -7.491300
C -23.774900 -6.690500 -9.176800
N -23.542900 -7.761800 -11.108300
N -23.382700 -6.425200 -7.946100
N -23.231600 -8.911500 -13.111500
N -23.199300 -7.719700 -9.876400
C -22.946000 -8.763800 -11.833700
N -22.489400 -9.964100 -13.599000
H -22.068900 -10.143500 -9.640500
N -22.005300 -9.708300 -11.450500
C -21.745800 -10.427500 -12.581200
N -21.401000 -9.977100 -10.207900
H -21.018400 -9.210200 -9.925700
N -20.854300 -11.417300 -12.654600
H -20.788400 -11.879800 -13.436200
H -20.469000 -11.738400 -11.885200
24
Fragment
H -29.279400 1.076700 -2.791600
H -29.211600 3.595600 -1.323900
N -28.875500 3.281800 -0.555300
H -28.797800 3.818500 0.128900
N -28.571000 1.627000 -2.878400
H -28.098700 1.325900 -3.582800
C -27.963000 2.300400 -0.623100
N -27.797700 1.489400 -1.705300
N -27.144400 1.920500 0.365700
C -26.838300 0.568800 -1.319800
N -26.606300 -0.502500 -3.251400
N -26.446100 0.834100 -0.089100
N -26.295000 -1.652200 -5.254500
N -26.262700 -0.460400 -2.019500
C -26.009400 -1.504500 -3.976700
N -25.552800 -2.704800 -5.742000
H -25.132300 -2.884200 -1.783500
N -25.068700 -2.449000 -3.593500
C -24.809200 -3.168200 -4.724200
N -24.464400 -2.717800 -2.350900
H -24.081800 -1.950900 -2.068700
N -23.917700 -4.158000 -4.797600
H -23.851800 -4.620500 -5.579200
H -23.532400 -4.479100 -4.028300
48
Fragment
H -26.216000 -6.182600 -10.648500
H -26.148200 -3.663700 -9.180900
N -25.812100 -3.977500 -8.412300
H -25.734400 -3.440800 -7.728100
N -25.507500 -5.632300 -10.735400
H -25.035200 -5.933400 -11.439700
C -24.899500 -4.958900 -8.480000
N -24.734300 -5.769900 -9.562200
N -24.081000 -5.338800 -7.491300
C -23.774900 -6.690500 -9.176800
N -23.542900 -7.761800 -11.108300
N -23.382700 -6.425200 -7.946100
N -23.231600 -8.911500 -13.111500
N -23.199300 -7.719700 -9.876400
C -22.946000 -8.763800 -11.833700
N -22.489400 -9.964100 -13.599000
H -22.068900 -10.143500 -9.640500
N -22.005300 -9.708300 -11.450500
C -21.745800 -10.427500 -12.581200
N -21.401000 -9.977100 -10.207900
H -21.018400 -9.210200 -9.925700
N -20.854300 -11.417300 -12.654600
H -20.788400 -11.879800 -13.436200
H -20.469000 -11.738400 -11.885200
H -29.279400 1.076700 -2.791600
H -29.211600 3.595600 -1.323900
N -28.875500 3.281800 -0.555300
H -28.797800 3.818500 0.128900
N -28.571000 1.627000 -2.878400
H -28.098700 1.325900 -3.582800
C -27.963000 2.300400 -0.623100
N -27.797700 1.489400 -1.705300
N -27.144400 1.920500 0.365700
C -26.838300 0.568800 -1.319800
N -26.606300 -0.502500 -3.251400
N -26.446100 0.834100 -0.089100
N -26.295000 -1.652200 -5.254500
N -26.262700 -0.460400 -2.019500
C -26.009400 -1.504500 -3.976700
N -25.552800 -2.704800 -5.742000
H -25.132300 -2.884200 -1.783500
N -25.068700 -2.449000 -3.593500
C -24.809200 -3.168200 -4.724200
N -24.464400 -2.717800 -2.350900
H -24.081800 -1.950900 -2.068700
N -23.917700 -4.158000 -4.797600
H -23.851800 -4.620500 -5.579200
H -23.532400 -4.479100 -4.028300
