24
Fragment
H -26.216000 -6.182600 -10.648500
H -26.148200 -3.663700 -9.180900
N -25.812100 -3.977500 -8.412300
H -25.734400 -3.440800 -7.728100
N -25.507500 -5.632300 -10.735400
H -25.035200 -5.933400 -11.439700
C -24.899500 -4.958900 -8.480000
N -24.734300 -5.769900 -9.562200
N -24.081000 -5.338800 -7.491300
C -23.774900 -6.690500 -9.176800
N -23.542900 -7.761800 -11.108300
N -23.382700 -6.425200 -7.946100
N -23.231600 -8.911500 -13.111500
N -23.199300 -7.719700 -9.876400
C -22.946000 -8.763800 -11.833700
N -22.489400 -9.964100 -13.599000
H -22.068900 -10.143500 -9.640500
N -22.005300 -9.708300 -11.450500
C -21.745800 -10.427500 -12.581200
N -21.401000 -9.977100 -10.207900
H -21.018400 -9.210200 -9.925700
N -20.854300 -11.417300 -12.654600
H -20.788400 -11.879800 -13.436200
H -20.469000 -11.738400 -11.885200
24
Fragment
H -24.163800 -2.134700 -11.685700
H -23.844400 -1.993400 -10.134700
N -23.778500 -2.455900 -10.916300
H -23.614400 -4.662900 -13.645200
N -23.231800 -3.896000 -13.363100
C -22.887000 -3.445700 -10.989700
N -22.627500 -4.164800 -12.120400
H -22.563900 -3.729700 -13.930400
N -22.143400 -3.909000 -9.971900
C -21.686800 -5.109300 -11.737200
N -21.433500 -6.153400 -13.694500
N -21.401200 -4.961600 -10.459400
N -21.250100 -7.447900 -15.624800
N -21.089900 -6.111300 -12.462600
C -20.857900 -7.182600 -14.394100
N -20.551800 -8.534400 -16.079600
N -19.898500 -8.103300 -14.008700
C -19.733200 -8.914200 -15.090900
H -19.597500 -7.939700 -12.131200
N -19.125300 -8.240800 -12.835500
H -18.898400 -10.432300 -15.842800
N -18.820700 -9.895600 -15.158600
H -18.484600 -10.209400 -14.390000
H -18.416800 -7.690600 -12.922400
48
Fragment
H -26.216000 -6.182600 -10.648500
H -26.148200 -3.663700 -9.180900
N -25.812100 -3.977500 -8.412300
H -25.734400 -3.440800 -7.728100
N -25.507500 -5.632300 -10.735400
H -25.035200 -5.933400 -11.439700
C -24.899500 -4.958900 -8.480000
N -24.734300 -5.769900 -9.562200
N -24.081000 -5.338800 -7.491300
C -23.774900 -6.690500 -9.176800
N -23.542900 -7.761800 -11.108300
N -23.382700 -6.425200 -7.946100
N -23.231600 -8.911500 -13.111500
N -23.199300 -7.719700 -9.876400
C -22.946000 -8.763800 -11.833700
N -22.489400 -9.964100 -13.599000
H -22.068900 -10.143500 -9.640500
N -22.005300 -9.708300 -11.450500
C -21.745800 -10.427500 -12.581200
N -21.401000 -9.977100 -10.207900
H -21.018400 -9.210200 -9.925700
N -20.854300 -11.417300 -12.654600
H -20.788400 -11.879800 -13.436200
H -20.469000 -11.738400 -11.885200
H -24.163800 -2.134700 -11.685700
H -23.844400 -1.993400 -10.134700
N -23.778500 -2.455900 -10.916300
H -23.614400 -4.662900 -13.645200
N -23.231800 -3.896000 -13.363100
C -22.887000 -3.445700 -10.989700
N -22.627500 -4.164800 -12.120400
H -22.563900 -3.729700 -13.930400
N -22.143400 -3.909000 -9.971900
C -21.686800 -5.109300 -11.737200
N -21.433500 -6.153400 -13.694500
N -21.401200 -4.961600 -10.459400
N -21.250100 -7.447900 -15.624800
N -21.089900 -6.111300 -12.462600
C -20.857900 -7.182600 -14.394100
N -20.551800 -8.534400 -16.079600
N -19.898500 -8.103300 -14.008700
C -19.733200 -8.914200 -15.090900
H -19.597500 -7.939700 -12.131200
N -19.125300 -8.240800 -12.835500
H -18.898400 -10.432300 -15.842800
N -18.820700 -9.895600 -15.158600
H -18.484600 -10.209400 -14.390000
H -18.416800 -7.690600 -12.922400
