24
Fragment
H -26.216000 -6.182600 -10.648500
H -26.148200 -3.663700 -9.180900
N -25.812100 -3.977500 -8.412300
H -25.734400 -3.440800 -7.728100
N -25.507500 -5.632300 -10.735400
H -25.035200 -5.933400 -11.439700
C -24.899500 -4.958900 -8.480000
N -24.734300 -5.769900 -9.562200
N -24.081000 -5.338800 -7.491300
C -23.774900 -6.690500 -9.176800
N -23.542900 -7.761800 -11.108300
N -23.382700 -6.425200 -7.946100
N -23.231600 -8.911500 -13.111500
N -23.199300 -7.719700 -9.876400
C -22.946000 -8.763800 -11.833700
N -22.489400 -9.964100 -13.599000
H -22.068900 -10.143500 -9.640500
N -22.005300 -9.708300 -11.450500
C -21.745800 -10.427500 -12.581200
N -21.401000 -9.977100 -10.207900
H -21.018400 -9.210200 -9.925700
N -20.854300 -11.417300 -12.654600
H -20.788400 -11.879800 -13.436200
H -20.469000 -11.738400 -11.885200
3
Fragment
H -19.105500 -14.261200 -14.401800
O -18.749000 -14.379700 -13.647200
H -18.273300 -15.092300 -13.734000
27
Fragment
H -26.216000 -6.182600 -10.648500
H -26.148200 -3.663700 -9.180900
N -25.812100 -3.977500 -8.412300
H -25.734400 -3.440800 -7.728100
N -25.507500 -5.632300 -10.735400
H -25.035200 -5.933400 -11.439700
C -24.899500 -4.958900 -8.480000
N -24.734300 -5.769900 -9.562200
N -24.081000 -5.338800 -7.491300
C -23.774900 -6.690500 -9.176800
N -23.542900 -7.761800 -11.108300
N -23.382700 -6.425200 -7.946100
N -23.231600 -8.911500 -13.111500
N -23.199300 -7.719700 -9.876400
C -22.946000 -8.763800 -11.833700
N -22.489400 -9.964100 -13.599000
H -22.068900 -10.143500 -9.640500
N -22.005300 -9.708300 -11.450500
C -21.745800 -10.427500 -12.581200
N -21.401000 -9.977100 -10.207900
H -21.018400 -9.210200 -9.925700
N -20.854300 -11.417300 -12.654600
H -20.788400 -11.879800 -13.436200
H -20.469000 -11.738400 -11.885200
H -19.105500 -14.261200 -14.401800
O -18.749000 -14.379700 -13.647200
H -18.273300 -15.092300 -13.734000
