24
Fragment
H -26.216000 -6.182600 -10.648500
H -26.148200 -3.663700 -9.180900
N -25.812100 -3.977500 -8.412300
H -25.734400 -3.440800 -7.728100
N -25.507500 -5.632300 -10.735400
H -25.035200 -5.933400 -11.439700
C -24.899500 -4.958900 -8.480000
N -24.734300 -5.769900 -9.562200
N -24.081000 -5.338800 -7.491300
C -23.774900 -6.690500 -9.176800
N -23.542900 -7.761800 -11.108300
N -23.382700 -6.425200 -7.946100
N -23.231600 -8.911500 -13.111500
N -23.199300 -7.719700 -9.876400
C -22.946000 -8.763800 -11.833700
N -22.489400 -9.964100 -13.599000
H -22.068900 -10.143500 -9.640500
N -22.005300 -9.708300 -11.450500
C -21.745800 -10.427500 -12.581200
N -21.401000 -9.977100 -10.207900
H -21.018400 -9.210200 -9.925700
N -20.854300 -11.417300 -12.654600
H -20.788400 -11.879800 -13.436200
H -20.469000 -11.738400 -11.885200
24
Fragment
H -29.178700 -2.780200 -3.828700
H -28.859400 -2.638800 -2.277700
N -28.793400 -3.101300 -3.059300
H -28.629400 -5.308400 -5.788200
N -28.246800 -4.541500 -5.506100
C -27.902000 -4.091100 -3.132700
N -27.642500 -4.810300 -4.263400
H -27.578900 -4.375100 -6.073400
N -27.158300 -4.554500 -2.114900
C -26.701800 -5.754800 -3.880200
N -26.448400 -6.798900 -5.837500
N -26.416200 -5.607100 -2.602500
N -26.265000 -8.093400 -7.767900
N -26.104900 -6.756800 -4.605600
C -25.872900 -7.828100 -6.537200
N -25.566800 -9.179800 -8.222600
N -24.913500 -8.748700 -6.151700
C -24.748200 -9.559700 -7.233900
H -24.612500 -8.585200 -4.274200
N -24.140200 -8.886300 -4.978600
H -23.913300 -11.077800 -7.985800
N -23.835700 -10.541000 -7.301600
H -23.499600 -10.854800 -6.533100
H -23.431800 -8.336000 -5.065400
48
Fragment
H -26.216000 -6.182600 -10.648500
H -26.148200 -3.663700 -9.180900
N -25.812100 -3.977500 -8.412300
H -25.734400 -3.440800 -7.728100
N -25.507500 -5.632300 -10.735400
H -25.035200 -5.933400 -11.439700
C -24.899500 -4.958900 -8.480000
N -24.734300 -5.769900 -9.562200
N -24.081000 -5.338800 -7.491300
C -23.774900 -6.690500 -9.176800
N -23.542900 -7.761800 -11.108300
N -23.382700 -6.425200 -7.946100
N -23.231600 -8.911500 -13.111500
N -23.199300 -7.719700 -9.876400
C -22.946000 -8.763800 -11.833700
N -22.489400 -9.964100 -13.599000
H -22.068900 -10.143500 -9.640500
N -22.005300 -9.708300 -11.450500
C -21.745800 -10.427500 -12.581200
N -21.401000 -9.977100 -10.207900
H -21.018400 -9.210200 -9.925700
N -20.854300 -11.417300 -12.654600
H -20.788400 -11.879800 -13.436200
H -20.469000 -11.738400 -11.885200
H -29.178700 -2.780200 -3.828700
H -28.859400 -2.638800 -2.277700
N -28.793400 -3.101300 -3.059300
H -28.629400 -5.308400 -5.788200
N -28.246800 -4.541500 -5.506100
C -27.902000 -4.091100 -3.132700
N -27.642500 -4.810300 -4.263400
H -27.578900 -4.375100 -6.073400
N -27.158300 -4.554500 -2.114900
C -26.701800 -5.754800 -3.880200
N -26.448400 -6.798900 -5.837500
N -26.416200 -5.607100 -2.602500
N -26.265000 -8.093400 -7.767900
N -26.104900 -6.756800 -4.605600
C -25.872900 -7.828100 -6.537200
N -25.566800 -9.179800 -8.222600
N -24.913500 -8.748700 -6.151700
C -24.748200 -9.559700 -7.233900
H -24.612500 -8.585200 -4.274200
N -24.140200 -8.886300 -4.978600
H -23.913300 -11.077800 -7.985800
N -23.835700 -10.541000 -7.301600
H -23.499600 -10.854800 -6.533100
H -23.431800 -8.336000 -5.065400
