28
Fragment
H -10.194400 -16.558900 -15.367700
H -9.789500 -14.366700 -15.205500
N -9.450300 -16.746400 -14.976200
N -9.231000 -14.509700 -14.530000
H -9.212700 -17.587500 -14.780000
H -8.911400 -13.817500 -14.030200
C -8.835100 -15.768800 -14.294200
N -7.852100 -15.958600 -13.425300
N -7.797500 -18.384500 -13.672900
H -7.592000 -21.159500 -13.777500
C -7.434300 -17.229600 -13.128700
C -7.055000 -19.347900 -12.991700
C -7.025400 -20.735400 -13.143400
H -6.879100 -23.263900 -13.109500
N -6.488200 -17.384700 -12.141000
H -6.271200 -23.409100 -11.636200
C -6.230800 -18.742100 -12.032000
C -6.161900 -21.493200 -12.361600
H -6.158000 -16.693200 -11.632100
C -6.150500 -22.990600 -12.514200
C -5.359700 -19.482800 -11.243600
C -5.312700 -20.864900 -11.416900
H -5.293300 -23.273200 -12.896000
H -4.834800 -22.352200 -10.078500
H -4.806800 -19.056500 -10.599300
C -4.341400 -21.684200 -10.599600
H -3.847500 -21.095000 -9.992000
H -3.711700 -22.137900 -11.198500
28
Fragment
H -5.348900 -17.386800 -8.612600
H -4.944000 -15.194500 -8.450500
N -4.604800 -17.574300 -8.221200
N -4.385500 -15.337600 -7.775000
H -4.367200 -18.415400 -8.025000
H -4.065900 -14.645400 -7.275200
C -3.989600 -16.596700 -7.539200
N -3.006600 -16.786500 -6.670300
N -2.952000 -19.212400 -6.917900
H -2.746500 -21.987300 -7.022500
C -2.588800 -18.057500 -6.373700
C -2.209500 -20.175800 -6.236700
C -2.179800 -21.563300 -6.388400
H -2.033600 -24.091800 -6.354400
N -1.642700 -18.212600 -5.386000
H -1.425600 -24.236900 -4.881200
C -1.385300 -19.570000 -5.277000
C -1.316400 -22.321100 -5.606600
H -1.312500 -17.521100 -4.877100
C -1.305000 -23.818500 -5.759200
C -0.514200 -20.310700 -4.488600
C -0.467200 -21.692800 -4.661800
H -0.447800 -24.101000 -6.141000
H 0.010700 -23.180100 -3.323500
H 0.038800 -19.884400 -3.844300
C 0.504100 -22.512000 -3.844600
H 0.998000 -21.922900 -3.237000
H 1.133800 -22.965800 -4.443500
56
Fragment
H -10.194400 -16.558900 -15.367700
H -9.789500 -14.366700 -15.205500
N -9.450300 -16.746400 -14.976200
N -9.231000 -14.509700 -14.530000
H -9.212700 -17.587500 -14.780000
H -8.911400 -13.817500 -14.030200
C -8.835100 -15.768800 -14.294200
N -7.852100 -15.958600 -13.425300
N -7.797500 -18.384500 -13.672900
H -7.592000 -21.159500 -13.777500
C -7.434300 -17.229600 -13.128700
C -7.055000 -19.347900 -12.991700
C -7.025400 -20.735400 -13.143400
H -6.879100 -23.263900 -13.109500
N -6.488200 -17.384700 -12.141000
H -6.271200 -23.409100 -11.636200
C -6.230800 -18.742100 -12.032000
C -6.161900 -21.493200 -12.361600
H -6.158000 -16.693200 -11.632100
C -6.150500 -22.990600 -12.514200
C -5.359700 -19.482800 -11.243600
C -5.312700 -20.864900 -11.416900
H -5.293300 -23.273200 -12.896000
H -4.834800 -22.352200 -10.078500
H -4.806800 -19.056500 -10.599300
C -4.341400 -21.684200 -10.599600
H -3.847500 -21.095000 -9.992000
H -3.711700 -22.137900 -11.198500
H -5.348900 -17.386800 -8.612600
H -4.944000 -15.194500 -8.450500
N -4.604800 -17.574300 -8.221200
N -4.385500 -15.337600 -7.775000
H -4.367200 -18.415400 -8.025000
H -4.065900 -14.645400 -7.275200
C -3.989600 -16.596700 -7.539200
N -3.006600 -16.786500 -6.670300
N -2.952000 -19.212400 -6.917900
H -2.746500 -21.987300 -7.022500
C -2.588800 -18.057500 -6.373700
C -2.209500 -20.175800 -6.236700
C -2.179800 -21.563300 -6.388400
H -2.033600 -24.091800 -6.354400
N -1.642700 -18.212600 -5.386000
H -1.425600 -24.236900 -4.881200
C -1.385300 -19.570000 -5.277000
C -1.316400 -22.321100 -5.606600
H -1.312500 -17.521100 -4.877100
C -1.305000 -23.818500 -5.759200
C -0.514200 -20.310700 -4.488600
C -0.467200 -21.692800 -4.661800
H -0.447800 -24.101000 -6.141000
H 0.010700 -23.180100 -3.323500
H 0.038800 -19.884400 -3.844300
C 0.504100 -22.512000 -3.844600
H 0.998000 -21.922900 -3.237000
H 1.133800 -22.965800 -4.443500
