28
Fragment
H -10.194400 -16.558900 -15.367700
H -9.789500 -14.366700 -15.205500
N -9.450300 -16.746400 -14.976200
N -9.231000 -14.509700 -14.530000
H -9.212700 -17.587500 -14.780000
H -8.911400 -13.817500 -14.030200
C -8.835100 -15.768800 -14.294200
N -7.852100 -15.958600 -13.425300
N -7.797500 -18.384500 -13.672900
H -7.592000 -21.159500 -13.777500
C -7.434300 -17.229600 -13.128700
C -7.055000 -19.347900 -12.991700
C -7.025400 -20.735400 -13.143400
H -6.879100 -23.263900 -13.109500
N -6.488200 -17.384700 -12.141000
H -6.271200 -23.409100 -11.636200
C -6.230800 -18.742100 -12.032000
C -6.161900 -21.493200 -12.361600
H -6.158000 -16.693200 -11.632100
C -6.150500 -22.990600 -12.514200
C -5.359700 -19.482800 -11.243600
C -5.312700 -20.864900 -11.416900
H -5.293300 -23.273200 -12.896000
H -4.834800 -22.352200 -10.078500
H -4.806800 -19.056500 -10.599300
C -4.341400 -21.684200 -10.599600
H -3.847500 -21.095000 -9.992000
H -3.711700 -22.137900 -11.198500
28
Fragment
H -6.002400 -20.764100 -15.821600
H -5.866500 -21.807100 -17.028100
C -5.372700 -21.217900 -16.420400
H -4.907300 -23.845600 -16.420800
H -4.879200 -20.549900 -16.941600
H -4.420800 -19.628900 -14.124100
C -4.401400 -22.037100 -15.603200
C -4.354400 -23.419200 -15.776500
C -3.563600 -19.911500 -14.505900
H -3.556100 -26.208900 -15.387900
C -3.552200 -21.408900 -14.658500
C -3.483200 -24.159900 -14.988000
H -3.442900 -19.493000 -15.383900
N -3.225900 -25.517300 -14.879100
H -2.835000 -19.638100 -13.910600
C -2.688700 -22.166600 -13.876600
C -2.659100 -23.554200 -14.028400
C -2.279700 -25.672400 -13.891400
H -2.122000 -21.742600 -13.242500
N -1.916600 -24.517500 -13.347200
N -1.862000 -26.943500 -13.594700
C -0.879000 -27.133300 -12.725800
H -0.802700 -29.084600 -12.989900
H -0.501400 -25.314500 -12.240100
N -0.483000 -28.392400 -12.490100
N -0.263700 -26.155600 -12.043900
H 0.075400 -28.535400 -11.814500
H 0.480300 -26.343200 -11.652400
56
Fragment
H -10.194400 -16.558900 -15.367700
H -9.789500 -14.366700 -15.205500
N -9.450300 -16.746400 -14.976200
N -9.231000 -14.509700 -14.530000
H -9.212700 -17.587500 -14.780000
H -8.911400 -13.817500 -14.030200
C -8.835100 -15.768800 -14.294200
N -7.852100 -15.958600 -13.425300
N -7.797500 -18.384500 -13.672900
H -7.592000 -21.159500 -13.777500
C -7.434300 -17.229600 -13.128700
C -7.055000 -19.347900 -12.991700
C -7.025400 -20.735400 -13.143400
H -6.879100 -23.263900 -13.109500
N -6.488200 -17.384700 -12.141000
H -6.271200 -23.409100 -11.636200
C -6.230800 -18.742100 -12.032000
C -6.161900 -21.493200 -12.361600
H -6.158000 -16.693200 -11.632100
C -6.150500 -22.990600 -12.514200
C -5.359700 -19.482800 -11.243600
C -5.312700 -20.864900 -11.416900
H -5.293300 -23.273200 -12.896000
H -4.834800 -22.352200 -10.078500
H -4.806800 -19.056500 -10.599300
C -4.341400 -21.684200 -10.599600
H -3.847500 -21.095000 -9.992000
H -3.711700 -22.137900 -11.198500
H -6.002400 -20.764100 -15.821600
H -5.866500 -21.807100 -17.028100
C -5.372700 -21.217900 -16.420400
H -4.907300 -23.845600 -16.420800
H -4.879200 -20.549900 -16.941600
H -4.420800 -19.628900 -14.124100
C -4.401400 -22.037100 -15.603200
C -4.354400 -23.419200 -15.776500
C -3.563600 -19.911500 -14.505900
H -3.556100 -26.208900 -15.387900
C -3.552200 -21.408900 -14.658500
C -3.483200 -24.159900 -14.988000
H -3.442900 -19.493000 -15.383900
N -3.225900 -25.517300 -14.879100
H -2.835000 -19.638100 -13.910600
C -2.688700 -22.166600 -13.876600
C -2.659100 -23.554200 -14.028400
C -2.279700 -25.672400 -13.891400
H -2.122000 -21.742600 -13.242500
N -1.916600 -24.517500 -13.347200
N -1.862000 -26.943500 -13.594700
C -0.879000 -27.133300 -12.725800
H -0.802700 -29.084600 -12.989900
H -0.501400 -25.314500 -12.240100
N -0.483000 -28.392400 -12.490100
N -0.263700 -26.155600 -12.043900
H 0.075400 -28.535400 -11.814500
H 0.480300 -26.343200 -11.652400
