28
Fragment
H -10.194400 -16.558900 -15.367700
H -9.789500 -14.366700 -15.205500
N -9.450300 -16.746400 -14.976200
N -9.231000 -14.509700 -14.530000
H -9.212700 -17.587500 -14.780000
H -8.911400 -13.817500 -14.030200
C -8.835100 -15.768800 -14.294200
N -7.852100 -15.958600 -13.425300
N -7.797500 -18.384500 -13.672900
H -7.592000 -21.159500 -13.777500
C -7.434300 -17.229600 -13.128700
C -7.055000 -19.347900 -12.991700
C -7.025400 -20.735400 -13.143400
H -6.879100 -23.263900 -13.109500
N -6.488200 -17.384700 -12.141000
H -6.271200 -23.409100 -11.636200
C -6.230800 -18.742100 -12.032000
C -6.161900 -21.493200 -12.361600
H -6.158000 -16.693200 -11.632100
C -6.150500 -22.990600 -12.514200
C -5.359700 -19.482800 -11.243600
C -5.312700 -20.864900 -11.416900
H -5.293300 -23.273200 -12.896000
H -4.834800 -22.352200 -10.078500
H -4.806800 -19.056500 -10.599300
C -4.341400 -21.684200 -10.599600
H -3.847500 -21.095000 -9.992000
H -3.711700 -22.137900 -11.198500
28
Fragment
H -17.052100 -5.359600 -15.821600
H -16.916200 -6.402500 -17.028100
C -16.422300 -5.813400 -16.420400
H -15.957000 -8.441000 -16.420800
H -15.928900 -5.145300 -16.941600
H -15.470500 -4.224400 -14.124100
C -15.451000 -6.632600 -15.603200
C -15.404100 -8.014700 -15.776500
C -14.613200 -4.507000 -14.505900
H -14.605700 -10.804400 -15.387900
C -14.601800 -6.004400 -14.658500
C -14.532900 -8.755400 -14.988000
H -14.492600 -4.088500 -15.383900
N -14.275500 -10.112800 -14.879100
H -13.884600 -4.233600 -13.910600
C -13.738400 -6.762100 -13.876600
C -13.708700 -8.149600 -14.028400
C -13.329400 -10.267900 -13.891400
H -13.171700 -6.338100 -13.242500
N -12.966200 -9.113000 -13.347200
N -12.911600 -11.538900 -13.594700
C -11.928700 -11.728800 -12.725800
H -11.852300 -13.680000 -12.989900
H -11.551000 -9.910000 -12.240100
N -11.532700 -12.987900 -12.490100
N -11.313400 -10.751100 -12.043900
H -10.974200 -13.130900 -11.814500
H -10.569300 -10.938700 -11.652400
56
Fragment
H -10.194400 -16.558900 -15.367700
H -9.789500 -14.366700 -15.205500
N -9.450300 -16.746400 -14.976200
N -9.231000 -14.509700 -14.530000
H -9.212700 -17.587500 -14.780000
H -8.911400 -13.817500 -14.030200
C -8.835100 -15.768800 -14.294200
N -7.852100 -15.958600 -13.425300
N -7.797500 -18.384500 -13.672900
H -7.592000 -21.159500 -13.777500
C -7.434300 -17.229600 -13.128700
C -7.055000 -19.347900 -12.991700
C -7.025400 -20.735400 -13.143400
H -6.879100 -23.263900 -13.109500
N -6.488200 -17.384700 -12.141000
H -6.271200 -23.409100 -11.636200
C -6.230800 -18.742100 -12.032000
C -6.161900 -21.493200 -12.361600
H -6.158000 -16.693200 -11.632100
C -6.150500 -22.990600 -12.514200
C -5.359700 -19.482800 -11.243600
C -5.312700 -20.864900 -11.416900
H -5.293300 -23.273200 -12.896000
H -4.834800 -22.352200 -10.078500
H -4.806800 -19.056500 -10.599300
C -4.341400 -21.684200 -10.599600
H -3.847500 -21.095000 -9.992000
H -3.711700 -22.137900 -11.198500
H -17.052100 -5.359600 -15.821600
H -16.916200 -6.402500 -17.028100
C -16.422300 -5.813400 -16.420400
H -15.957000 -8.441000 -16.420800
H -15.928900 -5.145300 -16.941600
H -15.470500 -4.224400 -14.124100
C -15.451000 -6.632600 -15.603200
C -15.404100 -8.014700 -15.776500
C -14.613200 -4.507000 -14.505900
H -14.605700 -10.804400 -15.387900
C -14.601800 -6.004400 -14.658500
C -14.532900 -8.755400 -14.988000
H -14.492600 -4.088500 -15.383900
N -14.275500 -10.112800 -14.879100
H -13.884600 -4.233600 -13.910600
C -13.738400 -6.762100 -13.876600
C -13.708700 -8.149600 -14.028400
C -13.329400 -10.267900 -13.891400
H -13.171700 -6.338100 -13.242500
N -12.966200 -9.113000 -13.347200
N -12.911600 -11.538900 -13.594700
C -11.928700 -11.728800 -12.725800
H -11.852300 -13.680000 -12.989900
H -11.551000 -9.910000 -12.240100
N -11.532700 -12.987900 -12.490100
N -11.313400 -10.751100 -12.043900
H -10.974200 -13.130900 -11.814500
H -10.569300 -10.938700 -11.652400
