28
Fragment
H -10.194400 -16.558900 -15.367700
H -9.789500 -14.366700 -15.205500
N -9.450300 -16.746400 -14.976200
N -9.231000 -14.509700 -14.530000
H -9.212700 -17.587500 -14.780000
H -8.911400 -13.817500 -14.030200
C -8.835100 -15.768800 -14.294200
N -7.852100 -15.958600 -13.425300
N -7.797500 -18.384500 -13.672900
H -7.592000 -21.159500 -13.777500
C -7.434300 -17.229600 -13.128700
C -7.055000 -19.347900 -12.991700
C -7.025400 -20.735400 -13.143400
H -6.879100 -23.263900 -13.109500
N -6.488200 -17.384700 -12.141000
H -6.271200 -23.409100 -11.636200
C -6.230800 -18.742100 -12.032000
C -6.161900 -21.493200 -12.361600
H -6.158000 -16.693200 -11.632100
C -6.150500 -22.990600 -12.514200
C -5.359700 -19.482800 -11.243600
C -5.312700 -20.864900 -11.416900
H -5.293300 -23.273200 -12.896000
H -4.834800 -22.352200 -10.078500
H -4.806800 -19.056500 -10.599300
C -4.341400 -21.684200 -10.599600
H -3.847500 -21.095000 -9.992000
H -3.711700 -22.137900 -11.198500
16
Fragment
O -9.949100 -26.729500 -19.620400
C -9.180400 -27.094500 -18.748800
H -9.150000 -24.355400 -17.904200
H -9.001700 -29.155200 -19.150500
N -8.741100 -28.402900 -18.579300
C -8.636000 -24.947800 -17.368200
C -8.560100 -26.297800 -17.656700
H -7.964400 -23.573000 -16.030300
C -7.933900 -28.528600 -17.472300
C -7.928700 -24.493600 -16.261000
C -7.799000 -27.167400 -16.879100
O -7.463000 -29.586900 -17.077600
C -7.169900 -25.361200 -15.485300
C -7.089100 -26.716900 -15.784900
H -6.696400 -25.021100 -14.734700
H -6.566100 -27.309300 -15.257600
44
Fragment
H -10.194400 -16.558900 -15.367700
H -9.789500 -14.366700 -15.205500
N -9.450300 -16.746400 -14.976200
N -9.231000 -14.509700 -14.530000
H -9.212700 -17.587500 -14.780000
H -8.911400 -13.817500 -14.030200
C -8.835100 -15.768800 -14.294200
N -7.852100 -15.958600 -13.425300
N -7.797500 -18.384500 -13.672900
H -7.592000 -21.159500 -13.777500
C -7.434300 -17.229600 -13.128700
C -7.055000 -19.347900 -12.991700
C -7.025400 -20.735400 -13.143400
H -6.879100 -23.263900 -13.109500
N -6.488200 -17.384700 -12.141000
H -6.271200 -23.409100 -11.636200
C -6.230800 -18.742100 -12.032000
C -6.161900 -21.493200 -12.361600
H -6.158000 -16.693200 -11.632100
C -6.150500 -22.990600 -12.514200
C -5.359700 -19.482800 -11.243600
C -5.312700 -20.864900 -11.416900
H -5.293300 -23.273200 -12.896000
H -4.834800 -22.352200 -10.078500
H -4.806800 -19.056500 -10.599300
C -4.341400 -21.684200 -10.599600
H -3.847500 -21.095000 -9.992000
H -3.711700 -22.137900 -11.198500
O -9.949100 -26.729500 -19.620400
C -9.180400 -27.094500 -18.748800
H -9.150000 -24.355400 -17.904200
H -9.001700 -29.155200 -19.150500
N -8.741100 -28.402900 -18.579300
C -8.636000 -24.947800 -17.368200
C -8.560100 -26.297800 -17.656700
H -7.964400 -23.573000 -16.030300
C -7.933900 -28.528600 -17.472300
C -7.928700 -24.493600 -16.261000
C -7.799000 -27.167400 -16.879100
O -7.463000 -29.586900 -17.077600
C -7.169900 -25.361200 -15.485300
C -7.089100 -26.716900 -15.784900
H -6.696400 -25.021100 -14.734700
H -6.566100 -27.309300 -15.257600
