32
Fragment
H -16.708100 -32.363900 -12.061300
H -16.587600 -23.393300 -11.726200
H -16.585500 -28.000000 -10.829100
H -16.222800 -34.530600 -11.135100
H -16.137500 -28.447400 -9.538000
H -16.120400 -30.117200 -11.840400
H -16.075600 -25.667100 -11.609800
N -16.025500 -27.879700 -10.177600
H -16.024400 -21.268000 -10.881300
C -15.899700 -32.126300 -11.623200
C -15.790900 -23.679000 -11.296300
C -15.546600 -30.792300 -11.499300
C -15.478400 -25.027600 -11.238800
O -15.389800 -34.443400 -11.194100
O -15.206600 -21.399400 -10.727600
C -15.066700 -33.127200 -11.103000
C -14.934400 -22.740700 -10.722400
N -14.689100 -27.939900 -10.642500
C -14.349900 -30.437000 -10.875400
C -14.290200 -25.453300 -10.637300
C -13.896500 -29.037500 -10.825400
C -13.873100 -32.773700 -10.482800
C -13.858200 -26.856100 -10.702200
C -13.750500 -23.152000 -10.118600
C -13.521200 -31.439800 -10.370100
C -13.432600 -24.503800 -10.085000
H -13.299300 -33.447200 -10.136500
H -13.163900 -22.512800 -9.732000
H -12.706300 -31.203800 -9.944000
N -12.650900 -28.650700 -10.977600
N -12.623900 -27.260800 -10.911200
H -12.621000 -24.785000 -9.680500
32
Fragment
H -22.041100 -15.573100 -12.061300
H -21.920600 -24.543700 -11.726200
H -21.918400 -19.937000 -10.829100
H -21.555800 -13.406400 -11.135100
H -21.470500 -19.489600 -9.538000
H -21.453400 -17.819800 -11.840400
H -21.408600 -22.269900 -11.609800
N -21.358500 -20.057300 -10.177600
H -21.357400 -26.669000 -10.881300
C -21.232600 -15.810700 -11.623200
C -21.123800 -24.258000 -11.296300
C -20.879600 -17.144700 -11.499300
C -20.811300 -22.909400 -11.238800
O -20.722800 -13.493600 -11.194100
O -20.539500 -26.537600 -10.727600
C -20.399600 -14.809800 -11.103000
C -20.267300 -25.196300 -10.722400
N -20.022000 -19.997100 -10.642500
C -19.682900 -17.500000 -10.875400
C -19.623100 -22.483700 -10.637300
C -19.229400 -18.899500 -10.825400
C -19.206100 -15.163300 -10.482800
C -19.191200 -21.080900 -10.702200
C -19.083400 -24.785000 -10.118600
C -18.854100 -16.497200 -10.370100
C -18.765600 -23.433200 -10.085000
H -18.632300 -14.489800 -10.136500
H -18.496800 -25.424200 -9.732000
H -18.039200 -16.733200 -9.944000
N -17.983900 -19.286300 -10.977600
N -17.956900 -20.676200 -10.911200
H -17.953900 -23.152000 -9.680500
64
Fragment
H -16.708100 -32.363900 -12.061300
H -16.587600 -23.393300 -11.726200
H -16.585500 -28.000000 -10.829100
H -16.222800 -34.530600 -11.135100
H -16.137500 -28.447400 -9.538000
H -16.120400 -30.117200 -11.840400
H -16.075600 -25.667100 -11.609800
N -16.025500 -27.879700 -10.177600
H -16.024400 -21.268000 -10.881300
C -15.899700 -32.126300 -11.623200
C -15.790900 -23.679000 -11.296300
C -15.546600 -30.792300 -11.499300
C -15.478400 -25.027600 -11.238800
O -15.389800 -34.443400 -11.194100
O -15.206600 -21.399400 -10.727600
C -15.066700 -33.127200 -11.103000
C -14.934400 -22.740700 -10.722400
N -14.689100 -27.939900 -10.642500
C -14.349900 -30.437000 -10.875400
C -14.290200 -25.453300 -10.637300
C -13.896500 -29.037500 -10.825400
C -13.873100 -32.773700 -10.482800
C -13.858200 -26.856100 -10.702200
C -13.750500 -23.152000 -10.118600
C -13.521200 -31.439800 -10.370100
C -13.432600 -24.503800 -10.085000
H -13.299300 -33.447200 -10.136500
H -13.163900 -22.512800 -9.732000
H -12.706300 -31.203800 -9.944000
N -12.650900 -28.650700 -10.977600
N -12.623900 -27.260800 -10.911200
H -12.621000 -24.785000 -9.680500
H -22.041100 -15.573100 -12.061300
H -21.920600 -24.543700 -11.726200
H -21.918400 -19.937000 -10.829100
H -21.555800 -13.406400 -11.135100
H -21.470500 -19.489600 -9.538000
H -21.453400 -17.819800 -11.840400
H -21.408600 -22.269900 -11.609800
N -21.358500 -20.057300 -10.177600
H -21.357400 -26.669000 -10.881300
C -21.232600 -15.810700 -11.623200
C -21.123800 -24.258000 -11.296300
C -20.879600 -17.144700 -11.499300
C -20.811300 -22.909400 -11.238800
O -20.722800 -13.493600 -11.194100
O -20.539500 -26.537600 -10.727600
C -20.399600 -14.809800 -11.103000
C -20.267300 -25.196300 -10.722400
N -20.022000 -19.997100 -10.642500
C -19.682900 -17.500000 -10.875400
C -19.623100 -22.483700 -10.637300
C -19.229400 -18.899500 -10.825400
C -19.206100 -15.163300 -10.482800
C -19.191200 -21.080900 -10.702200
C -19.083400 -24.785000 -10.118600
C -18.854100 -16.497200 -10.370100
C -18.765600 -23.433200 -10.085000
H -18.632300 -14.489800 -10.136500
H -18.496800 -25.424200 -9.732000
H -18.039200 -16.733200 -9.944000
N -17.983900 -19.286300 -10.977600
N -17.956900 -20.676200 -10.911200
H -17.953900 -23.152000 -9.680500
