32
Fragment
H -16.708100 -32.363900 -12.061300
H -16.587600 -23.393300 -11.726200
H -16.585500 -28.000000 -10.829100
H -16.222800 -34.530600 -11.135100
H -16.137500 -28.447400 -9.538000
H -16.120400 -30.117200 -11.840400
H -16.075600 -25.667100 -11.609800
N -16.025500 -27.879700 -10.177600
H -16.024400 -21.268000 -10.881300
C -15.899700 -32.126300 -11.623200
C -15.790900 -23.679000 -11.296300
C -15.546600 -30.792300 -11.499300
C -15.478400 -25.027600 -11.238800
O -15.389800 -34.443400 -11.194100
O -15.206600 -21.399400 -10.727600
C -15.066700 -33.127200 -11.103000
C -14.934400 -22.740700 -10.722400
N -14.689100 -27.939900 -10.642500
C -14.349900 -30.437000 -10.875400
C -14.290200 -25.453300 -10.637300
C -13.896500 -29.037500 -10.825400
C -13.873100 -32.773700 -10.482800
C -13.858200 -26.856100 -10.702200
C -13.750500 -23.152000 -10.118600
C -13.521200 -31.439800 -10.370100
C -13.432600 -24.503800 -10.085000
H -13.299300 -33.447200 -10.136500
H -13.163900 -22.512800 -9.732000
H -12.706300 -31.203800 -9.944000
N -12.650900 -28.650700 -10.977600
N -12.623900 -27.260800 -10.911200
H -12.621000 -24.785000 -9.680500
32
Fragment
H -11.375200 -31.552100 -12.061300
H -11.254700 -40.522700 -11.726200
H -11.252500 -35.916000 -10.829100
H -10.889900 -29.385400 -11.135100
H -10.804600 -35.468600 -9.538000
H -10.787500 -33.798800 -11.840400
H -10.742700 -38.248900 -11.609800
N -10.692600 -36.036300 -10.177600
H -10.691500 -42.648000 -10.881300
C -10.566700 -31.789700 -11.623200
C -10.457900 -40.237000 -11.296300
C -10.213700 -33.123700 -11.499300
C -10.145400 -38.888400 -11.238800
O -10.056900 -29.472600 -11.194100
O -9.873600 -42.516600 -10.727600
C -9.733700 -30.788800 -11.103000
C -9.601400 -41.175300 -10.722400
N -9.356100 -35.976100 -10.642500
C -9.017000 -33.479000 -10.875400
C -8.957200 -38.462700 -10.637300
C -8.563500 -34.878500 -10.825400
C -8.540200 -31.142300 -10.482800
C -8.525300 -37.059900 -10.702200
C -8.417500 -40.764000 -10.118600
C -8.188200 -32.476200 -10.370100
C -8.099700 -39.412200 -10.085000
H -7.966400 -30.468800 -10.136500
H -7.830900 -41.403200 -9.732000
H -7.373300 -32.712200 -9.944000
N -7.318000 -35.265300 -10.977600
N -7.291000 -36.655200 -10.911200
H -7.288000 -39.131000 -9.680500
64
Fragment
H -16.708100 -32.363900 -12.061300
H -16.587600 -23.393300 -11.726200
H -16.585500 -28.000000 -10.829100
H -16.222800 -34.530600 -11.135100
H -16.137500 -28.447400 -9.538000
H -16.120400 -30.117200 -11.840400
H -16.075600 -25.667100 -11.609800
N -16.025500 -27.879700 -10.177600
H -16.024400 -21.268000 -10.881300
C -15.899700 -32.126300 -11.623200
C -15.790900 -23.679000 -11.296300
C -15.546600 -30.792300 -11.499300
C -15.478400 -25.027600 -11.238800
O -15.389800 -34.443400 -11.194100
O -15.206600 -21.399400 -10.727600
C -15.066700 -33.127200 -11.103000
C -14.934400 -22.740700 -10.722400
N -14.689100 -27.939900 -10.642500
C -14.349900 -30.437000 -10.875400
C -14.290200 -25.453300 -10.637300
C -13.896500 -29.037500 -10.825400
C -13.873100 -32.773700 -10.482800
C -13.858200 -26.856100 -10.702200
C -13.750500 -23.152000 -10.118600
C -13.521200 -31.439800 -10.370100
C -13.432600 -24.503800 -10.085000
H -13.299300 -33.447200 -10.136500
H -13.163900 -22.512800 -9.732000
H -12.706300 -31.203800 -9.944000
N -12.650900 -28.650700 -10.977600
N -12.623900 -27.260800 -10.911200
H -12.621000 -24.785000 -9.680500
H -11.375200 -31.552100 -12.061300
H -11.254700 -40.522700 -11.726200
H -11.252500 -35.916000 -10.829100
H -10.889900 -29.385400 -11.135100
H -10.804600 -35.468600 -9.538000
H -10.787500 -33.798800 -11.840400
H -10.742700 -38.248900 -11.609800
N -10.692600 -36.036300 -10.177600
H -10.691500 -42.648000 -10.881300
C -10.566700 -31.789700 -11.623200
C -10.457900 -40.237000 -11.296300
C -10.213700 -33.123700 -11.499300
C -10.145400 -38.888400 -11.238800
O -10.056900 -29.472600 -11.194100
O -9.873600 -42.516600 -10.727600
C -9.733700 -30.788800 -11.103000
C -9.601400 -41.175300 -10.722400
N -9.356100 -35.976100 -10.642500
C -9.017000 -33.479000 -10.875400
C -8.957200 -38.462700 -10.637300
C -8.563500 -34.878500 -10.825400
C -8.540200 -31.142300 -10.482800
C -8.525300 -37.059900 -10.702200
C -8.417500 -40.764000 -10.118600
C -8.188200 -32.476200 -10.370100
C -8.099700 -39.412200 -10.085000
H -7.966400 -30.468800 -10.136500
H -7.830900 -41.403200 -9.732000
H -7.373300 -32.712200 -9.944000
N -7.318000 -35.265300 -10.977600
N -7.291000 -36.655200 -10.911200
H -7.288000 -39.131000 -9.680500
