32
Fragment
H -16.708100 -32.363900 -12.061300
H -16.587600 -23.393300 -11.726200
H -16.585500 -28.000000 -10.829100
H -16.222800 -34.530600 -11.135100
H -16.137500 -28.447400 -9.538000
H -16.120400 -30.117200 -11.840400
H -16.075600 -25.667100 -11.609800
N -16.025500 -27.879700 -10.177600
H -16.024400 -21.268000 -10.881300
C -15.899700 -32.126300 -11.623200
C -15.790900 -23.679000 -11.296300
C -15.546600 -30.792300 -11.499300
C -15.478400 -25.027600 -11.238800
O -15.389800 -34.443400 -11.194100
O -15.206600 -21.399400 -10.727600
C -15.066700 -33.127200 -11.103000
C -14.934400 -22.740700 -10.722400
N -14.689100 -27.939900 -10.642500
C -14.349900 -30.437000 -10.875400
C -14.290200 -25.453300 -10.637300
C -13.896500 -29.037500 -10.825400
C -13.873100 -32.773700 -10.482800
C -13.858200 -26.856100 -10.702200
C -13.750500 -23.152000 -10.118600
C -13.521200 -31.439800 -10.370100
C -13.432600 -24.503800 -10.085000
H -13.299300 -33.447200 -10.136500
H -13.163900 -22.512800 -9.732000
H -12.706300 -31.203800 -9.944000
N -12.650900 -28.650700 -10.977600
N -12.623900 -27.260800 -10.911200
H -12.621000 -24.785000 -9.680500
32
Fragment
H -14.043800 -24.785000 -5.948900
N -14.040800 -27.260800 -7.179600
N -14.013800 -28.650700 -7.246000
H -13.958500 -31.203800 -6.212400
H -13.500900 -22.512800 -6.000400
H -13.365400 -33.447200 -6.404900
C -13.232100 -24.503800 -6.353400
C -13.143600 -31.439800 -6.638500
C -12.914300 -23.152000 -6.387000
C -12.806500 -26.856100 -6.970600
C -12.791600 -32.773700 -6.751200
C -12.768300 -29.037500 -7.093800
C -12.374600 -25.453300 -6.905700
C -12.314800 -30.437000 -7.143800
N -11.975700 -27.939900 -6.910900
C -11.730400 -22.740700 -6.990800
C -11.598100 -33.127200 -7.371400
O -11.458200 -21.399400 -6.996000
O -11.274900 -34.443400 -7.462500
C -11.186400 -25.027600 -7.507200
C -11.118100 -30.792300 -7.767700
C -10.873900 -23.679000 -7.564700
C -10.765100 -32.126300 -7.891600
H -10.640300 -21.268000 -7.149700
N -10.639200 -27.879700 -6.446000
H -10.589100 -25.667100 -7.878200
H -10.544300 -30.117200 -8.108800
H -10.527200 -28.447400 -5.806400
H -10.441900 -34.530600 -7.403500
H -10.079300 -28.000000 -7.097500
H -10.077100 -23.393300 -7.994600
H -9.956600 -32.363900 -8.329700
64
Fragment
H -16.708100 -32.363900 -12.061300
H -16.587600 -23.393300 -11.726200
H -16.585500 -28.000000 -10.829100
H -16.222800 -34.530600 -11.135100
H -16.137500 -28.447400 -9.538000
H -16.120400 -30.117200 -11.840400
H -16.075600 -25.667100 -11.609800
N -16.025500 -27.879700 -10.177600
H -16.024400 -21.268000 -10.881300
C -15.899700 -32.126300 -11.623200
C -15.790900 -23.679000 -11.296300
C -15.546600 -30.792300 -11.499300
C -15.478400 -25.027600 -11.238800
O -15.389800 -34.443400 -11.194100
O -15.206600 -21.399400 -10.727600
C -15.066700 -33.127200 -11.103000
C -14.934400 -22.740700 -10.722400
N -14.689100 -27.939900 -10.642500
C -14.349900 -30.437000 -10.875400
C -14.290200 -25.453300 -10.637300
C -13.896500 -29.037500 -10.825400
C -13.873100 -32.773700 -10.482800
C -13.858200 -26.856100 -10.702200
C -13.750500 -23.152000 -10.118600
C -13.521200 -31.439800 -10.370100
C -13.432600 -24.503800 -10.085000
H -13.299300 -33.447200 -10.136500
H -13.163900 -22.512800 -9.732000
H -12.706300 -31.203800 -9.944000
N -12.650900 -28.650700 -10.977600
N -12.623900 -27.260800 -10.911200
H -12.621000 -24.785000 -9.680500
H -14.043800 -24.785000 -5.948900
N -14.040800 -27.260800 -7.179600
N -14.013800 -28.650700 -7.246000
H -13.958500 -31.203800 -6.212400
H -13.500900 -22.512800 -6.000400
H -13.365400 -33.447200 -6.404900
C -13.232100 -24.503800 -6.353400
C -13.143600 -31.439800 -6.638500
C -12.914300 -23.152000 -6.387000
C -12.806500 -26.856100 -6.970600
C -12.791600 -32.773700 -6.751200
C -12.768300 -29.037500 -7.093800
C -12.374600 -25.453300 -6.905700
C -12.314800 -30.437000 -7.143800
N -11.975700 -27.939900 -6.910900
C -11.730400 -22.740700 -6.990800
C -11.598100 -33.127200 -7.371400
O -11.458200 -21.399400 -6.996000
O -11.274900 -34.443400 -7.462500
C -11.186400 -25.027600 -7.507200
C -11.118100 -30.792300 -7.767700
C -10.873900 -23.679000 -7.564700
C -10.765100 -32.126300 -7.891600
H -10.640300 -21.268000 -7.149700
N -10.639200 -27.879700 -6.446000
H -10.589100 -25.667100 -7.878200
H -10.544300 -30.117200 -8.108800
H -10.527200 -28.447400 -5.806400
H -10.441900 -34.530600 -7.403500
H -10.079300 -28.000000 -7.097500
H -10.077100 -23.393300 -7.994600
H -9.956600 -32.363900 -8.329700
