24
Fragment
H -7.193400 -16.958000 -27.167800
C -6.428300 -16.433300 -27.235200
O -6.389300 -14.083700 -30.613800
O -6.358800 -16.916900 -29.550800
H -6.331800 -15.896500 -25.299800
O -6.267600 -17.523600 -31.660000
H -6.115600 -11.789000 -31.458400
C -5.910000 -15.801600 -26.124200
C -5.786800 -16.271400 -28.452400
C -5.718900 -16.930400 -30.744300
C -5.337500 -13.428200 -30.729300
N -5.333200 -12.145100 -31.097900
C -4.771100 -15.029900 -26.225300
C -4.656500 -15.500800 -28.586600
H -4.520900 -11.667700 -31.267000
N -4.518800 -16.363600 -30.831200
H -4.422000 -14.612800 -25.471600
H -4.199500 -16.391300 -31.673700
C -4.149300 -14.878600 -27.449200
N -4.134100 -14.002800 -30.478700
C -4.003300 -15.342000 -29.931200
H -3.391100 -13.505200 -30.586400
H -3.383800 -14.354700 -27.513600
H -3.046200 -15.515300 -29.812200
24
Fragment
H -6.722100 -18.670700 -35.427100
H -6.384400 -19.831300 -37.725700
H -6.377100 -20.680800 -34.653000
C -5.764900 -18.844000 -35.308200
N -5.634100 -20.183200 -34.760600
C -5.619000 -19.307400 -37.790100
H -5.568800 -17.794700 -33.565600
H -5.346200 -19.573200 -39.767700
N -5.249400 -17.822400 -34.408100
H -5.247400 -22.518300 -33.972300
C -5.111800 -18.685200 -36.652800
C -4.997200 -19.156100 -39.014000
N -4.435100 -22.040900 -34.141500
C -4.430700 -20.757800 -34.510100
C -4.049300 -17.255600 -34.495100
C -3.981400 -17.914600 -36.786900
C -3.858200 -18.384400 -39.115100
H -3.652700 -22.397000 -33.780900
O -3.500600 -16.662400 -33.579300
H -3.436500 -18.289500 -39.939500
O -3.409400 -17.269100 -35.688500
O -3.378900 -20.102300 -34.625600
C -3.340000 -17.752700 -38.004100
H -2.574800 -17.228000 -38.071500
48
Fragment
H -7.193400 -16.958000 -27.167800
C -6.428300 -16.433300 -27.235200
O -6.389300 -14.083700 -30.613800
O -6.358800 -16.916900 -29.550800
H -6.331800 -15.896500 -25.299800
O -6.267600 -17.523600 -31.660000
H -6.115600 -11.789000 -31.458400
C -5.910000 -15.801600 -26.124200
C -5.786800 -16.271400 -28.452400
C -5.718900 -16.930400 -30.744300
C -5.337500 -13.428200 -30.729300
N -5.333200 -12.145100 -31.097900
C -4.771100 -15.029900 -26.225300
C -4.656500 -15.500800 -28.586600
H -4.520900 -11.667700 -31.267000
N -4.518800 -16.363600 -30.831200
H -4.422000 -14.612800 -25.471600
H -4.199500 -16.391300 -31.673700
C -4.149300 -14.878600 -27.449200
N -4.134100 -14.002800 -30.478700
C -4.003300 -15.342000 -29.931200
H -3.391100 -13.505200 -30.586400
H -3.383800 -14.354700 -27.513600
H -3.046200 -15.515300 -29.812200
H -6.722100 -18.670700 -35.427100
H -6.384400 -19.831300 -37.725700
H -6.377100 -20.680800 -34.653000
C -5.764900 -18.844000 -35.308200
N -5.634100 -20.183200 -34.760600
C -5.619000 -19.307400 -37.790100
H -5.568800 -17.794700 -33.565600
H -5.346200 -19.573200 -39.767700
N -5.249400 -17.822400 -34.408100
H -5.247400 -22.518300 -33.972300
C -5.111800 -18.685200 -36.652800
C -4.997200 -19.156100 -39.014000
N -4.435100 -22.040900 -34.141500
C -4.430700 -20.757800 -34.510100
C -4.049300 -17.255600 -34.495100
C -3.981400 -17.914600 -36.786900
C -3.858200 -18.384400 -39.115100
H -3.652700 -22.397000 -33.780900
O -3.500600 -16.662400 -33.579300
H -3.436500 -18.289500 -39.939500
O -3.409400 -17.269100 -35.688500
O -3.378900 -20.102300 -34.625600
C -3.340000 -17.752700 -38.004100
H -2.574800 -17.228000 -38.071500
