24
Fragment
H -7.193400 -16.958000 -27.167800
C -6.428300 -16.433300 -27.235200
O -6.389300 -14.083700 -30.613800
O -6.358800 -16.916900 -29.550800
H -6.331800 -15.896500 -25.299800
O -6.267600 -17.523600 -31.660000
H -6.115600 -11.789000 -31.458400
C -5.910000 -15.801600 -26.124200
C -5.786800 -16.271400 -28.452400
C -5.718900 -16.930400 -30.744300
C -5.337500 -13.428200 -30.729300
N -5.333200 -12.145100 -31.097900
C -4.771100 -15.029900 -26.225300
C -4.656500 -15.500800 -28.586600
H -4.520900 -11.667700 -31.267000
N -4.518800 -16.363600 -30.831200
H -4.422000 -14.612800 -25.471600
H -4.199500 -16.391300 -31.673700
C -4.149300 -14.878600 -27.449200
N -4.134100 -14.002800 -30.478700
C -4.003300 -15.342000 -29.931200
H -3.391100 -13.505200 -30.586400
H -3.383800 -14.354700 -27.513600
H -3.046200 -15.515300 -29.812200
24
Fragment
H -10.433300 -19.788600 -24.553900
H -10.095700 -18.628000 -26.852500
H -10.088400 -17.778400 -23.779700
C -9.476200 -19.615200 -24.435000
N -9.345400 -18.276000 -23.887400
C -9.330200 -19.151900 -26.916900
H -9.280000 -20.664600 -22.692400
H -9.057500 -18.886100 -28.894500
N -8.960700 -20.636800 -23.534900
H -8.958600 -15.940900 -23.099100
C -8.823000 -19.774000 -25.779500
C -8.708400 -19.303100 -28.140800
N -8.146300 -16.418300 -23.268300
C -8.142000 -17.701400 -23.636900
C -7.760600 -21.203600 -23.621900
C -7.692700 -20.544700 -25.913700
C -7.569500 -20.074900 -28.241900
H -7.364000 -16.062300 -22.907700
O -7.211900 -21.796800 -22.706100
H -7.147700 -20.169700 -29.066300
O -7.120700 -21.190200 -24.815300
O -7.090200 -18.356900 -23.752300
C -7.051200 -20.706500 -27.130900
H -6.286100 -21.231200 -27.198300
48
Fragment
H -7.193400 -16.958000 -27.167800
C -6.428300 -16.433300 -27.235200
O -6.389300 -14.083700 -30.613800
O -6.358800 -16.916900 -29.550800
H -6.331800 -15.896500 -25.299800
O -6.267600 -17.523600 -31.660000
H -6.115600 -11.789000 -31.458400
C -5.910000 -15.801600 -26.124200
C -5.786800 -16.271400 -28.452400
C -5.718900 -16.930400 -30.744300
C -5.337500 -13.428200 -30.729300
N -5.333200 -12.145100 -31.097900
C -4.771100 -15.029900 -26.225300
C -4.656500 -15.500800 -28.586600
H -4.520900 -11.667700 -31.267000
N -4.518800 -16.363600 -30.831200
H -4.422000 -14.612800 -25.471600
H -4.199500 -16.391300 -31.673700
C -4.149300 -14.878600 -27.449200
N -4.134100 -14.002800 -30.478700
C -4.003300 -15.342000 -29.931200
H -3.391100 -13.505200 -30.586400
H -3.383800 -14.354700 -27.513600
H -3.046200 -15.515300 -29.812200
H -10.433300 -19.788600 -24.553900
H -10.095700 -18.628000 -26.852500
H -10.088400 -17.778400 -23.779700
C -9.476200 -19.615200 -24.435000
N -9.345400 -18.276000 -23.887400
C -9.330200 -19.151900 -26.916900
H -9.280000 -20.664600 -22.692400
H -9.057500 -18.886100 -28.894500
N -8.960700 -20.636800 -23.534900
H -8.958600 -15.940900 -23.099100
C -8.823000 -19.774000 -25.779500
C -8.708400 -19.303100 -28.140800
N -8.146300 -16.418300 -23.268300
C -8.142000 -17.701400 -23.636900
C -7.760600 -21.203600 -23.621900
C -7.692700 -20.544700 -25.913700
C -7.569500 -20.074900 -28.241900
H -7.364000 -16.062300 -22.907700
O -7.211900 -21.796800 -22.706100
H -7.147700 -20.169700 -29.066300
O -7.120700 -21.190200 -24.815300
O -7.090200 -18.356900 -23.752300
C -7.051200 -20.706500 -27.130900
H -6.286100 -21.231200 -27.198300
