24
Fragment
H -7.193400 -16.958000 -27.167800
C -6.428300 -16.433300 -27.235200
O -6.389300 -14.083700 -30.613800
O -6.358800 -16.916900 -29.550800
H -6.331800 -15.896500 -25.299800
O -6.267600 -17.523600 -31.660000
H -6.115600 -11.789000 -31.458400
C -5.910000 -15.801600 -26.124200
C -5.786800 -16.271400 -28.452400
C -5.718900 -16.930400 -30.744300
C -5.337500 -13.428200 -30.729300
N -5.333200 -12.145100 -31.097900
C -4.771100 -15.029900 -26.225300
C -4.656500 -15.500800 -28.586600
H -4.520900 -11.667700 -31.267000
N -4.518800 -16.363600 -30.831200
H -4.422000 -14.612800 -25.471600
H -4.199500 -16.391300 -31.673700
C -4.149300 -14.878600 -27.449200
N -4.134100 -14.002800 -30.478700
C -4.003300 -15.342000 -29.931200
H -3.391100 -13.505200 -30.586400
H -3.383800 -14.354700 -27.513600
H -3.046200 -15.515300 -29.812200
3
Fragment
H -5.795700 -14.524800 -22.714200
O -5.403600 -15.340600 -22.465800
H -5.350500 -15.373400 -21.531200
27
Fragment
H -7.193400 -16.958000 -27.167800
C -6.428300 -16.433300 -27.235200
O -6.389300 -14.083700 -30.613800
O -6.358800 -16.916900 -29.550800
H -6.331800 -15.896500 -25.299800
O -6.267600 -17.523600 -31.660000
H -6.115600 -11.789000 -31.458400
C -5.910000 -15.801600 -26.124200
C -5.786800 -16.271400 -28.452400
C -5.718900 -16.930400 -30.744300
C -5.337500 -13.428200 -30.729300
N -5.333200 -12.145100 -31.097900
C -4.771100 -15.029900 -26.225300
C -4.656500 -15.500800 -28.586600
H -4.520900 -11.667700 -31.267000
N -4.518800 -16.363600 -30.831200
H -4.422000 -14.612800 -25.471600
H -4.199500 -16.391300 -31.673700
C -4.149300 -14.878600 -27.449200
N -4.134100 -14.002800 -30.478700
C -4.003300 -15.342000 -29.931200
H -3.391100 -13.505200 -30.586400
H -3.383800 -14.354700 -27.513600
H -3.046200 -15.515300 -29.812200
H -5.795700 -14.524800 -22.714200
O -5.403600 -15.340600 -22.465800
H -5.350500 -15.373400 -21.531200
