30
Fragment
H -10.848000 -8.875400 -24.352800
N -10.781000 -8.069000 -26.155800
C -10.537400 -8.935300 -25.228000
N -10.141200 -8.512100 -27.309300
N -9.770800 -9.936800 -25.704300
C -9.549000 -9.617700 -27.014500
N -9.374100 -11.018200 -24.897200
H -9.042600 -10.124900 -27.607900
H -9.024500 -12.673100 -22.920400
C -8.713200 -11.924400 -25.467300
C -8.532200 -13.304900 -23.391700
H -8.514500 -11.841700 -26.371400
H -8.281300 -14.558700 -21.854100
C -8.253000 -13.099100 -24.740300
C -8.086300 -14.433300 -22.755400
C -7.512600 -14.061500 -25.420200
C -7.346000 -15.395700 -23.435400
H -7.317600 -13.936100 -26.321600
H -7.084500 -16.653100 -21.804300
C -7.066700 -15.189900 -24.784000
C -6.885800 -16.570400 -22.708400
H -6.574500 -15.821700 -25.255300
H -6.556400 -18.369900 -20.567800
N -6.224900 -17.476600 -23.278500
C -6.049900 -18.877100 -21.161200
N -5.828200 -18.558000 -22.471400
N -5.457800 -19.982700 -20.866300
C -5.061600 -19.559500 -22.947700
N -4.818000 -20.425800 -22.019800
H -4.751000 -19.619400 -23.822900
30
Fragment
H -8.248200 -16.057500 -16.323500
N -8.181200 -16.863900 -18.126600
C -7.937500 -15.997700 -17.198700
N -7.541400 -16.420800 -19.280100
N -7.171000 -14.996100 -17.675000
C -6.949200 -15.315200 -18.985200
N -6.774200 -13.914700 -16.867900
H -6.442800 -14.808000 -19.578600
H -6.424600 -12.259900 -14.891100
C -6.113400 -13.008600 -17.438000
C -5.932400 -11.628000 -15.362400
H -5.914600 -13.091200 -18.342100
H -5.681500 -10.374200 -13.824800
C -5.653200 -11.833900 -16.711000
C -5.486500 -10.499600 -14.726200
C -4.912800 -10.871500 -17.390900
C -4.746200 -9.537200 -15.406100
H -4.717800 -10.996900 -18.292300
H -4.484700 -8.279900 -13.775000
C -4.466900 -9.743100 -16.754700
C -4.285900 -8.362500 -14.679100
H -3.974700 -9.111200 -17.226000
H -3.956500 -6.563100 -12.538500
N -3.625100 -7.456400 -15.249200
C -3.450100 -6.055900 -13.131900
N -3.228300 -6.375000 -14.442100
N -2.858000 -4.950300 -12.837000
C -2.461800 -5.373400 -14.918400
N -2.218100 -4.507200 -13.990500
H -2.151100 -5.313600 -15.793600
60
Fragment
H -10.848000 -8.875400 -24.352800
N -10.781000 -8.069000 -26.155800
C -10.537400 -8.935300 -25.228000
N -10.141200 -8.512100 -27.309300
N -9.770800 -9.936800 -25.704300
C -9.549000 -9.617700 -27.014500
N -9.374100 -11.018200 -24.897200
H -9.042600 -10.124900 -27.607900
H -9.024500 -12.673100 -22.920400
C -8.713200 -11.924400 -25.467300
C -8.532200 -13.304900 -23.391700
H -8.514500 -11.841700 -26.371400
H -8.281300 -14.558700 -21.854100
C -8.253000 -13.099100 -24.740300
C -8.086300 -14.433300 -22.755400
C -7.512600 -14.061500 -25.420200
C -7.346000 -15.395700 -23.435400
H -7.317600 -13.936100 -26.321600
H -7.084500 -16.653100 -21.804300
C -7.066700 -15.189900 -24.784000
C -6.885800 -16.570400 -22.708400
H -6.574500 -15.821700 -25.255300
H -6.556400 -18.369900 -20.567800
N -6.224900 -17.476600 -23.278500
C -6.049900 -18.877100 -21.161200
N -5.828200 -18.558000 -22.471400
N -5.457800 -19.982700 -20.866300
C -5.061600 -19.559500 -22.947700
N -4.818000 -20.425800 -22.019800
H -4.751000 -19.619400 -23.822900
H -8.248200 -16.057500 -16.323500
N -8.181200 -16.863900 -18.126600
C -7.937500 -15.997700 -17.198700
N -7.541400 -16.420800 -19.280100
N -7.171000 -14.996100 -17.675000
C -6.949200 -15.315200 -18.985200
N -6.774200 -13.914700 -16.867900
H -6.442800 -14.808000 -19.578600
H -6.424600 -12.259900 -14.891100
C -6.113400 -13.008600 -17.438000
C -5.932400 -11.628000 -15.362400
H -5.914600 -13.091200 -18.342100
H -5.681500 -10.374200 -13.824800
C -5.653200 -11.833900 -16.711000
C -5.486500 -10.499600 -14.726200
C -4.912800 -10.871500 -17.390900
C -4.746200 -9.537200 -15.406100
H -4.717800 -10.996900 -18.292300
H -4.484700 -8.279900 -13.775000
C -4.466900 -9.743100 -16.754700
C -4.285900 -8.362500 -14.679100
H -3.974700 -9.111200 -17.226000
H -3.956500 -6.563100 -12.538500
N -3.625100 -7.456400 -15.249200
C -3.450100 -6.055900 -13.131900
N -3.228300 -6.375000 -14.442100
N -2.858000 -4.950300 -12.837000
C -2.461800 -5.373400 -14.918400
N -2.218100 -4.507200 -13.990500
H -2.151100 -5.313600 -15.793600
