30
Fragment
H -10.848000 -8.875400 -24.352800
N -10.781000 -8.069000 -26.155800
C -10.537400 -8.935300 -25.228000
N -10.141200 -8.512100 -27.309300
N -9.770800 -9.936800 -25.704300
C -9.549000 -9.617700 -27.014500
N -9.374100 -11.018200 -24.897200
H -9.042600 -10.124900 -27.607900
H -9.024500 -12.673100 -22.920400
C -8.713200 -11.924400 -25.467300
C -8.532200 -13.304900 -23.391700
H -8.514500 -11.841700 -26.371400
H -8.281300 -14.558700 -21.854100
C -8.253000 -13.099100 -24.740300
C -8.086300 -14.433300 -22.755400
C -7.512600 -14.061500 -25.420200
C -7.346000 -15.395700 -23.435400
H -7.317600 -13.936100 -26.321600
H -7.084500 -16.653100 -21.804300
C -7.066700 -15.189900 -24.784000
C -6.885800 -16.570400 -22.708400
H -6.574500 -15.821700 -25.255300
H -6.556400 -18.369900 -20.567800
N -6.224900 -17.476600 -23.278500
C -6.049900 -18.877100 -21.161200
N -5.828200 -18.558000 -22.471400
N -5.457800 -19.982700 -20.866300
C -5.061600 -19.559500 -22.947700
N -4.818000 -20.425800 -22.019800
H -4.751000 -19.619400 -23.822900
30
Fragment
H -10.848000 -15.999100 -24.352800
N -10.781000 -15.192700 -26.155800
C -10.537400 -16.059000 -25.228000
N -10.141200 -15.635800 -27.309300
N -9.770800 -17.060500 -25.704300
C -9.549000 -16.741400 -27.014500
N -9.374100 -18.141900 -24.897200
H -9.042600 -17.248600 -27.607900
H -9.024500 -19.796800 -22.920400
C -8.713200 -19.048100 -25.467300
C -8.532200 -20.428600 -23.391700
H -8.514500 -18.965400 -26.371400
H -8.281300 -21.682400 -21.854100
C -8.253000 -20.222800 -24.740300
C -8.086300 -21.557000 -22.755400
C -7.512600 -21.185200 -25.420200
C -7.346000 -22.519400 -23.435400
H -7.317600 -21.059800 -26.321600
H -7.084500 -23.776800 -21.804300
C -7.066700 -22.313600 -24.784000
C -6.885800 -23.694100 -22.708400
H -6.574500 -22.945400 -25.255300
H -6.556400 -25.493600 -20.567800
N -6.224900 -24.600300 -23.278500
C -6.049900 -26.000800 -21.161200
N -5.828200 -25.681700 -22.471400
N -5.457800 -27.106400 -20.866300
C -5.061600 -26.683200 -22.947700
N -4.818000 -27.549500 -22.019800
H -4.751000 -26.743100 -23.822900
60
Fragment
H -10.848000 -8.875400 -24.352800
N -10.781000 -8.069000 -26.155800
C -10.537400 -8.935300 -25.228000
N -10.141200 -8.512100 -27.309300
N -9.770800 -9.936800 -25.704300
C -9.549000 -9.617700 -27.014500
N -9.374100 -11.018200 -24.897200
H -9.042600 -10.124900 -27.607900
H -9.024500 -12.673100 -22.920400
C -8.713200 -11.924400 -25.467300
C -8.532200 -13.304900 -23.391700
H -8.514500 -11.841700 -26.371400
H -8.281300 -14.558700 -21.854100
C -8.253000 -13.099100 -24.740300
C -8.086300 -14.433300 -22.755400
C -7.512600 -14.061500 -25.420200
C -7.346000 -15.395700 -23.435400
H -7.317600 -13.936100 -26.321600
H -7.084500 -16.653100 -21.804300
C -7.066700 -15.189900 -24.784000
C -6.885800 -16.570400 -22.708400
H -6.574500 -15.821700 -25.255300
H -6.556400 -18.369900 -20.567800
N -6.224900 -17.476600 -23.278500
C -6.049900 -18.877100 -21.161200
N -5.828200 -18.558000 -22.471400
N -5.457800 -19.982700 -20.866300
C -5.061600 -19.559500 -22.947700
N -4.818000 -20.425800 -22.019800
H -4.751000 -19.619400 -23.822900
H -10.848000 -15.999100 -24.352800
N -10.781000 -15.192700 -26.155800
C -10.537400 -16.059000 -25.228000
N -10.141200 -15.635800 -27.309300
N -9.770800 -17.060500 -25.704300
C -9.549000 -16.741400 -27.014500
N -9.374100 -18.141900 -24.897200
H -9.042600 -17.248600 -27.607900
H -9.024500 -19.796800 -22.920400
C -8.713200 -19.048100 -25.467300
C -8.532200 -20.428600 -23.391700
H -8.514500 -18.965400 -26.371400
H -8.281300 -21.682400 -21.854100
C -8.253000 -20.222800 -24.740300
C -8.086300 -21.557000 -22.755400
C -7.512600 -21.185200 -25.420200
C -7.346000 -22.519400 -23.435400
H -7.317600 -21.059800 -26.321600
H -7.084500 -23.776800 -21.804300
C -7.066700 -22.313600 -24.784000
C -6.885800 -23.694100 -22.708400
H -6.574500 -22.945400 -25.255300
H -6.556400 -25.493600 -20.567800
N -6.224900 -24.600300 -23.278500
C -6.049900 -26.000800 -21.161200
N -5.828200 -25.681700 -22.471400
N -5.457800 -27.106400 -20.866300
C -5.061600 -26.683200 -22.947700
N -4.818000 -27.549500 -22.019800
H -4.751000 -26.743100 -23.822900
