22
Fragment
H -25.835800 -15.031800 -30.851700
H -25.643800 -13.481200 -32.612600
C -25.485600 -14.165400 -30.680900
C -25.376500 -13.236200 -31.734500
H -25.171700 -14.462800 -28.703000
C -25.088600 -13.828400 -29.405200
C -24.884200 -11.976800 -31.493800
H -24.824200 -11.346800 -32.202300
C -24.559900 -12.549200 -29.133500
C -24.468300 -11.619500 -30.196000
H -24.444900 -13.760100 -26.685600
C -24.073000 -12.110800 -27.855400
C -24.068900 -12.887700 -26.679700
N -23.974200 -10.330600 -30.037500
C -23.537000 -10.801900 -27.798100
N -23.525500 -9.941200 -28.889500
C -23.520000 -12.382900 -25.522900
H -23.517700 -12.915400 -24.736100
C -22.982200 -10.305800 -26.605800
C -22.964400 -11.096600 -25.485700
H -22.621400 -9.427500 -26.576100
H -22.574700 -10.771900 -24.682600
22
Fragment
H -29.440200 -21.817200 -30.851700
H -29.248200 -20.266600 -32.612600
C -29.089900 -20.950800 -30.680900
C -28.980800 -20.021600 -31.734500
H -28.776100 -21.248200 -28.703000
C -28.693000 -20.613800 -29.405200
C -28.488600 -18.762200 -31.493800
H -28.428500 -18.132200 -32.202300
C -28.164300 -19.334600 -29.133500
C -28.072700 -18.404900 -30.196000
H -28.049300 -20.545500 -26.685600
C -27.677400 -18.896200 -27.855400
C -27.673300 -19.673100 -26.679700
N -27.578600 -17.116000 -30.037500
C -27.141400 -17.587300 -27.798100
N -27.129800 -16.726600 -28.889500
C -27.124400 -19.168300 -25.522900
H -27.122100 -19.700800 -24.736100
C -26.586500 -17.091200 -26.605800
C -26.568800 -17.882000 -25.485700
H -26.225800 -16.212900 -26.576100
H -26.179100 -17.557300 -24.682600
44
Fragment
H -25.835800 -15.031800 -30.851700
H -25.643800 -13.481200 -32.612600
C -25.485600 -14.165400 -30.680900
C -25.376500 -13.236200 -31.734500
H -25.171700 -14.462800 -28.703000
C -25.088600 -13.828400 -29.405200
C -24.884200 -11.976800 -31.493800
H -24.824200 -11.346800 -32.202300
C -24.559900 -12.549200 -29.133500
C -24.468300 -11.619500 -30.196000
H -24.444900 -13.760100 -26.685600
C -24.073000 -12.110800 -27.855400
C -24.068900 -12.887700 -26.679700
N -23.974200 -10.330600 -30.037500
C -23.537000 -10.801900 -27.798100
N -23.525500 -9.941200 -28.889500
C -23.520000 -12.382900 -25.522900
H -23.517700 -12.915400 -24.736100
C -22.982200 -10.305800 -26.605800
C -22.964400 -11.096600 -25.485700
H -22.621400 -9.427500 -26.576100
H -22.574700 -10.771900 -24.682600
H -29.440200 -21.817200 -30.851700
H -29.248200 -20.266600 -32.612600
C -29.089900 -20.950800 -30.680900
C -28.980800 -20.021600 -31.734500
H -28.776100 -21.248200 -28.703000
C -28.693000 -20.613800 -29.405200
C -28.488600 -18.762200 -31.493800
H -28.428500 -18.132200 -32.202300
C -28.164300 -19.334600 -29.133500
C -28.072700 -18.404900 -30.196000
H -28.049300 -20.545500 -26.685600
C -27.677400 -18.896200 -27.855400
C -27.673300 -19.673100 -26.679700
N -27.578600 -17.116000 -30.037500
C -27.141400 -17.587300 -27.798100
N -27.129800 -16.726600 -28.889500
C -27.124400 -19.168300 -25.522900
H -27.122100 -19.700800 -24.736100
C -26.586500 -17.091200 -26.605800
C -26.568800 -17.882000 -25.485700
H -26.225800 -16.212900 -26.576100
H -26.179100 -17.557300 -24.682600
