22
Fragment
H -25.835800 -15.031800 -30.851700
H -25.643800 -13.481200 -32.612600
C -25.485600 -14.165400 -30.680900
C -25.376500 -13.236200 -31.734500
H -25.171700 -14.462800 -28.703000
C -25.088600 -13.828400 -29.405200
C -24.884200 -11.976800 -31.493800
H -24.824200 -11.346800 -32.202300
C -24.559900 -12.549200 -29.133500
C -24.468300 -11.619500 -30.196000
H -24.444900 -13.760100 -26.685600
C -24.073000 -12.110800 -27.855400
C -24.068900 -12.887700 -26.679700
N -23.974200 -10.330600 -30.037500
C -23.537000 -10.801900 -27.798100
N -23.525500 -9.941200 -28.889500
C -23.520000 -12.382900 -25.522900
H -23.517700 -12.915400 -24.736100
C -22.982200 -10.305800 -26.605800
C -22.964400 -11.096600 -25.485700
H -22.621400 -9.427500 -26.576100
H -22.574700 -10.771900 -24.682600
16
Fragment
N -26.521500 -22.742000 -32.632300
C -26.069100 -21.867500 -32.043500
N -25.989100 -19.333000 -34.494500
C -25.682800 -19.408000 -33.390200
C -25.513200 -20.743000 -31.332900
H -25.333600 -21.687600 -29.534300
C -25.317500 -19.520800 -32.002800
C -25.189400 -20.865900 -29.989000
C -24.785300 -18.427500 -31.329500
H -24.655400 -17.601800 -31.781000
C -24.651100 -19.773700 -29.313200
C -24.445800 -18.556300 -29.989500
C -24.284300 -19.911400 -27.928800
N -23.988900 -20.031500 -26.824800
C -23.861600 -17.444300 -29.281300
N -23.380500 -16.572300 -28.709400
38
Fragment
H -25.835800 -15.031800 -30.851700
H -25.643800 -13.481200 -32.612600
C -25.485600 -14.165400 -30.680900
C -25.376500 -13.236200 -31.734500
H -25.171700 -14.462800 -28.703000
C -25.088600 -13.828400 -29.405200
C -24.884200 -11.976800 -31.493800
H -24.824200 -11.346800 -32.202300
C -24.559900 -12.549200 -29.133500
C -24.468300 -11.619500 -30.196000
H -24.444900 -13.760100 -26.685600
C -24.073000 -12.110800 -27.855400
C -24.068900 -12.887700 -26.679700
N -23.974200 -10.330600 -30.037500
C -23.537000 -10.801900 -27.798100
N -23.525500 -9.941200 -28.889500
C -23.520000 -12.382900 -25.522900
H -23.517700 -12.915400 -24.736100
C -22.982200 -10.305800 -26.605800
C -22.964400 -11.096600 -25.485700
H -22.621400 -9.427500 -26.576100
H -22.574700 -10.771900 -24.682600
N -26.521500 -22.742000 -32.632300
C -26.069100 -21.867500 -32.043500
N -25.989100 -19.333000 -34.494500
C -25.682800 -19.408000 -33.390200
C -25.513200 -20.743000 -31.332900
H -25.333600 -21.687600 -29.534300
C -25.317500 -19.520800 -32.002800
C -25.189400 -20.865900 -29.989000
C -24.785300 -18.427500 -31.329500
H -24.655400 -17.601800 -31.781000
C -24.651100 -19.773700 -29.313200
C -24.445800 -18.556300 -29.989500
C -24.284300 -19.911400 -27.928800
N -23.988900 -20.031500 -26.824800
C -23.861600 -17.444300 -29.281300
N -23.380500 -16.572300 -28.709400
