22
Fragment
H -25.835800 -15.031800 -30.851700
H -25.643800 -13.481200 -32.612600
C -25.485600 -14.165400 -30.680900
C -25.376500 -13.236200 -31.734500
H -25.171700 -14.462800 -28.703000
C -25.088600 -13.828400 -29.405200
C -24.884200 -11.976800 -31.493800
H -24.824200 -11.346800 -32.202300
C -24.559900 -12.549200 -29.133500
C -24.468300 -11.619500 -30.196000
H -24.444900 -13.760100 -26.685600
C -24.073000 -12.110800 -27.855400
C -24.068900 -12.887700 -26.679700
N -23.974200 -10.330600 -30.037500
C -23.537000 -10.801900 -27.798100
N -23.525500 -9.941200 -28.889500
C -23.520000 -12.382900 -25.522900
H -23.517700 -12.915400 -24.736100
C -22.982200 -10.305800 -26.605800
C -22.964400 -11.096600 -25.485700
H -22.621400 -9.427500 -26.576100
H -22.574700 -10.771900 -24.682600
16
Fragment
N -30.187100 -15.956600 -32.632300
C -29.734800 -15.082100 -32.043500
N -29.654800 -12.547600 -34.494500
C -29.348400 -12.622600 -33.390200
C -29.178900 -13.957600 -31.332900
H -28.999200 -14.902200 -29.534300
C -28.983100 -12.735400 -32.002800
C -28.855000 -14.080500 -29.989000
C -28.450900 -11.642100 -31.329500
H -28.321000 -10.816400 -31.781000
C -28.316800 -12.988300 -29.313200
C -28.111400 -11.770900 -29.989500
C -27.949900 -13.126000 -27.928800
N -27.654600 -13.246100 -26.824800
C -27.527200 -10.658900 -29.281300
N -27.046200 -9.786900 -28.709400
38
Fragment
H -25.835800 -15.031800 -30.851700
H -25.643800 -13.481200 -32.612600
C -25.485600 -14.165400 -30.680900
C -25.376500 -13.236200 -31.734500
H -25.171700 -14.462800 -28.703000
C -25.088600 -13.828400 -29.405200
C -24.884200 -11.976800 -31.493800
H -24.824200 -11.346800 -32.202300
C -24.559900 -12.549200 -29.133500
C -24.468300 -11.619500 -30.196000
H -24.444900 -13.760100 -26.685600
C -24.073000 -12.110800 -27.855400
C -24.068900 -12.887700 -26.679700
N -23.974200 -10.330600 -30.037500
C -23.537000 -10.801900 -27.798100
N -23.525500 -9.941200 -28.889500
C -23.520000 -12.382900 -25.522900
H -23.517700 -12.915400 -24.736100
C -22.982200 -10.305800 -26.605800
C -22.964400 -11.096600 -25.485700
H -22.621400 -9.427500 -26.576100
H -22.574700 -10.771900 -24.682600
N -30.187100 -15.956600 -32.632300
C -29.734800 -15.082100 -32.043500
N -29.654800 -12.547600 -34.494500
C -29.348400 -12.622600 -33.390200
C -29.178900 -13.957600 -31.332900
H -28.999200 -14.902200 -29.534300
C -28.983100 -12.735400 -32.002800
C -28.855000 -14.080500 -29.989000
C -28.450900 -11.642100 -31.329500
H -28.321000 -10.816400 -31.781000
C -28.316800 -12.988300 -29.313200
C -28.111400 -11.770900 -29.989500
C -27.949900 -13.126000 -27.928800
N -27.654600 -13.246100 -26.824800
C -27.527200 -10.658900 -29.281300
N -27.046200 -9.786900 -28.709400
