22
Fragment
H -11.551000 -12.445700 -11.710800
C -11.127100 -12.445500 -10.827200
H -11.108300 -14.477900 -10.514400
H -10.986200 -10.368700 -10.706100
C -10.891700 -13.621400 -10.178000
C -10.793700 -11.204000 -10.229200
C -10.285500 -13.611500 -8.886900
C -10.210000 -11.149200 -9.003900
N -10.065700 -14.782900 -8.261800
H -9.962000 -10.303500 -8.589500
C -9.934300 -12.355700 -8.288700
C -9.491500 -14.713800 -7.049600
H -9.463800 -16.766000 -6.748900
N -9.360000 -12.286600 -7.076600
C -9.215800 -15.920300 -6.334400
C -9.140300 -13.457900 -6.451400
C -8.632100 -15.865500 -5.109100
C -8.534100 -13.448100 -5.160300
H -8.439600 -16.700800 -4.632200
H -8.317500 -12.591600 -4.823900
C -8.298700 -14.624000 -4.511200
H -7.874800 -14.623800 -3.627500
22
Fragment
H -10.489400 -10.453100 -4.041600
C -10.065500 -10.452900 -3.158000
H -10.046700 -12.485300 -2.845300
H -9.924500 -8.376100 -3.037000
C -9.830100 -11.628800 -2.508800
C -9.732100 -9.211300 -2.560000
C -9.223900 -11.618900 -1.217800
C -9.148400 -9.156600 -1.334700
N -9.004100 -12.790300 -0.592600
H -8.900400 -8.310900 -0.920300
C -8.872700 -10.363000 -0.619500
C -8.429900 -12.721200 0.619500
H -8.402200 -14.773300 0.920300
N -8.298400 -10.293900 0.592600
C -8.154200 -13.927600 1.334700
C -8.078700 -11.465300 1.217800
C -7.570500 -13.872900 2.560000
C -7.472400 -11.455400 2.508800
H -7.378000 -14.708100 3.037000
H -7.255900 -10.598900 2.845300
C -7.237100 -12.631300 3.158000
H -6.813200 -12.631100 4.041600
44
Fragment
H -11.551000 -12.445700 -11.710800
C -11.127100 -12.445500 -10.827200
H -11.108300 -14.477900 -10.514400
H -10.986200 -10.368700 -10.706100
C -10.891700 -13.621400 -10.178000
C -10.793700 -11.204000 -10.229200
C -10.285500 -13.611500 -8.886900
C -10.210000 -11.149200 -9.003900
N -10.065700 -14.782900 -8.261800
H -9.962000 -10.303500 -8.589500
C -9.934300 -12.355700 -8.288700
C -9.491500 -14.713800 -7.049600
H -9.463800 -16.766000 -6.748900
N -9.360000 -12.286600 -7.076600
C -9.215800 -15.920300 -6.334400
C -9.140300 -13.457900 -6.451400
C -8.632100 -15.865500 -5.109100
C -8.534100 -13.448100 -5.160300
H -8.439600 -16.700800 -4.632200
H -8.317500 -12.591600 -4.823900
C -8.298700 -14.624000 -4.511200
H -7.874800 -14.623800 -3.627500
H -10.489400 -10.453100 -4.041600
C -10.065500 -10.452900 -3.158000
H -10.046700 -12.485300 -2.845300
H -9.924500 -8.376100 -3.037000
C -9.830100 -11.628800 -2.508800
C -9.732100 -9.211300 -2.560000
C -9.223900 -11.618900 -1.217800
C -9.148400 -9.156600 -1.334700
N -9.004100 -12.790300 -0.592600
H -8.900400 -8.310900 -0.920300
C -8.872700 -10.363000 -0.619500
C -8.429900 -12.721200 0.619500
H -8.402200 -14.773300 0.920300
N -8.298400 -10.293900 0.592600
C -8.154200 -13.927600 1.334700
C -8.078700 -11.465300 1.217800
C -7.570500 -13.872900 2.560000
C -7.472400 -11.455400 2.508800
H -7.378000 -14.708100 3.037000
H -7.255900 -10.598900 2.845300
C -7.237100 -12.631300 3.158000
H -6.813200 -12.631100 4.041600
