22
Fragment
H -11.551000 -12.445700 -11.710800
C -11.127100 -12.445500 -10.827200
H -11.108300 -14.477900 -10.514400
H -10.986200 -10.368700 -10.706100
C -10.891700 -13.621400 -10.178000
C -10.793700 -11.204000 -10.229200
C -10.285500 -13.611500 -8.886900
C -10.210000 -11.149200 -9.003900
N -10.065700 -14.782900 -8.261800
H -9.962000 -10.303500 -8.589500
C -9.934300 -12.355700 -8.288700
C -9.491500 -14.713800 -7.049600
H -9.463800 -16.766000 -6.748900
N -9.360000 -12.286600 -7.076600
C -9.215800 -15.920300 -6.334400
C -9.140300 -13.457900 -6.451400
C -8.632100 -15.865500 -5.109100
C -8.534100 -13.448100 -5.160300
H -8.439600 -16.700800 -4.632200
H -8.317500 -12.591600 -4.823900
C -8.298700 -14.624000 -4.511200
H -7.874800 -14.623800 -3.627500
16
Fragment
N -8.374500 -20.799900 -11.337600
C -7.967400 -20.918700 -10.276400
N -7.644600 -17.606900 -9.125000
C -7.437400 -21.085600 -8.947500
C -7.419700 -18.641400 -8.696400
H -7.401300 -23.139400 -9.025800
C -7.200300 -22.365400 -8.454100
C -7.151000 -19.952500 -8.163400
C -6.669600 -22.506500 -7.174900
C -6.620400 -20.093600 -6.884200
H -6.419300 -19.319600 -6.312500
C -6.400900 -23.817600 -6.642000
C -6.383200 -21.373400 -6.390800
N -6.176000 -24.852100 -6.213300
C -5.853200 -21.540200 -5.062000
N -5.446100 -21.659100 -4.000700
38
Fragment
H -11.551000 -12.445700 -11.710800
C -11.127100 -12.445500 -10.827200
H -11.108300 -14.477900 -10.514400
H -10.986200 -10.368700 -10.706100
C -10.891700 -13.621400 -10.178000
C -10.793700 -11.204000 -10.229200
C -10.285500 -13.611500 -8.886900
C -10.210000 -11.149200 -9.003900
N -10.065700 -14.782900 -8.261800
H -9.962000 -10.303500 -8.589500
C -9.934300 -12.355700 -8.288700
C -9.491500 -14.713800 -7.049600
H -9.463800 -16.766000 -6.748900
N -9.360000 -12.286600 -7.076600
C -9.215800 -15.920300 -6.334400
C -9.140300 -13.457900 -6.451400
C -8.632100 -15.865500 -5.109100
C -8.534100 -13.448100 -5.160300
H -8.439600 -16.700800 -4.632200
H -8.317500 -12.591600 -4.823900
C -8.298700 -14.624000 -4.511200
H -7.874800 -14.623800 -3.627500
N -8.374500 -20.799900 -11.337600
C -7.967400 -20.918700 -10.276400
N -7.644600 -17.606900 -9.125000
C -7.437400 -21.085600 -8.947500
C -7.419700 -18.641400 -8.696400
H -7.401300 -23.139400 -9.025800
C -7.200300 -22.365400 -8.454100
C -7.151000 -19.952500 -8.163400
C -6.669600 -22.506500 -7.174900
C -6.620400 -20.093600 -6.884200
H -6.419300 -19.319600 -6.312500
C -6.400900 -23.817600 -6.642000
C -6.383200 -21.373400 -6.390800
N -6.176000 -24.852100 -6.213300
C -5.853200 -21.540200 -5.062000
N -5.446100 -21.659100 -4.000700
