22
Fragment
H -25.835800 -15.031800 -30.851700
H -25.643800 -13.481200 -32.612600
C -25.485600 -14.165400 -30.680900
C -25.376500 -13.236200 -31.734500
H -25.171700 -14.462800 -28.703000
C -25.088600 -13.828400 -29.405200
C -24.884200 -11.976800 -31.493800
H -24.824200 -11.346800 -32.202300
C -24.559900 -12.549200 -29.133500
C -24.468300 -11.619500 -30.196000
H -24.444900 -13.760100 -26.685600
C -24.073000 -12.110800 -27.855400
C -24.068900 -12.887700 -26.679700
N -23.974200 -10.330600 -30.037500
C -23.537000 -10.801900 -27.798100
N -23.525500 -9.941200 -28.889500
C -23.520000 -12.382900 -25.522900
H -23.517700 -12.915400 -24.736100
C -22.982200 -10.305800 -26.605800
C -22.964400 -11.096600 -25.485700
H -22.621400 -9.427500 -26.576100
H -22.574700 -10.771900 -24.682600
16
Fragment
N -25.982900 -18.466100 -22.155900
C -25.501800 -17.594100 -21.584000
N -25.374500 -15.006900 -24.040500
C -25.079100 -15.126900 -22.936500
C -24.917600 -16.482000 -20.875800
C -24.712300 -15.264700 -21.552100
H -24.708000 -17.436600 -19.084300
C -24.578100 -16.610800 -19.535800
C -24.174000 -14.172400 -20.876300
C -24.045900 -15.517500 -18.862600
H -24.029800 -13.350800 -21.331100
C -23.850200 -14.295300 -19.532500
C -23.680600 -15.630300 -17.475100
N -23.374300 -15.705300 -16.370800
C -23.294300 -13.170800 -18.821900
N -22.841900 -12.296300 -18.233000
38
Fragment
H -25.835800 -15.031800 -30.851700
H -25.643800 -13.481200 -32.612600
C -25.485600 -14.165400 -30.680900
C -25.376500 -13.236200 -31.734500
H -25.171700 -14.462800 -28.703000
C -25.088600 -13.828400 -29.405200
C -24.884200 -11.976800 -31.493800
H -24.824200 -11.346800 -32.202300
C -24.559900 -12.549200 -29.133500
C -24.468300 -11.619500 -30.196000
H -24.444900 -13.760100 -26.685600
C -24.073000 -12.110800 -27.855400
C -24.068900 -12.887700 -26.679700
N -23.974200 -10.330600 -30.037500
C -23.537000 -10.801900 -27.798100
N -23.525500 -9.941200 -28.889500
C -23.520000 -12.382900 -25.522900
H -23.517700 -12.915400 -24.736100
C -22.982200 -10.305800 -26.605800
C -22.964400 -11.096600 -25.485700
H -22.621400 -9.427500 -26.576100
H -22.574700 -10.771900 -24.682600
N -25.982900 -18.466100 -22.155900
C -25.501800 -17.594100 -21.584000
N -25.374500 -15.006900 -24.040500
C -25.079100 -15.126900 -22.936500
C -24.917600 -16.482000 -20.875800
C -24.712300 -15.264700 -21.552100
H -24.708000 -17.436600 -19.084300
C -24.578100 -16.610800 -19.535800
C -24.174000 -14.172400 -20.876300
C -24.045900 -15.517500 -18.862600
H -24.029800 -13.350800 -21.331100
C -23.850200 -14.295300 -19.532500
C -23.680600 -15.630300 -17.475100
N -23.374300 -15.705300 -16.370800
C -23.294300 -13.170800 -18.821900
N -22.841900 -12.296300 -18.233000
