22
Fragment
H -25.835800 -15.031800 -30.851700
H -25.643800 -13.481200 -32.612600
C -25.485600 -14.165400 -30.680900
C -25.376500 -13.236200 -31.734500
H -25.171700 -14.462800 -28.703000
C -25.088600 -13.828400 -29.405200
C -24.884200 -11.976800 -31.493800
H -24.824200 -11.346800 -32.202300
C -24.559900 -12.549200 -29.133500
C -24.468300 -11.619500 -30.196000
H -24.444900 -13.760100 -26.685600
C -24.073000 -12.110800 -27.855400
C -24.068900 -12.887700 -26.679700
N -23.974200 -10.330600 -30.037500
C -23.537000 -10.801900 -27.798100
N -23.525500 -9.941200 -28.889500
C -23.520000 -12.382900 -25.522900
H -23.517700 -12.915400 -24.736100
C -22.982200 -10.305800 -26.605800
C -22.964400 -11.096600 -25.485700
H -22.621400 -9.427500 -26.576100
H -22.574700 -10.771900 -24.682600
16
Fragment
N -22.378500 -11.680700 -22.155900
C -21.897400 -10.808700 -21.584000
N -21.770100 -8.221500 -24.040500
C -21.474700 -8.341500 -22.936500
C -21.313200 -9.696600 -20.875800
C -21.107900 -8.479300 -21.552100
H -21.103600 -10.651200 -19.084300
C -20.973700 -9.825400 -19.535800
C -20.569600 -7.387000 -20.876300
C -20.441500 -8.732100 -18.862600
H -20.425500 -6.565400 -21.331100
C -20.245800 -7.509900 -19.532500
C -20.076300 -8.844900 -17.475100
N -19.769900 -8.919900 -16.370800
C -19.689900 -6.385400 -18.821900
N -19.237500 -5.510900 -18.233000
38
Fragment
H -25.835800 -15.031800 -30.851700
H -25.643800 -13.481200 -32.612600
C -25.485600 -14.165400 -30.680900
C -25.376500 -13.236200 -31.734500
H -25.171700 -14.462800 -28.703000
C -25.088600 -13.828400 -29.405200
C -24.884200 -11.976800 -31.493800
H -24.824200 -11.346800 -32.202300
C -24.559900 -12.549200 -29.133500
C -24.468300 -11.619500 -30.196000
H -24.444900 -13.760100 -26.685600
C -24.073000 -12.110800 -27.855400
C -24.068900 -12.887700 -26.679700
N -23.974200 -10.330600 -30.037500
C -23.537000 -10.801900 -27.798100
N -23.525500 -9.941200 -28.889500
C -23.520000 -12.382900 -25.522900
H -23.517700 -12.915400 -24.736100
C -22.982200 -10.305800 -26.605800
C -22.964400 -11.096600 -25.485700
H -22.621400 -9.427500 -26.576100
H -22.574700 -10.771900 -24.682600
N -22.378500 -11.680700 -22.155900
C -21.897400 -10.808700 -21.584000
N -21.770100 -8.221500 -24.040500
C -21.474700 -8.341500 -22.936500
C -21.313200 -9.696600 -20.875800
C -21.107900 -8.479300 -21.552100
H -21.103600 -10.651200 -19.084300
C -20.973700 -9.825400 -19.535800
C -20.569600 -7.387000 -20.876300
C -20.441500 -8.732100 -18.862600
H -20.425500 -6.565400 -21.331100
C -20.245800 -7.509900 -19.532500
C -20.076300 -8.844900 -17.475100
N -19.769900 -8.919900 -16.370800
C -19.689900 -6.385400 -18.821900
N -19.237500 -5.510900 -18.233000
