22
Fragment
H -11.551000 -12.445700 -11.710800
C -11.127100 -12.445500 -10.827200
H -11.108300 -14.477900 -10.514400
H -10.986200 -10.368700 -10.706100
C -10.891700 -13.621400 -10.178000
C -10.793700 -11.204000 -10.229200
C -10.285500 -13.611500 -8.886900
C -10.210000 -11.149200 -9.003900
N -10.065700 -14.782900 -8.261800
H -9.962000 -10.303500 -8.589500
C -9.934300 -12.355700 -8.288700
C -9.491500 -14.713800 -7.049600
H -9.463800 -16.766000 -6.748900
N -9.360000 -12.286600 -7.076600
C -9.215800 -15.920300 -6.334400
C -9.140300 -13.457900 -6.451400
C -8.632100 -15.865500 -5.109100
C -8.534100 -13.448100 -5.160300
H -8.439600 -16.700800 -4.632200
H -8.317500 -12.591600 -4.823900
C -8.298700 -14.624000 -4.511200
H -7.874800 -14.623800 -3.627500
16
Fragment
N -15.911600 -15.097800 -19.006800
C -15.504500 -15.216600 -17.945500
N -15.181700 -11.904800 -16.794200
C -14.974600 -15.383500 -16.616700
C -14.956800 -12.939300 -16.365500
H -14.938500 -17.437300 -16.695000
C -14.737400 -16.663300 -16.123300
C -14.688100 -14.250400 -15.832600
C -14.206700 -16.804400 -14.844000
C -14.157500 -14.391500 -14.553400
H -13.956400 -13.617500 -13.981600
C -13.938000 -18.115500 -14.311100
C -13.920300 -15.671300 -14.059900
N -13.713100 -19.150000 -13.882500
C -13.390300 -15.838100 -12.731100
N -12.983300 -15.957000 -11.669800
38
Fragment
H -11.551000 -12.445700 -11.710800
C -11.127100 -12.445500 -10.827200
H -11.108300 -14.477900 -10.514400
H -10.986200 -10.368700 -10.706100
C -10.891700 -13.621400 -10.178000
C -10.793700 -11.204000 -10.229200
C -10.285500 -13.611500 -8.886900
C -10.210000 -11.149200 -9.003900
N -10.065700 -14.782900 -8.261800
H -9.962000 -10.303500 -8.589500
C -9.934300 -12.355700 -8.288700
C -9.491500 -14.713800 -7.049600
H -9.463800 -16.766000 -6.748900
N -9.360000 -12.286600 -7.076600
C -9.215800 -15.920300 -6.334400
C -9.140300 -13.457900 -6.451400
C -8.632100 -15.865500 -5.109100
C -8.534100 -13.448100 -5.160300
H -8.439600 -16.700800 -4.632200
H -8.317500 -12.591600 -4.823900
C -8.298700 -14.624000 -4.511200
H -7.874800 -14.623800 -3.627500
N -15.911600 -15.097800 -19.006800
C -15.504500 -15.216600 -17.945500
N -15.181700 -11.904800 -16.794200
C -14.974600 -15.383500 -16.616700
C -14.956800 -12.939300 -16.365500
H -14.938500 -17.437300 -16.695000
C -14.737400 -16.663300 -16.123300
C -14.688100 -14.250400 -15.832600
C -14.206700 -16.804400 -14.844000
C -14.157500 -14.391500 -14.553400
H -13.956400 -13.617500 -13.981600
C -13.938000 -18.115500 -14.311100
C -13.920300 -15.671300 -14.059900
N -13.713100 -19.150000 -13.882500
C -13.390300 -15.838100 -12.731100
N -12.983300 -15.957000 -11.669800
