22
Fragment
H -25.835800 -15.031800 -30.851700
H -25.643800 -13.481200 -32.612600
C -25.485600 -14.165400 -30.680900
C -25.376500 -13.236200 -31.734500
H -25.171700 -14.462800 -28.703000
C -25.088600 -13.828400 -29.405200
C -24.884200 -11.976800 -31.493800
H -24.824200 -11.346800 -32.202300
C -24.559900 -12.549200 -29.133500
C -24.468300 -11.619500 -30.196000
H -24.444900 -13.760100 -26.685600
C -24.073000 -12.110800 -27.855400
C -24.068900 -12.887700 -26.679700
N -23.974200 -10.330600 -30.037500
C -23.537000 -10.801900 -27.798100
N -23.525500 -9.941200 -28.889500
C -23.520000 -12.382900 -25.522900
H -23.517700 -12.915400 -24.736100
C -22.982200 -10.305800 -26.605800
C -22.964400 -11.096600 -25.485700
H -22.621400 -9.427500 -26.576100
H -22.574700 -10.771900 -24.682600
16
Fragment
N -25.555700 -12.051100 -39.111000
C -25.074600 -11.179100 -38.539100
N -24.947300 -8.591900 -40.995600
C -24.651900 -8.712000 -39.891600
C -24.490400 -10.067100 -37.830900
C -24.285100 -8.849700 -38.507300
H -24.280800 -11.021600 -36.039400
C -24.150900 -10.195900 -36.491000
C -23.746800 -7.757400 -37.831400
C -23.618700 -9.102600 -35.817700
H -23.602700 -6.935800 -38.286200
C -23.423000 -7.880400 -36.487600
C -23.253400 -9.215300 -34.430200
N -22.947100 -9.290400 -33.325900
C -22.867100 -6.755900 -35.777000
N -22.414700 -5.881300 -35.188100
38
Fragment
H -25.835800 -15.031800 -30.851700
H -25.643800 -13.481200 -32.612600
C -25.485600 -14.165400 -30.680900
C -25.376500 -13.236200 -31.734500
H -25.171700 -14.462800 -28.703000
C -25.088600 -13.828400 -29.405200
C -24.884200 -11.976800 -31.493800
H -24.824200 -11.346800 -32.202300
C -24.559900 -12.549200 -29.133500
C -24.468300 -11.619500 -30.196000
H -24.444900 -13.760100 -26.685600
C -24.073000 -12.110800 -27.855400
C -24.068900 -12.887700 -26.679700
N -23.974200 -10.330600 -30.037500
C -23.537000 -10.801900 -27.798100
N -23.525500 -9.941200 -28.889500
C -23.520000 -12.382900 -25.522900
H -23.517700 -12.915400 -24.736100
C -22.982200 -10.305800 -26.605800
C -22.964400 -11.096600 -25.485700
H -22.621400 -9.427500 -26.576100
H -22.574700 -10.771900 -24.682600
N -25.555700 -12.051100 -39.111000
C -25.074600 -11.179100 -38.539100
N -24.947300 -8.591900 -40.995600
C -24.651900 -8.712000 -39.891600
C -24.490400 -10.067100 -37.830900
C -24.285100 -8.849700 -38.507300
H -24.280800 -11.021600 -36.039400
C -24.150900 -10.195900 -36.491000
C -23.746800 -7.757400 -37.831400
C -23.618700 -9.102600 -35.817700
H -23.602700 -6.935800 -38.286200
C -23.423000 -7.880400 -36.487600
C -23.253400 -9.215300 -34.430200
N -22.947100 -9.290400 -33.325900
C -22.867100 -6.755900 -35.777000
N -22.414700 -5.881300 -35.188100
