17
Fragment
H -9.882700 -5.252700 -13.615100
C -9.051400 -5.026200 -13.963800
H -8.970200 -6.516300 -15.316200
H -8.720300 -3.414700 -12.765700
C -8.504400 -5.782700 -14.985100
C -8.364900 -3.926100 -13.456500
O -7.338600 -7.299600 -16.971200
C -7.263400 -5.452800 -15.520000
C -7.142000 -3.620400 -14.011800
O -6.901800 -1.800000 -12.595500
H -6.779900 -7.835000 -17.553900
C -6.630900 -6.249300 -16.603000
C -6.562500 -4.358400 -15.028800
N -6.399000 -2.460400 -13.491600
H -5.729100 -4.129800 -15.372700
O -5.567800 -5.945400 -17.109200
O -5.310400 -2.198800 -13.999300
12
Fragment
O -6.294800 -8.712700 -18.911600
H -5.339700 -9.888000 -20.790900
C -5.266700 -8.465600 -19.544100
H -4.856100 -6.886300 -18.618400
N -4.846400 -9.277700 -20.567000
N -4.467100 -7.400600 -19.273700
C -3.709600 -9.121700 -21.328900
O -3.416600 -9.907100 -22.222400
C -3.320000 -7.134000 -19.971900
C -2.936400 -7.954500 -20.968000
H -2.807200 -6.387900 -19.759000
F -1.823500 -7.720900 -21.657900
29
Fragment
H -9.882700 -5.252700 -13.615100
C -9.051400 -5.026200 -13.963800
H -8.970200 -6.516300 -15.316200
H -8.720300 -3.414700 -12.765700
C -8.504400 -5.782700 -14.985100
C -8.364900 -3.926100 -13.456500
O -7.338600 -7.299600 -16.971200
C -7.263400 -5.452800 -15.520000
C -7.142000 -3.620400 -14.011800
O -6.901800 -1.800000 -12.595500
H -6.779900 -7.835000 -17.553900
C -6.630900 -6.249300 -16.603000
C -6.562500 -4.358400 -15.028800
N -6.399000 -2.460400 -13.491600
H -5.729100 -4.129800 -15.372700
O -5.567800 -5.945400 -17.109200
O -5.310400 -2.198800 -13.999300
O -6.294800 -8.712700 -18.911600
H -5.339700 -9.888000 -20.790900
C -5.266700 -8.465600 -19.544100
H -4.856100 -6.886300 -18.618400
N -4.846400 -9.277700 -20.567000
N -4.467100 -7.400600 -19.273700
C -3.709600 -9.121700 -21.328900
O -3.416600 -9.907100 -22.222400
C -3.320000 -7.134000 -19.971900
C -2.936400 -7.954500 -20.968000
H -2.807200 -6.387900 -19.759000
F -1.823500 -7.720900 -21.657900
