17
Fragment
H -9.882700 -5.252700 -13.615100
C -9.051400 -5.026200 -13.963800
H -8.970200 -6.516300 -15.316200
H -8.720300 -3.414700 -12.765700
C -8.504400 -5.782700 -14.985100
C -8.364900 -3.926100 -13.456500
O -7.338600 -7.299600 -16.971200
C -7.263400 -5.452800 -15.520000
C -7.142000 -3.620400 -14.011800
O -6.901800 -1.800000 -12.595500
H -6.779900 -7.835000 -17.553900
C -6.630900 -6.249300 -16.603000
C -6.562500 -4.358400 -15.028800
N -6.399000 -2.460400 -13.491600
H -5.729100 -4.129800 -15.372700
O -5.567800 -5.945400 -17.109200
O -5.310400 -2.198800 -13.999300
12
Fragment
O -14.202500 -3.314400 -8.049000
H -13.247500 -4.489700 -9.928400
C -13.174400 -3.067300 -8.681600
H -12.763800 -1.488100 -7.755900
N -12.754100 -3.879500 -9.704400
N -12.374900 -2.002300 -8.411100
C -11.617300 -3.723400 -10.466300
O -11.324400 -4.508900 -11.359800
C -11.227700 -1.735800 -9.109300
C -10.844200 -2.556300 -10.105400
H -10.714900 -0.989600 -8.896400
F -9.731300 -2.322600 -10.795300
29
Fragment
H -9.882700 -5.252700 -13.615100
C -9.051400 -5.026200 -13.963800
H -8.970200 -6.516300 -15.316200
H -8.720300 -3.414700 -12.765700
C -8.504400 -5.782700 -14.985100
C -8.364900 -3.926100 -13.456500
O -7.338600 -7.299600 -16.971200
C -7.263400 -5.452800 -15.520000
C -7.142000 -3.620400 -14.011800
O -6.901800 -1.800000 -12.595500
H -6.779900 -7.835000 -17.553900
C -6.630900 -6.249300 -16.603000
C -6.562500 -4.358400 -15.028800
N -6.399000 -2.460400 -13.491600
H -5.729100 -4.129800 -15.372700
O -5.567800 -5.945400 -17.109200
O -5.310400 -2.198800 -13.999300
O -14.202500 -3.314400 -8.049000
H -13.247500 -4.489700 -9.928400
C -13.174400 -3.067300 -8.681600
H -12.763800 -1.488100 -7.755900
N -12.754100 -3.879500 -9.704400
N -12.374900 -2.002300 -8.411100
C -11.617300 -3.723400 -10.466300
O -11.324400 -4.508900 -11.359800
C -11.227700 -1.735800 -9.109300
C -10.844200 -2.556300 -10.105400
H -10.714900 -0.989600 -8.896400
F -9.731300 -2.322600 -10.795300
