17
Fragment
H -9.882700 -5.252700 -13.615100
C -9.051400 -5.026200 -13.963800
H -8.970200 -6.516300 -15.316200
H -8.720300 -3.414700 -12.765700
C -8.504400 -5.782700 -14.985100
C -8.364900 -3.926100 -13.456500
O -7.338600 -7.299600 -16.971200
C -7.263400 -5.452800 -15.520000
C -7.142000 -3.620400 -14.011800
O -6.901800 -1.800000 -12.595500
H -6.779900 -7.835000 -17.553900
C -6.630900 -6.249300 -16.603000
C -6.562500 -4.358400 -15.028800
N -6.399000 -2.460400 -13.491600
H -5.729100 -4.129800 -15.372700
O -5.567800 -5.945400 -17.109200
O -5.310400 -2.198800 -13.999300
12
Fragment
F -9.859800 -8.473900 -10.929800
H -8.876200 -9.806800 -12.828700
C -8.746900 -8.240200 -11.619700
C -8.363400 -9.060700 -12.615800
O -8.266700 -6.287600 -10.365300
C -7.973800 -7.073100 -11.258800
N -7.216200 -8.794100 -13.314000
N -6.837000 -6.917000 -12.020700
H -6.827300 -9.308400 -13.969300
C -6.416700 -7.729200 -13.043500
H -6.343600 -6.306800 -11.796700
O -5.388600 -7.482100 -13.676100
29
Fragment
H -9.882700 -5.252700 -13.615100
C -9.051400 -5.026200 -13.963800
H -8.970200 -6.516300 -15.316200
H -8.720300 -3.414700 -12.765700
C -8.504400 -5.782700 -14.985100
C -8.364900 -3.926100 -13.456500
O -7.338600 -7.299600 -16.971200
C -7.263400 -5.452800 -15.520000
C -7.142000 -3.620400 -14.011800
O -6.901800 -1.800000 -12.595500
H -6.779900 -7.835000 -17.553900
C -6.630900 -6.249300 -16.603000
C -6.562500 -4.358400 -15.028800
N -6.399000 -2.460400 -13.491600
H -5.729100 -4.129800 -15.372700
O -5.567800 -5.945400 -17.109200
O -5.310400 -2.198800 -13.999300
F -9.859800 -8.473900 -10.929800
H -8.876200 -9.806800 -12.828700
C -8.746900 -8.240200 -11.619700
C -8.363400 -9.060700 -12.615800
O -8.266700 -6.287600 -10.365300
C -7.973800 -7.073100 -11.258800
N -7.216200 -8.794100 -13.314000
N -6.837000 -6.917000 -12.020700
H -6.827300 -9.308400 -13.969300
C -6.416700 -7.729200 -13.043500
H -6.343600 -6.306800 -11.796700
O -5.388600 -7.482100 -13.676100
