12
Fragment
H -12.995000 -10.449600 -18.806700
H -12.958400 -12.736600 -18.765100
C -12.622200 -10.908700 -18.088800
C -12.590700 -12.243200 -18.067600
C -12.072800 -10.214700 -16.987300
C -11.986700 -12.895100 -16.965200
Cl -11.953800 -14.621000 -16.910800
N -11.932800 -8.914400 -16.665600
N -11.522000 -10.972800 -16.010000
N -11.433800 -12.307300 -15.936400
N -11.304300 -8.955600 -15.484500
N -11.023700 -10.173500 -15.057800
12
Fragment
H -12.995000 -19.223600 -18.806700
H -12.958400 -21.510600 -18.765100
C -12.622200 -19.682700 -18.088800
C -12.590700 -21.017200 -18.067600
C -12.072800 -18.988700 -16.987300
C -11.986700 -21.669100 -16.965200
Cl -11.953800 -23.395000 -16.910800
N -11.932800 -17.688400 -16.665600
N -11.522000 -19.746800 -16.010000
N -11.433800 -21.081300 -15.936400
N -11.304300 -17.729600 -15.484500
N -11.023700 -18.947500 -15.057800
24
Fragment
H -12.995000 -10.449600 -18.806700
H -12.958400 -12.736600 -18.765100
C -12.622200 -10.908700 -18.088800
C -12.590700 -12.243200 -18.067600
C -12.072800 -10.214700 -16.987300
C -11.986700 -12.895100 -16.965200
Cl -11.953800 -14.621000 -16.910800
N -11.932800 -8.914400 -16.665600
N -11.522000 -10.972800 -16.010000
N -11.433800 -12.307300 -15.936400
N -11.304300 -8.955600 -15.484500
N -11.023700 -10.173500 -15.057800
H -12.995000 -19.223600 -18.806700
H -12.958400 -21.510600 -18.765100
C -12.622200 -19.682700 -18.088800
C -12.590700 -21.017200 -18.067600
C -12.072800 -18.988700 -16.987300
C -11.986700 -21.669100 -16.965200
Cl -11.953800 -23.395000 -16.910800
N -11.932800 -17.688400 -16.665600
N -11.522000 -19.746800 -16.010000
N -11.433800 -21.081300 -15.936400
N -11.304300 -17.729600 -15.484500
N -11.023700 -18.947500 -15.057800
