12
Fragment
H -12.995000 -10.449600 -18.806700
H -12.958400 -12.736600 -18.765100
C -12.622200 -10.908700 -18.088800
C -12.590700 -12.243200 -18.067600
C -12.072800 -10.214700 -16.987300
C -11.986700 -12.895100 -16.965200
Cl -11.953800 -14.621000 -16.910800
N -11.932800 -8.914400 -16.665600
N -11.522000 -10.972800 -16.010000
N -11.433800 -12.307300 -15.936400
N -11.304300 -8.955600 -15.484500
N -11.023700 -10.173500 -15.057800
12
Fragment
N -13.471800 -16.148500 -20.101000
N -13.191100 -17.366400 -20.527600
N -13.061700 -14.014700 -20.979500
N -12.973500 -15.349200 -21.053100
N -12.562700 -17.407600 -21.708700
Cl -12.541700 -11.701000 -21.953900
C -12.508800 -13.426900 -22.008300
C -12.422700 -16.107300 -22.030500
C -11.904800 -14.078800 -23.110700
C -11.873300 -15.413300 -23.131900
H -11.537000 -13.585400 -23.808200
H -11.500500 -15.872400 -23.849900
24
Fragment
H -12.995000 -10.449600 -18.806700
H -12.958400 -12.736600 -18.765100
C -12.622200 -10.908700 -18.088800
C -12.590700 -12.243200 -18.067600
C -12.072800 -10.214700 -16.987300
C -11.986700 -12.895100 -16.965200
Cl -11.953800 -14.621000 -16.910800
N -11.932800 -8.914400 -16.665600
N -11.522000 -10.972800 -16.010000
N -11.433800 -12.307300 -15.936400
N -11.304300 -8.955600 -15.484500
N -11.023700 -10.173500 -15.057800
N -13.471800 -16.148500 -20.101000
N -13.191100 -17.366400 -20.527600
N -13.061700 -14.014700 -20.979500
N -12.973500 -15.349200 -21.053100
N -12.562700 -17.407600 -21.708700
Cl -12.541700 -11.701000 -21.953900
C -12.508800 -13.426900 -22.008300
C -12.422700 -16.107300 -22.030500
C -11.904800 -14.078800 -23.110700
C -11.873300 -15.413300 -23.131900
H -11.537000 -13.585400 -23.808200
H -11.500500 -15.872400 -23.849900
