12
Fragment
H -12.995000 -10.449600 -18.806700
H -12.958400 -12.736600 -18.765100
C -12.622200 -10.908700 -18.088800
C -12.590700 -12.243200 -18.067600
C -12.072800 -10.214700 -16.987300
C -11.986700 -12.895100 -16.965200
Cl -11.953800 -14.621000 -16.910800
N -11.932800 -8.914400 -16.665600
N -11.522000 -10.972800 -16.010000
N -11.433800 -12.307300 -15.936400
N -11.304300 -8.955600 -15.484500
N -11.023700 -10.173500 -15.057800
12
Fragment
N -13.471800 -16.148500 -10.014700
N -13.191100 -17.366400 -10.441300
N -13.061700 -14.014700 -10.893200
N -12.973500 -15.349200 -10.966800
N -12.562700 -17.407600 -11.622400
Cl -12.541700 -11.701000 -11.867600
C -12.508800 -13.426900 -11.922000
C -12.422700 -16.107300 -11.944200
C -11.904800 -14.078800 -13.024400
C -11.873300 -15.413300 -13.045600
H -11.537000 -13.585400 -13.721900
H -11.500500 -15.872400 -13.763600
24
Fragment
H -12.995000 -10.449600 -18.806700
H -12.958400 -12.736600 -18.765100
C -12.622200 -10.908700 -18.088800
C -12.590700 -12.243200 -18.067600
C -12.072800 -10.214700 -16.987300
C -11.986700 -12.895100 -16.965200
Cl -11.953800 -14.621000 -16.910800
N -11.932800 -8.914400 -16.665600
N -11.522000 -10.972800 -16.010000
N -11.433800 -12.307300 -15.936400
N -11.304300 -8.955600 -15.484500
N -11.023700 -10.173500 -15.057800
N -13.471800 -16.148500 -10.014700
N -13.191100 -17.366400 -10.441300
N -13.061700 -14.014700 -10.893200
N -12.973500 -15.349200 -10.966800
N -12.562700 -17.407600 -11.622400
Cl -12.541700 -11.701000 -11.867600
C -12.508800 -13.426900 -11.922000
C -12.422700 -16.107300 -11.944200
C -11.904800 -14.078800 -13.024400
C -11.873300 -15.413300 -13.045600
H -11.537000 -13.585400 -13.721900
H -11.500500 -15.872400 -13.763600
