12
Fragment
H -12.995000 -10.449600 -18.806700
H -12.958400 -12.736600 -18.765100
C -12.622200 -10.908700 -18.088800
C -12.590700 -12.243200 -18.067600
C -12.072800 -10.214700 -16.987300
C -11.986700 -12.895100 -16.965200
Cl -11.953800 -14.621000 -16.910800
N -11.932800 -8.914400 -16.665600
N -11.522000 -10.972800 -16.010000
N -11.433800 -12.307300 -15.936400
N -11.304300 -8.955600 -15.484500
N -11.023700 -10.173500 -15.057800
12
Fragment
N -9.972400 -5.786500 -20.244200
N -9.691800 -4.568600 -19.817600
N -9.562300 -7.920300 -19.365700
N -9.474100 -6.585800 -19.292100
N -9.063300 -4.527400 -18.636500
Cl -9.042300 -10.234000 -18.391300
C -9.009400 -8.508100 -18.336900
C -8.923300 -5.827700 -18.314700
C -8.405400 -7.856200 -17.234500
C -8.373900 -6.521700 -17.213300
H -8.037700 -8.349600 -16.537000
H -8.001100 -6.062600 -16.495300
24
Fragment
H -12.995000 -10.449600 -18.806700
H -12.958400 -12.736600 -18.765100
C -12.622200 -10.908700 -18.088800
C -12.590700 -12.243200 -18.067600
C -12.072800 -10.214700 -16.987300
C -11.986700 -12.895100 -16.965200
Cl -11.953800 -14.621000 -16.910800
N -11.932800 -8.914400 -16.665600
N -11.522000 -10.972800 -16.010000
N -11.433800 -12.307300 -15.936400
N -11.304300 -8.955600 -15.484500
N -11.023700 -10.173500 -15.057800
N -9.972400 -5.786500 -20.244200
N -9.691800 -4.568600 -19.817600
N -9.562300 -7.920300 -19.365700
N -9.474100 -6.585800 -19.292100
N -9.063300 -4.527400 -18.636500
Cl -9.042300 -10.234000 -18.391300
C -9.009400 -8.508100 -18.336900
C -8.923300 -5.827700 -18.314700
C -8.405400 -7.856200 -17.234500
C -8.373900 -6.521700 -17.213300
H -8.037700 -8.349600 -16.537000
H -8.001100 -6.062600 -16.495300
