12
Fragment
H -12.995000 -10.449600 -18.806700
H -12.958400 -12.736600 -18.765100
C -12.622200 -10.908700 -18.088800
C -12.590700 -12.243200 -18.067600
C -12.072800 -10.214700 -16.987300
C -11.986700 -12.895100 -16.965200
Cl -11.953800 -14.621000 -16.910800
N -11.932800 -8.914400 -16.665600
N -11.522000 -10.972800 -16.010000
N -11.433800 -12.307300 -15.936400
N -11.304300 -8.955600 -15.484500
N -11.023700 -10.173500 -15.057800
12
Fragment
H -16.494300 -11.485400 -11.452200
H -16.457800 -9.198400 -11.493800
C -16.121500 -11.026300 -12.170100
C -16.090000 -9.691800 -12.191300
C -15.572100 -11.720300 -13.271600
C -15.486000 -9.039900 -13.293700
Cl -15.453100 -7.314000 -13.348100
N -15.432100 -13.020600 -13.593300
N -15.021300 -10.962200 -14.248900
N -14.933100 -9.627700 -14.322500
N -14.803700 -12.979400 -14.774400
N -14.523000 -11.761500 -15.201100
24
Fragment
H -12.995000 -10.449600 -18.806700
H -12.958400 -12.736600 -18.765100
C -12.622200 -10.908700 -18.088800
C -12.590700 -12.243200 -18.067600
C -12.072800 -10.214700 -16.987300
C -11.986700 -12.895100 -16.965200
Cl -11.953800 -14.621000 -16.910800
N -11.932800 -8.914400 -16.665600
N -11.522000 -10.972800 -16.010000
N -11.433800 -12.307300 -15.936400
N -11.304300 -8.955600 -15.484500
N -11.023700 -10.173500 -15.057800
H -16.494300 -11.485400 -11.452200
H -16.457800 -9.198400 -11.493800
C -16.121500 -11.026300 -12.170100
C -16.090000 -9.691800 -12.191300
C -15.572100 -11.720300 -13.271600
C -15.486000 -9.039900 -13.293700
Cl -15.453100 -7.314000 -13.348100
N -15.432100 -13.020600 -13.593300
N -15.021300 -10.962200 -14.248900
N -14.933100 -9.627700 -14.322500
N -14.803700 -12.979400 -14.774400
N -14.523000 -11.761500 -15.201100
