17
Fragment
H -2.301600 -9.653300 -20.069600
H -2.144700 -10.449600 -18.821000
N -2.061400 -10.378500 -19.673800
H -1.656600 -10.601200 -22.258200
C -1.537000 -11.437200 -20.414800
C -1.386700 -11.360600 -21.794100
O -1.273100 -12.620200 -18.423700
O -1.096800 -11.331700 -24.477500
C -1.088300 -12.603300 -19.758700
H -0.980800 -13.322000 -18.115400
C -0.833700 -12.423200 -22.459700
N -0.654600 -12.335300 -23.906200
C -0.541400 -13.651400 -20.460700
C -0.404500 -13.583300 -21.836500
H -0.261500 -14.413600 -20.006000
O -0.096300 -13.239400 -24.511600
H -0.039200 -14.287600 -22.321800
17
Fragment
H -6.115200 -9.653300 -20.069600
H -5.958300 -10.449600 -18.821000
N -5.875000 -10.378500 -19.673800
H -5.470200 -10.601200 -22.258200
C -5.350600 -11.437200 -20.414800
C -5.200300 -11.360600 -21.794100
O -5.086700 -12.620200 -18.423700
O -4.910400 -11.331700 -24.477500
C -4.901900 -12.603300 -19.758700
H -4.794400 -13.322000 -18.115400
C -4.647300 -12.423200 -22.459700
N -4.468200 -12.335300 -23.906200
C -4.355000 -13.651400 -20.460700
C -4.218100 -13.583300 -21.836500
H -4.075100 -14.413600 -20.006000
O -3.909900 -13.239400 -24.511600
H -3.852800 -14.287600 -22.321800
34
Fragment
H -2.301600 -9.653300 -20.069600
H -2.144700 -10.449600 -18.821000
N -2.061400 -10.378500 -19.673800
H -1.656600 -10.601200 -22.258200
C -1.537000 -11.437200 -20.414800
C -1.386700 -11.360600 -21.794100
O -1.273100 -12.620200 -18.423700
O -1.096800 -11.331700 -24.477500
C -1.088300 -12.603300 -19.758700
H -0.980800 -13.322000 -18.115400
C -0.833700 -12.423200 -22.459700
N -0.654600 -12.335300 -23.906200
C -0.541400 -13.651400 -20.460700
C -0.404500 -13.583300 -21.836500
H -0.261500 -14.413600 -20.006000
O -0.096300 -13.239400 -24.511600
H -0.039200 -14.287600 -22.321800
H -6.115200 -9.653300 -20.069600
H -5.958300 -10.449600 -18.821000
N -5.875000 -10.378500 -19.673800
H -5.470200 -10.601200 -22.258200
C -5.350600 -11.437200 -20.414800
C -5.200300 -11.360600 -21.794100
O -5.086700 -12.620200 -18.423700
O -4.910400 -11.331700 -24.477500
C -4.901900 -12.603300 -19.758700
H -4.794400 -13.322000 -18.115400
C -4.647300 -12.423200 -22.459700
N -4.468200 -12.335300 -23.906200
C -4.355000 -13.651400 -20.460700
C -4.218100 -13.583300 -21.836500
H -4.075100 -14.413600 -20.006000
O -3.909900 -13.239400 -24.511600
H -3.852800 -14.287600 -22.321800
