17
Fragment
H -2.301600 -9.653300 -20.069600
H -2.144700 -10.449600 -18.821000
N -2.061400 -10.378500 -19.673800
H -1.656600 -10.601200 -22.258200
C -1.537000 -11.437200 -20.414800
C -1.386700 -11.360600 -21.794100
O -1.273100 -12.620200 -18.423700
O -1.096800 -11.331700 -24.477500
C -1.088300 -12.603300 -19.758700
H -0.980800 -13.322000 -18.115400
C -0.833700 -12.423200 -22.459700
N -0.654600 -12.335300 -23.906200
C -0.541400 -13.651400 -20.460700
C -0.404500 -13.583300 -21.836500
H -0.261500 -14.413600 -20.006000
O -0.096300 -13.239400 -24.511600
H -0.039200 -14.287600 -22.321800
17
Fragment
H -4.652200 -8.087700 -13.016200
O -4.595100 -9.135900 -10.826400
H -4.429900 -7.961800 -15.332000
C -4.287000 -8.792000 -13.501500
C -4.150000 -8.723900 -14.877300
N -4.036900 -10.040000 -11.431800
C -3.857800 -9.952100 -12.878300
H -3.710600 -9.053400 -17.222600
C -3.603100 -9.772000 -15.579300
O -3.594700 -11.043600 -10.860500
O -3.418300 -9.755200 -16.914300
C -3.304700 -11.014800 -13.543900
C -3.154500 -10.938100 -14.923200
H -3.034800 -11.774200 -13.079800
N -2.630000 -11.996900 -15.664200
H -2.546700 -11.925800 -16.517000
H -2.389800 -12.722100 -15.268400
34
Fragment
H -2.301600 -9.653300 -20.069600
H -2.144700 -10.449600 -18.821000
N -2.061400 -10.378500 -19.673800
H -1.656600 -10.601200 -22.258200
C -1.537000 -11.437200 -20.414800
C -1.386700 -11.360600 -21.794100
O -1.273100 -12.620200 -18.423700
O -1.096800 -11.331700 -24.477500
C -1.088300 -12.603300 -19.758700
H -0.980800 -13.322000 -18.115400
C -0.833700 -12.423200 -22.459700
N -0.654600 -12.335300 -23.906200
C -0.541400 -13.651400 -20.460700
C -0.404500 -13.583300 -21.836500
H -0.261500 -14.413600 -20.006000
O -0.096300 -13.239400 -24.511600
H -0.039200 -14.287600 -22.321800
H -4.652200 -8.087700 -13.016200
O -4.595100 -9.135900 -10.826400
H -4.429900 -7.961800 -15.332000
C -4.287000 -8.792000 -13.501500
C -4.150000 -8.723900 -14.877300
N -4.036900 -10.040000 -11.431800
C -3.857800 -9.952100 -12.878300
H -3.710600 -9.053400 -17.222600
C -3.603100 -9.772000 -15.579300
O -3.594700 -11.043600 -10.860500
O -3.418300 -9.755200 -16.914300
C -3.304700 -11.014800 -13.543900
C -3.154500 -10.938100 -14.923200
H -3.034800 -11.774200 -13.079800
N -2.630000 -11.996900 -15.664200
H -2.546700 -11.925800 -16.517000
H -2.389800 -12.722100 -15.268400
