17
Fragment
H -2.301600 -9.653300 -20.069600
H -2.144700 -10.449600 -18.821000
N -2.061400 -10.378500 -19.673800
H -1.656600 -10.601200 -22.258200
C -1.537000 -11.437200 -20.414800
C -1.386700 -11.360600 -21.794100
O -1.273100 -12.620200 -18.423700
O -1.096800 -11.331700 -24.477500
C -1.088300 -12.603300 -19.758700
H -0.980800 -13.322000 -18.115400
C -0.833700 -12.423200 -22.459700
N -0.654600 -12.335300 -23.906200
C -0.541400 -13.651400 -20.460700
C -0.404500 -13.583300 -21.836500
H -0.261500 -14.413600 -20.006000
O -0.096300 -13.239400 -24.511600
H -0.039200 -14.287600 -22.321800
8
Fragment
H -0.626300 -8.679900 -19.742200
N -0.311800 -7.918400 -19.987200
H -0.307800 -7.702600 -20.818800
C 0.168400 -7.073600 -19.077800
O 0.174500 -7.360300 -17.862500
H 0.713700 -5.704800 -20.322900
N 0.714500 -5.909700 -19.487700
H 1.063200 -5.372200 -18.914100
25
Fragment
H -2.301600 -9.653300 -20.069600
H -2.144700 -10.449600 -18.821000
N -2.061400 -10.378500 -19.673800
H -1.656600 -10.601200 -22.258200
C -1.537000 -11.437200 -20.414800
C -1.386700 -11.360600 -21.794100
O -1.273100 -12.620200 -18.423700
O -1.096800 -11.331700 -24.477500
C -1.088300 -12.603300 -19.758700
H -0.980800 -13.322000 -18.115400
C -0.833700 -12.423200 -22.459700
N -0.654600 -12.335300 -23.906200
C -0.541400 -13.651400 -20.460700
C -0.404500 -13.583300 -21.836500
H -0.261500 -14.413600 -20.006000
O -0.096300 -13.239400 -24.511600
H -0.039200 -14.287600 -22.321800
H -0.626300 -8.679900 -19.742200
N -0.311800 -7.918400 -19.987200
H -0.307800 -7.702600 -20.818800
C 0.168400 -7.073600 -19.077800
O 0.174500 -7.360300 -17.862500
H 0.713700 -5.704800 -20.322900
N 0.714500 -5.909700 -19.487700
H 1.063200 -5.372200 -18.914100
