17
Fragment
H -2.301600 -9.653300 -20.069600
H -2.144700 -10.449600 -18.821000
N -2.061400 -10.378500 -19.673800
H -1.656600 -10.601200 -22.258200
C -1.537000 -11.437200 -20.414800
C -1.386700 -11.360600 -21.794100
O -1.273100 -12.620200 -18.423700
O -1.096800 -11.331700 -24.477500
C -1.088300 -12.603300 -19.758700
H -0.980800 -13.322000 -18.115400
C -0.833700 -12.423200 -22.459700
N -0.654600 -12.335300 -23.906200
C -0.541400 -13.651400 -20.460700
C -0.404500 -13.583300 -21.836500
H -0.261500 -14.413600 -20.006000
O -0.096300 -13.239400 -24.511600
H -0.039200 -14.287600 -22.321800
17
Fragment
H -3.092500 -4.787300 -24.795500
O -3.035400 -5.835500 -22.605700
H -2.870200 -4.661300 -27.111300
C -2.727300 -5.491600 -25.280800
C -2.590300 -5.423500 -26.656600
N -2.477200 -6.739600 -23.211200
C -2.298100 -6.651700 -24.657700
H -2.150900 -5.753000 -29.001900
C -2.043400 -6.471600 -27.358700
O -2.035000 -7.743200 -22.639900
O -1.858600 -6.454700 -28.693600
C -1.745000 -7.714300 -25.323200
C -1.594800 -7.637700 -26.702600
H -1.475100 -8.473800 -24.859100
N -1.070300 -8.696400 -27.443500
H -0.987000 -8.625300 -28.296300
H -0.830100 -9.421700 -27.047700
34
Fragment
H -2.301600 -9.653300 -20.069600
H -2.144700 -10.449600 -18.821000
N -2.061400 -10.378500 -19.673800
H -1.656600 -10.601200 -22.258200
C -1.537000 -11.437200 -20.414800
C -1.386700 -11.360600 -21.794100
O -1.273100 -12.620200 -18.423700
O -1.096800 -11.331700 -24.477500
C -1.088300 -12.603300 -19.758700
H -0.980800 -13.322000 -18.115400
C -0.833700 -12.423200 -22.459700
N -0.654600 -12.335300 -23.906200
C -0.541400 -13.651400 -20.460700
C -0.404500 -13.583300 -21.836500
H -0.261500 -14.413600 -20.006000
O -0.096300 -13.239400 -24.511600
H -0.039200 -14.287600 -22.321800
H -3.092500 -4.787300 -24.795500
O -3.035400 -5.835500 -22.605700
H -2.870200 -4.661300 -27.111300
C -2.727300 -5.491600 -25.280800
C -2.590300 -5.423500 -26.656600
N -2.477200 -6.739600 -23.211200
C -2.298100 -6.651700 -24.657700
H -2.150900 -5.753000 -29.001900
C -2.043400 -6.471600 -27.358700
O -2.035000 -7.743200 -22.639900
O -1.858600 -6.454700 -28.693600
C -1.745000 -7.714300 -25.323200
C -1.594800 -7.637700 -26.702600
H -1.475100 -8.473800 -24.859100
N -1.070300 -8.696400 -27.443500
H -0.987000 -8.625300 -28.296300
H -0.830100 -9.421700 -27.047700
