3
Fragment
H -13.971700 -23.111300 -22.636700
O -12.996900 -22.816700 -22.653100
H -12.700600 -21.914400 -23.450600
43
Fragment
H -19.171300 -33.092200 -24.623900
H -18.769700 -33.049000 -26.903100
H -18.735400 -32.290100 -22.333100
C -18.366100 -32.390400 -24.445000
C -18.123000 -31.947700 -23.153600
H -18.004800 -31.609900 -27.574300
C -17.866700 -32.455200 -26.909700
H -17.807300 -26.353400 -24.244800
H -17.754900 -35.188300 -27.421700
C -17.607800 -31.943100 -25.513300
H -17.459900 -28.525100 -25.319600
C -17.092800 -31.062400 -22.923900
H -17.063000 -27.195600 -26.409200
H -16.895000 -30.718400 -21.922900
C -16.819600 -34.677800 -27.633400
C -16.808200 -26.751400 -24.349900
C -16.777900 -27.704600 -25.505100
C -16.709800 -33.305000 -27.410200
C -16.579500 -31.031500 -25.260600
H -16.537300 -27.277300 -23.444100
C -16.296300 -30.605800 -23.974100
N -15.864600 -25.645500 -24.561500
H -15.821600 -24.994600 -23.631100
H -15.816700 -36.467000 -28.288100
N -15.789300 -30.528700 -26.366600
C -15.726800 -35.398100 -28.127300
C -15.486500 -32.685000 -27.659600
H -15.474700 -29.933400 -23.783700
N -15.392600 -28.232100 -25.636300
C -15.276800 -31.270600 -27.426600
C -15.230200 -29.268600 -26.520800
H -14.662500 -26.618700 -26.767000
C -14.527600 -34.767200 -28.406200
N -14.495000 -30.507100 -28.147000
C -14.492000 -26.197700 -24.681300
N -14.465800 -29.234600 -27.585800
C -14.425100 -27.144700 -25.854600
C -14.397700 -33.420700 -28.170000
H -14.247800 -26.728200 -23.773900
H -13.796200 -25.389400 -24.829000
H -13.698800 -35.331800 -28.800100
H -13.465000 -32.921000 -28.376700
H -13.426800 -27.556500 -25.930100
46
Fragment
H -13.971700 -23.111300 -22.636700
O -12.996900 -22.816700 -22.653100
H -12.700600 -21.914400 -23.450600
H -19.171300 -33.092200 -24.623900
H -18.769700 -33.049000 -26.903100
H -18.735400 -32.290100 -22.333100
C -18.366100 -32.390400 -24.445000
C -18.123000 -31.947700 -23.153600
H -18.004800 -31.609900 -27.574300
C -17.866700 -32.455200 -26.909700
H -17.807300 -26.353400 -24.244800
H -17.754900 -35.188300 -27.421700
C -17.607800 -31.943100 -25.513300
H -17.459900 -28.525100 -25.319600
C -17.092800 -31.062400 -22.923900
H -17.063000 -27.195600 -26.409200
H -16.895000 -30.718400 -21.922900
C -16.819600 -34.677800 -27.633400
C -16.808200 -26.751400 -24.349900
C -16.777900 -27.704600 -25.505100
C -16.709800 -33.305000 -27.410200
C -16.579500 -31.031500 -25.260600
H -16.537300 -27.277300 -23.444100
C -16.296300 -30.605800 -23.974100
N -15.864600 -25.645500 -24.561500
H -15.821600 -24.994600 -23.631100
H -15.816700 -36.467000 -28.288100
N -15.789300 -30.528700 -26.366600
C -15.726800 -35.398100 -28.127300
C -15.486500 -32.685000 -27.659600
H -15.474700 -29.933400 -23.783700
N -15.392600 -28.232100 -25.636300
C -15.276800 -31.270600 -27.426600
C -15.230200 -29.268600 -26.520800
H -14.662500 -26.618700 -26.767000
C -14.527600 -34.767200 -28.406200
N -14.495000 -30.507100 -28.147000
C -14.492000 -26.197700 -24.681300
N -14.465800 -29.234600 -27.585800
C -14.425100 -27.144700 -25.854600
C -14.397700 -33.420700 -28.170000
H -14.247800 -26.728200 -23.773900
H -13.796200 -25.389400 -24.829000
H -13.698800 -35.331800 -28.800100
H -13.465000 -32.921000 -28.376700
H -13.426800 -27.556500 -25.930100
