3
Fragment
H -13.971700 -23.111300 -22.636700
O -12.996900 -22.816700 -22.653100
H -12.700600 -21.914400 -23.450600
43
Fragment
H -15.367800 -18.715500 -23.298000
H -15.329500 -13.351000 -20.851400
H -15.095800 -10.940200 -20.428000
H -14.998400 -20.882600 -24.399100
H -14.546700 -19.543800 -25.454200
C -14.396900 -12.851300 -21.058100
C -14.369500 -19.127300 -23.373500
N -14.328800 -17.037400 -21.642300
C -14.302600 -20.074300 -24.546800
N -14.299600 -15.764900 -21.081100
C -14.267000 -11.504800 -20.821800
H -14.132100 -19.653300 -22.461100
C -13.564400 -17.003400 -22.707300
C -13.517800 -15.001400 -21.801500
N -13.402000 -18.039900 -23.591700
H -13.319900 -16.338600 -25.444400
C -13.308100 -13.587000 -21.568500
C -13.067800 -10.873900 -21.100800
N -13.005300 -15.743300 -22.861500
H -12.977900 -9.805000 -20.940000
H -12.973000 -21.277400 -25.597000
N -12.930000 -20.626500 -24.666600
C -12.498300 -15.666200 -25.254000
H -12.257300 -18.994700 -25.784000
C -12.215100 -15.240500 -23.967500
C -12.084700 -12.967000 -21.817900
C -12.016700 -18.567400 -23.723000
C -11.986300 -19.520600 -24.878200
C -11.975000 -11.594200 -21.594700
H -11.899600 -15.553600 -27.305200
H -11.731500 -19.076400 -22.818900
C -11.701800 -15.209600 -26.304200
H -11.334600 -17.746900 -23.908400
C -11.186800 -14.328900 -23.714800
H -11.039600 -11.083700 -21.806400
H -10.987200 -19.918600 -24.983300
C -10.927900 -13.816800 -22.318400
H -10.789800 -14.662100 -21.653800
C -10.671600 -14.324300 -26.074500
C -10.428500 -13.881600 -24.783100
H -10.059100 -13.981900 -26.894900
H -10.024900 -13.223000 -22.324900
H -9.623300 -13.179800 -24.604200
46
Fragment
H -13.971700 -23.111300 -22.636700
O -12.996900 -22.816700 -22.653100
H -12.700600 -21.914400 -23.450600
H -15.367800 -18.715500 -23.298000
H -15.329500 -13.351000 -20.851400
H -15.095800 -10.940200 -20.428000
H -14.998400 -20.882600 -24.399100
H -14.546700 -19.543800 -25.454200
C -14.396900 -12.851300 -21.058100
C -14.369500 -19.127300 -23.373500
N -14.328800 -17.037400 -21.642300
C -14.302600 -20.074300 -24.546800
N -14.299600 -15.764900 -21.081100
C -14.267000 -11.504800 -20.821800
H -14.132100 -19.653300 -22.461100
C -13.564400 -17.003400 -22.707300
C -13.517800 -15.001400 -21.801500
N -13.402000 -18.039900 -23.591700
H -13.319900 -16.338600 -25.444400
C -13.308100 -13.587000 -21.568500
C -13.067800 -10.873900 -21.100800
N -13.005300 -15.743300 -22.861500
H -12.977900 -9.805000 -20.940000
H -12.973000 -21.277400 -25.597000
N -12.930000 -20.626500 -24.666600
C -12.498300 -15.666200 -25.254000
H -12.257300 -18.994700 -25.784000
C -12.215100 -15.240500 -23.967500
C -12.084700 -12.967000 -21.817900
C -12.016700 -18.567400 -23.723000
C -11.986300 -19.520600 -24.878200
C -11.975000 -11.594200 -21.594700
H -11.899600 -15.553600 -27.305200
H -11.731500 -19.076400 -22.818900
C -11.701800 -15.209600 -26.304200
H -11.334600 -17.746900 -23.908400
C -11.186800 -14.328900 -23.714800
H -11.039600 -11.083700 -21.806400
H -10.987200 -19.918600 -24.983300
C -10.927900 -13.816800 -22.318400
H -10.789800 -14.662100 -21.653800
C -10.671600 -14.324300 -26.074500
C -10.428500 -13.881600 -24.783100
H -10.059100 -13.981900 -26.894900
H -10.024900 -13.223000 -22.324900
H -9.623300 -13.179800 -24.604200
