3
Fragment
H -13.971700 -23.111300 -22.636700
O -12.996900 -22.816700 -22.653100
H -12.700600 -21.914400 -23.450600
3
Fragment
H -11.760100 -23.575600 -21.665300
O -11.057500 -24.022900 -21.122100
H -10.275900 -23.378200 -21.066300
6
Fragment
H -13.971700 -23.111300 -22.636700
O -12.996900 -22.816700 -22.653100
H -12.700600 -21.914400 -23.450600
H -11.760100 -23.575600 -21.665300
O -11.057500 -24.022900 -21.122100
H -10.275900 -23.378200 -21.066300
