3
Fragment
H -13.971700 -23.111300 -22.636700
O -12.996900 -22.816700 -22.653100
H -12.700600 -21.914400 -23.450600
43
Fragment
H -13.310700 -20.358100 -19.707600
H -12.990000 -17.961200 -19.363000
C -12.366100 -19.900000 -19.960300
C -12.183800 -18.562800 -19.755200
H -11.484600 -21.749400 -20.638100
C -11.338900 -20.691300 -20.478900
C -10.968200 -17.961200 -20.060400
H -10.827000 -16.901600 -19.899600
C -10.107300 -20.086700 -20.792300
C -9.922000 -18.724700 -20.577300
C -9.031800 -20.928800 -21.320700
N -8.800100 -22.164300 -20.969500
H -8.670700 -16.014700 -22.748300
H -8.611400 -17.034300 -20.602000
C -8.598100 -18.063000 -20.931800
C -8.491900 -16.974100 -23.214300
H -8.434400 -16.155100 -25.196600
C -8.396200 -18.109300 -22.423400
C -8.366600 -17.055900 -24.602600
C -8.172100 -19.321600 -23.069900
C -8.150600 -18.274400 -25.196600
N -8.098200 -20.520100 -22.264200
H -8.061100 -18.325300 -26.269700
C -8.051600 -19.421900 -24.445000
H -7.876200 -20.376600 -24.919300
H -7.795200 -18.590500 -20.444400
N -7.674800 -22.616200 -21.680000
C -7.290200 -21.622900 -22.433200
H -6.526100 -23.697400 -23.737800
N -6.245000 -21.658400 -23.342300
C -5.707500 -23.006400 -23.557300
H -5.610700 -19.687200 -23.005900
H -5.358500 -22.670200 -25.649500
C -5.175500 -20.663500 -23.130600
H -5.158300 -23.324200 -22.689200
H -4.840300 -20.385900 -25.217900
C -4.798600 -22.969400 -24.779800
H -4.608000 -20.928800 -22.252700
H -4.371300 -23.948800 -24.948800
C -4.273800 -20.668200 -24.346600
N -3.708900 -22.003900 -24.550000
H -3.468400 -19.960200 -24.195600
H -2.992200 -22.144200 -25.414800
46
Fragment
H -13.971700 -23.111300 -22.636700
O -12.996900 -22.816700 -22.653100
H -12.700600 -21.914400 -23.450600
H -13.310700 -20.358100 -19.707600
H -12.990000 -17.961200 -19.363000
C -12.366100 -19.900000 -19.960300
C -12.183800 -18.562800 -19.755200
H -11.484600 -21.749400 -20.638100
C -11.338900 -20.691300 -20.478900
C -10.968200 -17.961200 -20.060400
H -10.827000 -16.901600 -19.899600
C -10.107300 -20.086700 -20.792300
C -9.922000 -18.724700 -20.577300
C -9.031800 -20.928800 -21.320700
N -8.800100 -22.164300 -20.969500
H -8.670700 -16.014700 -22.748300
H -8.611400 -17.034300 -20.602000
C -8.598100 -18.063000 -20.931800
C -8.491900 -16.974100 -23.214300
H -8.434400 -16.155100 -25.196600
C -8.396200 -18.109300 -22.423400
C -8.366600 -17.055900 -24.602600
C -8.172100 -19.321600 -23.069900
C -8.150600 -18.274400 -25.196600
N -8.098200 -20.520100 -22.264200
H -8.061100 -18.325300 -26.269700
C -8.051600 -19.421900 -24.445000
H -7.876200 -20.376600 -24.919300
H -7.795200 -18.590500 -20.444400
N -7.674800 -22.616200 -21.680000
C -7.290200 -21.622900 -22.433200
H -6.526100 -23.697400 -23.737800
N -6.245000 -21.658400 -23.342300
C -5.707500 -23.006400 -23.557300
H -5.610700 -19.687200 -23.005900
H -5.358500 -22.670200 -25.649500
C -5.175500 -20.663500 -23.130600
H -5.158300 -23.324200 -22.689200
H -4.840300 -20.385900 -25.217900
C -4.798600 -22.969400 -24.779800
H -4.608000 -20.928800 -22.252700
H -4.371300 -23.948800 -24.948800
C -4.273800 -20.668200 -24.346600
N -3.708900 -22.003900 -24.550000
H -3.468400 -19.960200 -24.195600
H -2.992200 -22.144200 -25.414800
