16
Fragment
N -22.963000 -23.744100 -17.314500
N -22.743100 -27.004700 -14.959100
C -22.061700 -23.922200 -16.635700
C -21.884000 -26.253400 -14.996300
C -20.905800 -24.138800 -15.815100
C -20.809700 -25.299600 -15.029000
H -19.954700 -22.417500 -16.348400
C -19.881100 -23.204700 -15.822500
C -19.672100 -25.524500 -14.259200
H -19.598500 -26.311700 -13.733300
C -18.743500 -23.429600 -15.052700
C -18.647400 -24.590400 -14.266700
C -17.669300 -22.475800 -15.085400
C -17.491500 -24.807000 -13.446000
N -16.810100 -21.724400 -15.122600
N -16.590200 -24.985100 -12.767200
44
Fragment
H -19.919200 -15.814800 -18.734900
H -19.517600 -17.628800 -17.420300
H -19.172000 -13.578600 -19.637300
C -19.101200 -15.869200 -18.254100
C -18.863200 -16.941900 -17.474500
C -18.358100 -13.666600 -19.155700
C -18.139200 -14.803400 -18.373300
H -18.030200 -18.880300 -15.847000
N -17.748700 -9.484900 -18.078500
C -17.654300 -17.071400 -16.728900
H -17.571900 -11.899400 -19.777700
C -17.399300 -12.661700 -19.238200
C -17.386500 -18.185900 -15.918200
C -16.919000 -14.909800 -17.658000
C -16.697000 -9.879600 -18.330800
C -16.678900 -16.042600 -16.832300
C -16.201800 -18.284200 -15.223400
C -16.198600 -12.747400 -18.551300
H -16.036300 -19.045200 -14.679900
C -15.934800 -13.884900 -17.759600
C -15.469100 -16.155000 -16.109400
H -15.445900 -7.842200 -19.364600
C -15.361400 -10.374000 -18.580000
C -15.256600 -17.288100 -15.308600
C -15.161600 -11.703400 -18.655500
C -14.729000 -14.029800 -16.997200
C -14.572700 -8.062300 -19.062800
C -14.508500 -15.107100 -16.218100
H -14.447200 -17.368800 -14.817200
C -14.292300 -9.343200 -18.623100
H -14.268200 -11.996800 -18.788000
H -14.068700 -13.349100 -17.042300
H -13.752600 -6.211100 -19.371600
H -13.695400 -15.170700 -15.731700
C -13.559300 -7.087600 -19.059800
C -12.999900 -9.649100 -18.209000
H -12.793300 -10.530900 -17.921700
C -12.278300 -7.389700 -18.608000
C -12.019600 -8.685100 -18.211500
H -11.594000 -5.472200 -18.874300
C -11.218700 -6.318800 -18.553400
H -11.141800 -8.917800 -17.933700
H -10.911400 -6.210600 -17.628900
H -10.463400 -6.577500 -19.120900
60
Fragment
N -22.963000 -23.744100 -17.314500
N -22.743100 -27.004700 -14.959100
C -22.061700 -23.922200 -16.635700
C -21.884000 -26.253400 -14.996300
C -20.905800 -24.138800 -15.815100
C -20.809700 -25.299600 -15.029000
H -19.954700 -22.417500 -16.348400
C -19.881100 -23.204700 -15.822500
C -19.672100 -25.524500 -14.259200
H -19.598500 -26.311700 -13.733300
C -18.743500 -23.429600 -15.052700
C -18.647400 -24.590400 -14.266700
C -17.669300 -22.475800 -15.085400
C -17.491500 -24.807000 -13.446000
N -16.810100 -21.724400 -15.122600
N -16.590200 -24.985100 -12.767200
H -19.919200 -15.814800 -18.734900
H -19.517600 -17.628800 -17.420300
H -19.172000 -13.578600 -19.637300
C -19.101200 -15.869200 -18.254100
C -18.863200 -16.941900 -17.474500
C -18.358100 -13.666600 -19.155700
C -18.139200 -14.803400 -18.373300
H -18.030200 -18.880300 -15.847000
N -17.748700 -9.484900 -18.078500
C -17.654300 -17.071400 -16.728900
H -17.571900 -11.899400 -19.777700
C -17.399300 -12.661700 -19.238200
C -17.386500 -18.185900 -15.918200
C -16.919000 -14.909800 -17.658000
C -16.697000 -9.879600 -18.330800
C -16.678900 -16.042600 -16.832300
C -16.201800 -18.284200 -15.223400
C -16.198600 -12.747400 -18.551300
H -16.036300 -19.045200 -14.679900
C -15.934800 -13.884900 -17.759600
C -15.469100 -16.155000 -16.109400
H -15.445900 -7.842200 -19.364600
C -15.361400 -10.374000 -18.580000
C -15.256600 -17.288100 -15.308600
C -15.161600 -11.703400 -18.655500
C -14.729000 -14.029800 -16.997200
C -14.572700 -8.062300 -19.062800
C -14.508500 -15.107100 -16.218100
H -14.447200 -17.368800 -14.817200
C -14.292300 -9.343200 -18.623100
H -14.268200 -11.996800 -18.788000
H -14.068700 -13.349100 -17.042300
H -13.752600 -6.211100 -19.371600
H -13.695400 -15.170700 -15.731700
C -13.559300 -7.087600 -19.059800
C -12.999900 -9.649100 -18.209000
H -12.793300 -10.530900 -17.921700
C -12.278300 -7.389700 -18.608000
C -12.019600 -8.685100 -18.211500
H -11.594000 -5.472200 -18.874300
C -11.218700 -6.318800 -18.553400
H -11.141800 -8.917800 -17.933700
H -10.911400 -6.210600 -17.628900
H -10.463400 -6.577500 -19.120900
