16
Fragment
N -22.963000 -23.744100 -17.314500
N -22.743100 -27.004700 -14.959100
C -22.061700 -23.922200 -16.635700
C -21.884000 -26.253400 -14.996300
C -20.905800 -24.138800 -15.815100
C -20.809700 -25.299600 -15.029000
H -19.954700 -22.417500 -16.348400
C -19.881100 -23.204700 -15.822500
C -19.672100 -25.524500 -14.259200
H -19.598500 -26.311700 -13.733300
C -18.743500 -23.429600 -15.052700
C -18.647400 -24.590400 -14.266700
C -17.669300 -22.475800 -15.085400
C -17.491500 -24.807000 -13.446000
N -16.810100 -21.724400 -15.122600
N -16.590200 -24.985100 -12.767200
44
Fragment
H -32.803200 -37.729400 -18.734900
H -32.401600 -39.543400 -17.420300
H -32.056000 -35.493200 -19.637300
C -31.985200 -37.783800 -18.254100
C -31.747200 -38.856500 -17.474500
C -31.242100 -35.581200 -19.155700
C -31.023200 -36.718000 -18.373300
H -30.914200 -40.794900 -15.847000
N -30.632700 -31.399500 -18.078500
C -30.538300 -38.986000 -16.728900
H -30.455900 -33.814000 -19.777700
C -30.283300 -34.576300 -19.238200
C -30.270500 -40.100500 -15.918200
C -29.802900 -36.824400 -17.658000
C -29.580900 -31.794200 -18.330800
C -29.562900 -37.957200 -16.832300
C -29.085800 -40.198800 -15.223400
C -29.082600 -34.662000 -18.551300
H -28.920300 -40.959800 -14.679900
C -28.818700 -35.799500 -17.759600
C -28.353100 -38.069600 -16.109400
H -28.329800 -29.756800 -19.364600
C -28.245400 -32.288600 -18.580000
C -28.140500 -39.202700 -15.308600
C -28.045600 -33.618000 -18.655500
C -27.613000 -35.944400 -16.997200
C -27.456700 -29.976900 -19.062800
C -27.392500 -37.021700 -16.218100
H -27.331200 -39.283400 -14.817200
C -27.176300 -31.257800 -18.623100
H -27.152200 -33.911400 -18.788000
H -26.952700 -35.263700 -17.042300
H -26.636500 -28.125700 -19.371600
H -26.579400 -37.085300 -15.731700
C -26.443300 -29.002200 -19.059800
C -25.883900 -31.563700 -18.209000
H -25.677300 -32.445500 -17.921700
C -25.162200 -29.304300 -18.608000
C -24.903600 -30.599700 -18.211500
H -24.478000 -27.386800 -18.874300
C -24.102600 -28.233400 -18.553400
H -24.025800 -30.832400 -17.933700
H -23.795400 -28.125200 -17.628900
H -23.347400 -28.492100 -19.120900
60
Fragment
N -22.963000 -23.744100 -17.314500
N -22.743100 -27.004700 -14.959100
C -22.061700 -23.922200 -16.635700
C -21.884000 -26.253400 -14.996300
C -20.905800 -24.138800 -15.815100
C -20.809700 -25.299600 -15.029000
H -19.954700 -22.417500 -16.348400
C -19.881100 -23.204700 -15.822500
C -19.672100 -25.524500 -14.259200
H -19.598500 -26.311700 -13.733300
C -18.743500 -23.429600 -15.052700
C -18.647400 -24.590400 -14.266700
C -17.669300 -22.475800 -15.085400
C -17.491500 -24.807000 -13.446000
N -16.810100 -21.724400 -15.122600
N -16.590200 -24.985100 -12.767200
H -32.803200 -37.729400 -18.734900
H -32.401600 -39.543400 -17.420300
H -32.056000 -35.493200 -19.637300
C -31.985200 -37.783800 -18.254100
C -31.747200 -38.856500 -17.474500
C -31.242100 -35.581200 -19.155700
C -31.023200 -36.718000 -18.373300
H -30.914200 -40.794900 -15.847000
N -30.632700 -31.399500 -18.078500
C -30.538300 -38.986000 -16.728900
H -30.455900 -33.814000 -19.777700
C -30.283300 -34.576300 -19.238200
C -30.270500 -40.100500 -15.918200
C -29.802900 -36.824400 -17.658000
C -29.580900 -31.794200 -18.330800
C -29.562900 -37.957200 -16.832300
C -29.085800 -40.198800 -15.223400
C -29.082600 -34.662000 -18.551300
H -28.920300 -40.959800 -14.679900
C -28.818700 -35.799500 -17.759600
C -28.353100 -38.069600 -16.109400
H -28.329800 -29.756800 -19.364600
C -28.245400 -32.288600 -18.580000
C -28.140500 -39.202700 -15.308600
C -28.045600 -33.618000 -18.655500
C -27.613000 -35.944400 -16.997200
C -27.456700 -29.976900 -19.062800
C -27.392500 -37.021700 -16.218100
H -27.331200 -39.283400 -14.817200
C -27.176300 -31.257800 -18.623100
H -27.152200 -33.911400 -18.788000
H -26.952700 -35.263700 -17.042300
H -26.636500 -28.125700 -19.371600
H -26.579400 -37.085300 -15.731700
C -26.443300 -29.002200 -19.059800
C -25.883900 -31.563700 -18.209000
H -25.677300 -32.445500 -17.921700
C -25.162200 -29.304300 -18.608000
C -24.903600 -30.599700 -18.211500
H -24.478000 -27.386800 -18.874300
C -24.102600 -28.233400 -18.553400
H -24.025800 -30.832400 -17.933700
H -23.795400 -28.125200 -17.628900
H -23.347400 -28.492100 -19.120900
