16
Fragment
N -22.963000 -23.744100 -17.314500
N -22.743100 -27.004700 -14.959100
C -22.061700 -23.922200 -16.635700
C -21.884000 -26.253400 -14.996300
C -20.905800 -24.138800 -15.815100
C -20.809700 -25.299600 -15.029000
H -19.954700 -22.417500 -16.348400
C -19.881100 -23.204700 -15.822500
C -19.672100 -25.524500 -14.259200
H -19.598500 -26.311700 -13.733300
C -18.743500 -23.429600 -15.052700
C -18.647400 -24.590400 -14.266700
C -17.669300 -22.475800 -15.085400
C -17.491500 -24.807000 -13.446000
N -16.810100 -21.724400 -15.122600
N -16.590200 -24.985100 -12.767200
44
Fragment
H -21.385700 -26.772100 -18.734900
H -20.984100 -28.586100 -17.420300
H -20.638500 -24.535900 -19.637300
C -20.567700 -26.826500 -18.254100
C -20.329700 -27.899200 -17.474500
C -19.824600 -24.623900 -19.155700
C -19.605700 -25.760700 -18.373300
H -19.496700 -29.837600 -15.847000
N -19.215200 -20.442200 -18.078500
C -19.120800 -28.028700 -16.728900
H -19.038400 -22.856700 -19.777700
C -18.865800 -23.619000 -19.238200
C -18.853000 -29.143200 -15.918200
C -18.385500 -25.867100 -17.658000
C -18.163400 -20.836900 -18.330800
C -18.145400 -26.999900 -16.832300
C -17.668300 -29.241500 -15.223400
C -17.665100 -23.704700 -18.551300
H -17.502800 -30.002500 -14.679900
C -17.401200 -24.842200 -17.759600
C -16.935600 -27.112300 -16.109400
H -16.912300 -18.799500 -19.364600
C -16.827900 -21.331300 -18.580000
C -16.723100 -28.245400 -15.308600
C -16.628100 -22.660700 -18.655500
C -16.195500 -24.987100 -16.997200
C -16.039200 -19.019600 -19.062800
C -15.975000 -26.064400 -16.218100
H -15.913700 -28.326100 -14.817200
C -15.758800 -20.300500 -18.623100
H -15.734700 -22.954100 -18.788000
H -15.535200 -24.306400 -17.042300
H -15.219100 -17.168400 -19.371600
H -15.161900 -26.128000 -15.731700
C -15.025800 -18.044900 -19.059800
C -14.466400 -20.606400 -18.209000
H -14.259800 -21.488200 -17.921700
C -13.744800 -18.347000 -18.608000
C -13.486100 -19.642400 -18.211500
H -13.060500 -16.429500 -18.874300
C -12.685100 -17.276100 -18.553400
H -12.608300 -19.875100 -17.933700
H -12.377900 -17.167900 -17.628900
H -11.929900 -17.534800 -19.120900
60
Fragment
N -22.963000 -23.744100 -17.314500
N -22.743100 -27.004700 -14.959100
C -22.061700 -23.922200 -16.635700
C -21.884000 -26.253400 -14.996300
C -20.905800 -24.138800 -15.815100
C -20.809700 -25.299600 -15.029000
H -19.954700 -22.417500 -16.348400
C -19.881100 -23.204700 -15.822500
C -19.672100 -25.524500 -14.259200
H -19.598500 -26.311700 -13.733300
C -18.743500 -23.429600 -15.052700
C -18.647400 -24.590400 -14.266700
C -17.669300 -22.475800 -15.085400
C -17.491500 -24.807000 -13.446000
N -16.810100 -21.724400 -15.122600
N -16.590200 -24.985100 -12.767200
H -21.385700 -26.772100 -18.734900
H -20.984100 -28.586100 -17.420300
H -20.638500 -24.535900 -19.637300
C -20.567700 -26.826500 -18.254100
C -20.329700 -27.899200 -17.474500
C -19.824600 -24.623900 -19.155700
C -19.605700 -25.760700 -18.373300
H -19.496700 -29.837600 -15.847000
N -19.215200 -20.442200 -18.078500
C -19.120800 -28.028700 -16.728900
H -19.038400 -22.856700 -19.777700
C -18.865800 -23.619000 -19.238200
C -18.853000 -29.143200 -15.918200
C -18.385500 -25.867100 -17.658000
C -18.163400 -20.836900 -18.330800
C -18.145400 -26.999900 -16.832300
C -17.668300 -29.241500 -15.223400
C -17.665100 -23.704700 -18.551300
H -17.502800 -30.002500 -14.679900
C -17.401200 -24.842200 -17.759600
C -16.935600 -27.112300 -16.109400
H -16.912300 -18.799500 -19.364600
C -16.827900 -21.331300 -18.580000
C -16.723100 -28.245400 -15.308600
C -16.628100 -22.660700 -18.655500
C -16.195500 -24.987100 -16.997200
C -16.039200 -19.019600 -19.062800
C -15.975000 -26.064400 -16.218100
H -15.913700 -28.326100 -14.817200
C -15.758800 -20.300500 -18.623100
H -15.734700 -22.954100 -18.788000
H -15.535200 -24.306400 -17.042300
H -15.219100 -17.168400 -19.371600
H -15.161900 -26.128000 -15.731700
C -15.025800 -18.044900 -19.059800
C -14.466400 -20.606400 -18.209000
H -14.259800 -21.488200 -17.921700
C -13.744800 -18.347000 -18.608000
C -13.486100 -19.642400 -18.211500
H -13.060500 -16.429500 -18.874300
C -12.685100 -17.276100 -18.553400
H -12.608300 -19.875100 -17.933700
H -12.377900 -17.167900 -17.628900
H -11.929900 -17.534800 -19.120900
