16
Fragment
N -22.963000 -23.744100 -17.314500
N -22.743100 -27.004700 -14.959100
C -22.061700 -23.922200 -16.635700
C -21.884000 -26.253400 -14.996300
C -20.905800 -24.138800 -15.815100
C -20.809700 -25.299600 -15.029000
H -19.954700 -22.417500 -16.348400
C -19.881100 -23.204700 -15.822500
C -19.672100 -25.524500 -14.259200
H -19.598500 -26.311700 -13.733300
C -18.743500 -23.429600 -15.052700
C -18.647400 -24.590400 -14.266700
C -17.669300 -22.475800 -15.085400
C -17.491500 -24.807000 -13.446000
N -16.810100 -21.724400 -15.122600
N -16.590200 -24.985100 -12.767200
44
Fragment
H -16.205800 -20.237100 -10.960800
H -15.757800 -20.604000 -12.452800
H -15.527500 -17.896800 -12.148000
C -15.450600 -20.495800 -11.528300
H -15.075300 -21.342300 -11.207400
C -14.649600 -18.129500 -11.870200
C -14.391000 -19.424900 -11.473700
H -13.875900 -16.283700 -12.160000
C -13.669400 -17.165500 -11.872800
C -13.110000 -19.727000 -11.021900
H -12.973900 -11.643900 -14.350000
H -12.916700 -20.603500 -10.710100
H -12.600600 -13.465500 -13.039400
H -12.401100 -14.817800 -11.293700
C -12.377000 -17.471400 -11.458600
H -12.222000 -9.445800 -15.264500
C -12.160800 -11.707400 -13.863700
C -12.096600 -18.752300 -11.018900
C -11.940200 -12.784700 -13.084500
C -11.507700 -15.111200 -11.426200
C -11.412700 -9.526400 -14.773100
C -11.307900 -16.440600 -11.501700
H -11.223400 -18.972400 -10.717100
C -11.200100 -10.659600 -13.972400
C -10.734500 -12.929700 -12.322100
H -10.633000 -7.769400 -15.401800
C -10.470700 -14.067200 -11.530400
C -10.467500 -8.530400 -14.858400
C -9.990300 -10.772000 -13.249400
C -9.972300 -16.934900 -11.750900
C -9.750300 -11.904800 -12.423700
C -9.282700 -8.628700 -14.163500
C -9.269900 -14.152900 -10.843600
H -9.097300 -14.915200 -10.304000
C -9.014900 -9.743200 -13.352800
N -8.920600 -17.329700 -12.003200
H -8.639100 -7.934300 -14.234700
C -8.530100 -12.011200 -11.708400
C -8.311200 -13.148000 -10.926000
C -7.806100 -9.872700 -12.607200
C -7.568000 -10.945400 -11.827600
H -7.497300 -13.236000 -10.444400
H -7.151600 -9.185700 -12.661400
H -6.750000 -10.999800 -11.346800
60
Fragment
N -22.963000 -23.744100 -17.314500
N -22.743100 -27.004700 -14.959100
C -22.061700 -23.922200 -16.635700
C -21.884000 -26.253400 -14.996300
C -20.905800 -24.138800 -15.815100
C -20.809700 -25.299600 -15.029000
H -19.954700 -22.417500 -16.348400
C -19.881100 -23.204700 -15.822500
C -19.672100 -25.524500 -14.259200
H -19.598500 -26.311700 -13.733300
C -18.743500 -23.429600 -15.052700
C -18.647400 -24.590400 -14.266700
C -17.669300 -22.475800 -15.085400
C -17.491500 -24.807000 -13.446000
N -16.810100 -21.724400 -15.122600
N -16.590200 -24.985100 -12.767200
H -16.205800 -20.237100 -10.960800
H -15.757800 -20.604000 -12.452800
H -15.527500 -17.896800 -12.148000
C -15.450600 -20.495800 -11.528300
H -15.075300 -21.342300 -11.207400
C -14.649600 -18.129500 -11.870200
C -14.391000 -19.424900 -11.473700
H -13.875900 -16.283700 -12.160000
C -13.669400 -17.165500 -11.872800
C -13.110000 -19.727000 -11.021900
H -12.973900 -11.643900 -14.350000
H -12.916700 -20.603500 -10.710100
H -12.600600 -13.465500 -13.039400
H -12.401100 -14.817800 -11.293700
C -12.377000 -17.471400 -11.458600
H -12.222000 -9.445800 -15.264500
C -12.160800 -11.707400 -13.863700
C -12.096600 -18.752300 -11.018900
C -11.940200 -12.784700 -13.084500
C -11.507700 -15.111200 -11.426200
C -11.412700 -9.526400 -14.773100
C -11.307900 -16.440600 -11.501700
H -11.223400 -18.972400 -10.717100
C -11.200100 -10.659600 -13.972400
C -10.734500 -12.929700 -12.322100
H -10.633000 -7.769400 -15.401800
C -10.470700 -14.067200 -11.530400
C -10.467500 -8.530400 -14.858400
C -9.990300 -10.772000 -13.249400
C -9.972300 -16.934900 -11.750900
C -9.750300 -11.904800 -12.423700
C -9.282700 -8.628700 -14.163500
C -9.269900 -14.152900 -10.843600
H -9.097300 -14.915200 -10.304000
C -9.014900 -9.743200 -13.352800
N -8.920600 -17.329700 -12.003200
H -8.639100 -7.934300 -14.234700
C -8.530100 -12.011200 -11.708400
C -8.311200 -13.148000 -10.926000
C -7.806100 -9.872700 -12.607200
C -7.568000 -10.945400 -11.827600
H -7.497300 -13.236000 -10.444400
H -7.151600 -9.185700 -12.661400
H -6.750000 -10.999800 -11.346800
