16
Fragment
N -22.963000 -23.744100 -17.314500
N -22.743100 -27.004700 -14.959100
C -22.061700 -23.922200 -16.635700
C -21.884000 -26.253400 -14.996300
C -20.905800 -24.138800 -15.815100
C -20.809700 -25.299600 -15.029000
H -19.954700 -22.417500 -16.348400
C -19.881100 -23.204700 -15.822500
C -19.672100 -25.524500 -14.259200
H -19.598500 -26.311700 -13.733300
C -18.743500 -23.429600 -15.052700
C -18.647400 -24.590400 -14.266700
C -17.669300 -22.475800 -15.085400
C -17.491500 -24.807000 -13.446000
N -16.810100 -21.724400 -15.122600
N -16.590200 -24.985100 -12.767200
44
Fragment
H -21.085300 -32.443600 -8.707700
H -20.683700 -34.257700 -7.393100
H -20.338000 -30.207400 -9.610100
C -20.267300 -32.498100 -8.226800
C -20.029300 -33.570700 -7.447200
C -19.524200 -30.295400 -9.128500
C -19.305200 -31.432200 -8.346100
H -19.196300 -35.509100 -5.819800
N -18.914800 -26.113700 -8.051300
C -18.820400 -33.700300 -6.701700
H -18.738000 -28.528200 -9.750500
C -18.565400 -29.290600 -9.210900
C -18.552600 -34.814700 -5.891000
C -18.085000 -31.538700 -7.630700
C -17.863000 -26.508500 -8.303600
C -17.845000 -32.671400 -6.805100
C -17.367900 -34.913000 -5.196100
C -17.364700 -29.376200 -8.524100
H -17.202300 -35.674000 -4.652600
C -17.100800 -30.513700 -7.732400
C -16.635200 -32.783800 -6.082100
H -16.611900 -24.471000 -9.337400
C -16.527400 -27.002800 -8.552700
C -16.422600 -33.917000 -5.281300
C -16.327600 -28.332200 -8.628200
C -15.895100 -30.658700 -6.969900
C -15.738800 -24.691200 -9.035500
C -15.674500 -31.736000 -6.190800
H -15.613300 -33.997700 -4.790000
C -15.458300 -25.972000 -8.595800
H -15.434300 -28.625600 -8.760800
H -15.234800 -29.977900 -7.015100
H -14.918600 -22.839900 -9.344400
H -14.861500 -31.799600 -5.704500
C -14.725400 -23.716400 -9.032500
C -14.166000 -26.277900 -8.181700
H -13.959400 -27.159800 -7.894400
C -13.444300 -24.018500 -8.580800
C -13.185700 -25.313900 -8.184200
H -12.760100 -22.101100 -8.847000
C -12.384700 -22.947700 -8.526200
H -12.307800 -25.546600 -7.906500
H -12.077500 -22.839400 -7.601600
H -11.629500 -23.206300 -9.093700
60
Fragment
N -22.963000 -23.744100 -17.314500
N -22.743100 -27.004700 -14.959100
C -22.061700 -23.922200 -16.635700
C -21.884000 -26.253400 -14.996300
C -20.905800 -24.138800 -15.815100
C -20.809700 -25.299600 -15.029000
H -19.954700 -22.417500 -16.348400
C -19.881100 -23.204700 -15.822500
C -19.672100 -25.524500 -14.259200
H -19.598500 -26.311700 -13.733300
C -18.743500 -23.429600 -15.052700
C -18.647400 -24.590400 -14.266700
C -17.669300 -22.475800 -15.085400
C -17.491500 -24.807000 -13.446000
N -16.810100 -21.724400 -15.122600
N -16.590200 -24.985100 -12.767200
H -21.085300 -32.443600 -8.707700
H -20.683700 -34.257700 -7.393100
H -20.338000 -30.207400 -9.610100
C -20.267300 -32.498100 -8.226800
C -20.029300 -33.570700 -7.447200
C -19.524200 -30.295400 -9.128500
C -19.305200 -31.432200 -8.346100
H -19.196300 -35.509100 -5.819800
N -18.914800 -26.113700 -8.051300
C -18.820400 -33.700300 -6.701700
H -18.738000 -28.528200 -9.750500
C -18.565400 -29.290600 -9.210900
C -18.552600 -34.814700 -5.891000
C -18.085000 -31.538700 -7.630700
C -17.863000 -26.508500 -8.303600
C -17.845000 -32.671400 -6.805100
C -17.367900 -34.913000 -5.196100
C -17.364700 -29.376200 -8.524100
H -17.202300 -35.674000 -4.652600
C -17.100800 -30.513700 -7.732400
C -16.635200 -32.783800 -6.082100
H -16.611900 -24.471000 -9.337400
C -16.527400 -27.002800 -8.552700
C -16.422600 -33.917000 -5.281300
C -16.327600 -28.332200 -8.628200
C -15.895100 -30.658700 -6.969900
C -15.738800 -24.691200 -9.035500
C -15.674500 -31.736000 -6.190800
H -15.613300 -33.997700 -4.790000
C -15.458300 -25.972000 -8.595800
H -15.434300 -28.625600 -8.760800
H -15.234800 -29.977900 -7.015100
H -14.918600 -22.839900 -9.344400
H -14.861500 -31.799600 -5.704500
C -14.725400 -23.716400 -9.032500
C -14.166000 -26.277900 -8.181700
H -13.959400 -27.159800 -7.894400
C -13.444300 -24.018500 -8.580800
C -13.185700 -25.313900 -8.184200
H -12.760100 -22.101100 -8.847000
C -12.384700 -22.947700 -8.526200
H -12.307800 -25.546600 -7.906500
H -12.077500 -22.839400 -7.601600
H -11.629500 -23.206300 -9.093700
