42
Fragment
H -18.968200 -25.473500 -16.899400
H -18.539400 -25.256200 -15.578300
N -18.277700 -25.447900 -16.380200
H -17.753900 -24.009300 -23.592400
H -17.682000 -24.264800 -20.857500
C -17.421500 -24.505300 -16.828000
N -17.378900 -24.273300 -18.138100
C -17.085400 -23.382700 -23.432100
N -17.076400 -23.660800 -20.946100
H -16.769200 -22.849800 -25.343700
C -16.650500 -23.110300 -22.134500
N -16.642300 -23.900900 -15.885900
C -16.490800 -22.693400 -24.470500
C -16.480500 -23.349800 -18.543000
C -16.363000 -23.074500 -19.925700
C -15.764000 -22.993500 -16.297000
C -15.631700 -22.167200 -21.869500
C -15.619400 -22.647700 -17.664000
C -15.475100 -21.760700 -24.226000
C -15.460600 -22.148900 -20.444900
H -15.090500 -21.309300 -24.942800
C -15.032500 -21.495300 -22.947100
H -14.985400 -20.467700 -15.685900
C -14.913100 -22.430600 -15.211700
C -14.651700 -21.069200 -15.060100
C -14.646000 -21.725800 -18.201800
C -14.610300 -21.429700 -19.547200
H -14.552900 -24.225500 -14.342400
C -14.394800 -23.312000 -14.260300
H -14.348100 -20.883600 -22.801400
H -14.039400 -20.769500 -19.868900
H -14.032100 -21.324300 -17.629800
C -13.902300 -20.593900 -13.989400
H -13.746800 -19.680400 -13.903400
C -13.648900 -22.839400 -13.198400
C -13.383000 -21.473000 -13.045800
H -13.260500 -19.262800 -11.670100
Br -12.937700 -24.070800 -11.945100
O -12.637100 -21.113100 -11.967300
C -12.416800 -19.707700 -11.773700
H -11.956900 -19.348100 -12.536400
H -11.884500 -19.572900 -10.986600
42
Fragment
H -12.963600 -18.880200 -18.347500
H -12.891100 -19.105000 -16.797700
C -12.431300 -18.745400 -17.560300
O -12.210900 -17.340000 -17.366700
Br -11.910400 -14.382400 -17.388900
H -11.587600 -19.190300 -17.664000
C -11.465000 -16.980100 -16.288200
C -11.199200 -15.613700 -16.135700
H -11.101300 -18.772700 -15.430700
C -10.945800 -17.859200 -15.344600
H -10.816000 -17.128800 -11.704300
H -10.808600 -17.683600 -9.465100
H -10.499900 -17.569600 -6.532700
C -10.453300 -15.141200 -15.073800
H -10.295100 -14.227600 -14.991700
C -10.237800 -17.023400 -9.786800
C -10.202100 -16.727300 -11.132300
C -10.196400 -17.383900 -14.274000
C -9.935000 -16.022500 -14.122400
H -9.862700 -17.985400 -13.648200
C -9.815500 -16.957800 -6.387000
H -9.757500 -17.143800 -4.391300
C -9.387500 -16.304300 -8.889200
C -9.372900 -16.692400 -5.108000
C -9.228700 -15.805400 -11.670100
C -9.216300 -16.285900 -7.464500
C -9.084100 -15.459700 -13.037000
C -8.485000 -15.378600 -9.408400
C -8.367500 -15.103300 -10.791000
C -8.357200 -15.759700 -4.863600
N -8.205700 -14.552200 -13.448200
C -8.197600 -15.342900 -7.199600
H -8.078900 -15.603300 -3.990400
N -7.771700 -14.792300 -8.388000
C -7.762600 -15.070400 -5.902000
N -7.469100 -14.179900 -11.195900
C -7.426600 -13.947800 -12.506100
H -7.166000 -14.188300 -8.476600
H -7.094200 -14.443800 -5.741700
N -6.570300 -13.005200 -12.953800
H -6.308700 -13.196900 -13.755700
H -5.879800 -12.979600 -12.434700
84
Fragment
H -18.968200 -25.473500 -16.899400
H -18.539400 -25.256200 -15.578300
N -18.277700 -25.447900 -16.380200
H -17.753900 -24.009300 -23.592400
H -17.682000 -24.264800 -20.857500
C -17.421500 -24.505300 -16.828000
N -17.378900 -24.273300 -18.138100
C -17.085400 -23.382700 -23.432100
N -17.076400 -23.660800 -20.946100
H -16.769200 -22.849800 -25.343700
C -16.650500 -23.110300 -22.134500
N -16.642300 -23.900900 -15.885900
C -16.490800 -22.693400 -24.470500
C -16.480500 -23.349800 -18.543000
C -16.363000 -23.074500 -19.925700
C -15.764000 -22.993500 -16.297000
C -15.631700 -22.167200 -21.869500
C -15.619400 -22.647700 -17.664000
C -15.475100 -21.760700 -24.226000
C -15.460600 -22.148900 -20.444900
H -15.090500 -21.309300 -24.942800
C -15.032500 -21.495300 -22.947100
H -14.985400 -20.467700 -15.685900
C -14.913100 -22.430600 -15.211700
C -14.651700 -21.069200 -15.060100
C -14.646000 -21.725800 -18.201800
C -14.610300 -21.429700 -19.547200
H -14.552900 -24.225500 -14.342400
C -14.394800 -23.312000 -14.260300
H -14.348100 -20.883600 -22.801400
H -14.039400 -20.769500 -19.868900
H -14.032100 -21.324300 -17.629800
C -13.902300 -20.593900 -13.989400
H -13.746800 -19.680400 -13.903400
C -13.648900 -22.839400 -13.198400
C -13.383000 -21.473000 -13.045800
H -13.260500 -19.262800 -11.670100
Br -12.937700 -24.070800 -11.945100
O -12.637100 -21.113100 -11.967300
C -12.416800 -19.707700 -11.773700
H -11.956900 -19.348100 -12.536400
H -11.884500 -19.572900 -10.986600
H -12.963600 -18.880200 -18.347500
H -12.891100 -19.105000 -16.797700
C -12.431300 -18.745400 -17.560300
O -12.210900 -17.340000 -17.366700
Br -11.910400 -14.382400 -17.388900
H -11.587600 -19.190300 -17.664000
C -11.465000 -16.980100 -16.288200
C -11.199200 -15.613700 -16.135700
H -11.101300 -18.772700 -15.430700
C -10.945800 -17.859200 -15.344600
H -10.816000 -17.128800 -11.704300
H -10.808600 -17.683600 -9.465100
H -10.499900 -17.569600 -6.532700
C -10.453300 -15.141200 -15.073800
H -10.295100 -14.227600 -14.991700
C -10.237800 -17.023400 -9.786800
C -10.202100 -16.727300 -11.132300
C -10.196400 -17.383900 -14.274000
C -9.935000 -16.022500 -14.122400
H -9.862700 -17.985400 -13.648200
C -9.815500 -16.957800 -6.387000
H -9.757500 -17.143800 -4.391300
C -9.387500 -16.304300 -8.889200
C -9.372900 -16.692400 -5.108000
C -9.228700 -15.805400 -11.670100
C -9.216300 -16.285900 -7.464500
C -9.084100 -15.459700 -13.037000
C -8.485000 -15.378600 -9.408400
C -8.367500 -15.103300 -10.791000
C -8.357200 -15.759700 -4.863600
N -8.205700 -14.552200 -13.448200
C -8.197600 -15.342900 -7.199600
H -8.078900 -15.603300 -3.990400
N -7.771700 -14.792300 -8.388000
C -7.762600 -15.070400 -5.902000
N -7.469100 -14.179900 -11.195900
C -7.426600 -13.947800 -12.506100
H -7.166000 -14.188300 -8.476600
H -7.094200 -14.443800 -5.741700
N -6.570300 -13.005200 -12.953800
H -6.308700 -13.196900 -13.755700
H -5.879800 -12.979600 -12.434700
