42
Fragment
H -18.968200 -25.473500 -16.899400
H -18.539400 -25.256200 -15.578300
N -18.277700 -25.447900 -16.380200
H -17.753900 -24.009300 -23.592400
H -17.682000 -24.264800 -20.857500
C -17.421500 -24.505300 -16.828000
N -17.378900 -24.273300 -18.138100
C -17.085400 -23.382700 -23.432100
N -17.076400 -23.660800 -20.946100
H -16.769200 -22.849800 -25.343700
C -16.650500 -23.110300 -22.134500
N -16.642300 -23.900900 -15.885900
C -16.490800 -22.693400 -24.470500
C -16.480500 -23.349800 -18.543000
C -16.363000 -23.074500 -19.925700
C -15.764000 -22.993500 -16.297000
C -15.631700 -22.167200 -21.869500
C -15.619400 -22.647700 -17.664000
C -15.475100 -21.760700 -24.226000
C -15.460600 -22.148900 -20.444900
H -15.090500 -21.309300 -24.942800
C -15.032500 -21.495300 -22.947100
H -14.985400 -20.467700 -15.685900
C -14.913100 -22.430600 -15.211700
C -14.651700 -21.069200 -15.060100
C -14.646000 -21.725800 -18.201800
C -14.610300 -21.429700 -19.547200
H -14.552900 -24.225500 -14.342400
C -14.394800 -23.312000 -14.260300
H -14.348100 -20.883600 -22.801400
H -14.039400 -20.769500 -19.868900
H -14.032100 -21.324300 -17.629800
C -13.902300 -20.593900 -13.989400
H -13.746800 -19.680400 -13.903400
C -13.648900 -22.839400 -13.198400
C -13.383000 -21.473000 -13.045800
H -13.260500 -19.262800 -11.670100
Br -12.937700 -24.070800 -11.945100
O -12.637100 -21.113100 -11.967300
C -12.416800 -19.707700 -11.773700
H -11.956900 -19.348100 -12.536400
H -11.884500 -19.572900 -10.986600
42
Fragment
H -24.375800 -29.816100 -37.903500
H -24.303400 -30.040800 -36.353700
C -23.843500 -29.681300 -37.116400
O -23.623200 -28.275800 -36.922800
Br -23.322600 -25.318200 -36.945000
H -22.999800 -30.126200 -37.220000
C -22.877300 -27.915900 -35.844300
C -22.611400 -26.549600 -35.691700
H -22.513500 -29.708600 -34.986700
C -22.358000 -28.795000 -34.900700
H -22.228200 -28.064600 -31.260300
H -22.220900 -28.619400 -29.021200
H -21.912200 -28.505400 -26.088700
C -21.865500 -26.077000 -34.629800
H -21.707400 -25.163400 -34.547700
C -21.650000 -27.959200 -29.342900
C -21.614400 -27.663200 -30.688300
C -21.608700 -28.319800 -33.830000
C -21.347200 -26.958400 -33.678400
H -21.274900 -28.921200 -33.204200
C -21.227800 -27.893700 -25.943000
H -21.169800 -28.079700 -23.947400
C -20.799700 -27.240100 -28.445200
C -20.785200 -27.628300 -24.664100
C -20.640900 -26.741300 -31.226100
C -20.628600 -27.221800 -27.020600
C -20.496300 -26.395500 -32.593100
C -19.897300 -26.314400 -28.964500
C -19.779800 -26.039100 -30.347100
C -19.769500 -26.695600 -24.419600
N -19.618000 -25.488000 -33.004200
C -19.609800 -26.278700 -26.755600
H -19.491100 -26.539100 -23.546500
N -19.183900 -25.728100 -27.944000
C -19.174900 -26.006200 -25.458100
N -18.881400 -25.115700 -30.752000
C -18.838800 -24.883700 -32.062100
H -18.578300 -25.124100 -28.032600
H -18.506400 -25.379700 -25.297700
N -17.982600 -23.941100 -32.509900
H -17.720900 -24.132700 -33.311800
H -17.292100 -23.915500 -31.990800
84
Fragment
H -18.968200 -25.473500 -16.899400
H -18.539400 -25.256200 -15.578300
N -18.277700 -25.447900 -16.380200
H -17.753900 -24.009300 -23.592400
H -17.682000 -24.264800 -20.857500
C -17.421500 -24.505300 -16.828000
N -17.378900 -24.273300 -18.138100
C -17.085400 -23.382700 -23.432100
N -17.076400 -23.660800 -20.946100
H -16.769200 -22.849800 -25.343700
C -16.650500 -23.110300 -22.134500
N -16.642300 -23.900900 -15.885900
C -16.490800 -22.693400 -24.470500
C -16.480500 -23.349800 -18.543000
C -16.363000 -23.074500 -19.925700
C -15.764000 -22.993500 -16.297000
C -15.631700 -22.167200 -21.869500
C -15.619400 -22.647700 -17.664000
C -15.475100 -21.760700 -24.226000
C -15.460600 -22.148900 -20.444900
H -15.090500 -21.309300 -24.942800
C -15.032500 -21.495300 -22.947100
H -14.985400 -20.467700 -15.685900
C -14.913100 -22.430600 -15.211700
C -14.651700 -21.069200 -15.060100
C -14.646000 -21.725800 -18.201800
C -14.610300 -21.429700 -19.547200
H -14.552900 -24.225500 -14.342400
C -14.394800 -23.312000 -14.260300
H -14.348100 -20.883600 -22.801400
H -14.039400 -20.769500 -19.868900
H -14.032100 -21.324300 -17.629800
C -13.902300 -20.593900 -13.989400
H -13.746800 -19.680400 -13.903400
C -13.648900 -22.839400 -13.198400
C -13.383000 -21.473000 -13.045800
H -13.260500 -19.262800 -11.670100
Br -12.937700 -24.070800 -11.945100
O -12.637100 -21.113100 -11.967300
C -12.416800 -19.707700 -11.773700
H -11.956900 -19.348100 -12.536400
H -11.884500 -19.572900 -10.986600
H -24.375800 -29.816100 -37.903500
H -24.303400 -30.040800 -36.353700
C -23.843500 -29.681300 -37.116400
O -23.623200 -28.275800 -36.922800
Br -23.322600 -25.318200 -36.945000
H -22.999800 -30.126200 -37.220000
C -22.877300 -27.915900 -35.844300
C -22.611400 -26.549600 -35.691700
H -22.513500 -29.708600 -34.986700
C -22.358000 -28.795000 -34.900700
H -22.228200 -28.064600 -31.260300
H -22.220900 -28.619400 -29.021200
H -21.912200 -28.505400 -26.088700
C -21.865500 -26.077000 -34.629800
H -21.707400 -25.163400 -34.547700
C -21.650000 -27.959200 -29.342900
C -21.614400 -27.663200 -30.688300
C -21.608700 -28.319800 -33.830000
C -21.347200 -26.958400 -33.678400
H -21.274900 -28.921200 -33.204200
C -21.227800 -27.893700 -25.943000
H -21.169800 -28.079700 -23.947400
C -20.799700 -27.240100 -28.445200
C -20.785200 -27.628300 -24.664100
C -20.640900 -26.741300 -31.226100
C -20.628600 -27.221800 -27.020600
C -20.496300 -26.395500 -32.593100
C -19.897300 -26.314400 -28.964500
C -19.779800 -26.039100 -30.347100
C -19.769500 -26.695600 -24.419600
N -19.618000 -25.488000 -33.004200
C -19.609800 -26.278700 -26.755600
H -19.491100 -26.539100 -23.546500
N -19.183900 -25.728100 -27.944000
C -19.174900 -26.006200 -25.458100
N -18.881400 -25.115700 -30.752000
C -18.838800 -24.883700 -32.062100
H -18.578300 -25.124100 -28.032600
H -18.506400 -25.379700 -25.297700
N -17.982600 -23.941100 -32.509900
H -17.720900 -24.132700 -33.311800
H -17.292100 -23.915500 -31.990800
