42
Fragment
H -18.968200 -25.473500 -16.899400
H -18.539400 -25.256200 -15.578300
N -18.277700 -25.447900 -16.380200
H -17.753900 -24.009300 -23.592400
H -17.682000 -24.264800 -20.857500
C -17.421500 -24.505300 -16.828000
N -17.378900 -24.273300 -18.138100
C -17.085400 -23.382700 -23.432100
N -17.076400 -23.660800 -20.946100
H -16.769200 -22.849800 -25.343700
C -16.650500 -23.110300 -22.134500
N -16.642300 -23.900900 -15.885900
C -16.490800 -22.693400 -24.470500
C -16.480500 -23.349800 -18.543000
C -16.363000 -23.074500 -19.925700
C -15.764000 -22.993500 -16.297000
C -15.631700 -22.167200 -21.869500
C -15.619400 -22.647700 -17.664000
C -15.475100 -21.760700 -24.226000
C -15.460600 -22.148900 -20.444900
H -15.090500 -21.309300 -24.942800
C -15.032500 -21.495300 -22.947100
H -14.985400 -20.467700 -15.685900
C -14.913100 -22.430600 -15.211700
C -14.651700 -21.069200 -15.060100
C -14.646000 -21.725800 -18.201800
C -14.610300 -21.429700 -19.547200
H -14.552900 -24.225500 -14.342400
C -14.394800 -23.312000 -14.260300
H -14.348100 -20.883600 -22.801400
H -14.039400 -20.769500 -19.868900
H -14.032100 -21.324300 -17.629800
C -13.902300 -20.593900 -13.989400
H -13.746800 -19.680400 -13.903400
C -13.648900 -22.839400 -13.198400
C -13.383000 -21.473000 -13.045800
H -13.260500 -19.262800 -11.670100
Br -12.937700 -24.070800 -11.945100
O -12.637100 -21.113100 -11.967300
C -12.416800 -19.707700 -11.773700
H -11.956900 -19.348100 -12.536400
H -11.884500 -19.572900 -10.986600
42
Fragment
H -23.292400 -24.348100 -28.125500
H -23.219900 -24.572900 -26.575700
C -22.760000 -24.213300 -27.338400
O -22.539700 -22.807900 -27.144800
Br -22.239100 -19.850300 -27.167000
H -21.916300 -24.658300 -27.442000
C -21.793800 -22.448000 -26.066300
C -21.528000 -21.081600 -25.913700
H -21.430000 -24.240700 -25.208700
C -21.274500 -23.327100 -25.122700
H -21.144800 -22.596700 -21.482300
H -21.137400 -23.151500 -19.243100
H -20.828700 -23.037500 -16.310700
C -20.782100 -20.609100 -24.851800
H -20.623900 -19.695500 -24.769700
C -20.566500 -22.491300 -19.564800
C -20.530900 -22.195300 -20.910300
C -20.525200 -22.851800 -24.052000
C -20.263800 -21.490400 -23.900400
H -20.191400 -23.453300 -23.426200
C -20.144300 -22.425700 -16.165000
H -20.086300 -22.611700 -14.169300
C -19.716200 -21.772200 -18.667200
C -19.701700 -22.160300 -14.886100
C -19.557500 -21.273400 -21.448100
C -19.545100 -21.753800 -17.242600
C -19.412900 -20.927600 -22.815100
C -18.813800 -20.846500 -19.186400
C -18.696300 -20.571200 -20.569000
C -18.686000 -21.227700 -14.641600
N -18.534500 -20.020100 -23.226200
C -18.526400 -20.810800 -16.977600
H -18.407600 -21.071200 -13.768400
N -18.100400 -20.260200 -18.166000
C -18.091400 -20.538300 -15.680000
N -17.797900 -19.647800 -20.974000
C -17.755400 -19.415800 -22.284100
H -17.494800 -19.656200 -18.254600
H -17.422900 -19.911700 -15.519700
N -16.899100 -18.473200 -22.731800
H -16.637400 -18.664800 -23.533700
H -16.208600 -18.447600 -22.212700
84
Fragment
H -18.968200 -25.473500 -16.899400
H -18.539400 -25.256200 -15.578300
N -18.277700 -25.447900 -16.380200
H -17.753900 -24.009300 -23.592400
H -17.682000 -24.264800 -20.857500
C -17.421500 -24.505300 -16.828000
N -17.378900 -24.273300 -18.138100
C -17.085400 -23.382700 -23.432100
N -17.076400 -23.660800 -20.946100
H -16.769200 -22.849800 -25.343700
C -16.650500 -23.110300 -22.134500
N -16.642300 -23.900900 -15.885900
C -16.490800 -22.693400 -24.470500
C -16.480500 -23.349800 -18.543000
C -16.363000 -23.074500 -19.925700
C -15.764000 -22.993500 -16.297000
C -15.631700 -22.167200 -21.869500
C -15.619400 -22.647700 -17.664000
C -15.475100 -21.760700 -24.226000
C -15.460600 -22.148900 -20.444900
H -15.090500 -21.309300 -24.942800
C -15.032500 -21.495300 -22.947100
H -14.985400 -20.467700 -15.685900
C -14.913100 -22.430600 -15.211700
C -14.651700 -21.069200 -15.060100
C -14.646000 -21.725800 -18.201800
C -14.610300 -21.429700 -19.547200
H -14.552900 -24.225500 -14.342400
C -14.394800 -23.312000 -14.260300
H -14.348100 -20.883600 -22.801400
H -14.039400 -20.769500 -19.868900
H -14.032100 -21.324300 -17.629800
C -13.902300 -20.593900 -13.989400
H -13.746800 -19.680400 -13.903400
C -13.648900 -22.839400 -13.198400
C -13.383000 -21.473000 -13.045800
H -13.260500 -19.262800 -11.670100
Br -12.937700 -24.070800 -11.945100
O -12.637100 -21.113100 -11.967300
C -12.416800 -19.707700 -11.773700
H -11.956900 -19.348100 -12.536400
H -11.884500 -19.572900 -10.986600
H -23.292400 -24.348100 -28.125500
H -23.219900 -24.572900 -26.575700
C -22.760000 -24.213300 -27.338400
O -22.539700 -22.807900 -27.144800
Br -22.239100 -19.850300 -27.167000
H -21.916300 -24.658300 -27.442000
C -21.793800 -22.448000 -26.066300
C -21.528000 -21.081600 -25.913700
H -21.430000 -24.240700 -25.208700
C -21.274500 -23.327100 -25.122700
H -21.144800 -22.596700 -21.482300
H -21.137400 -23.151500 -19.243100
H -20.828700 -23.037500 -16.310700
C -20.782100 -20.609100 -24.851800
H -20.623900 -19.695500 -24.769700
C -20.566500 -22.491300 -19.564800
C -20.530900 -22.195300 -20.910300
C -20.525200 -22.851800 -24.052000
C -20.263800 -21.490400 -23.900400
H -20.191400 -23.453300 -23.426200
C -20.144300 -22.425700 -16.165000
H -20.086300 -22.611700 -14.169300
C -19.716200 -21.772200 -18.667200
C -19.701700 -22.160300 -14.886100
C -19.557500 -21.273400 -21.448100
C -19.545100 -21.753800 -17.242600
C -19.412900 -20.927600 -22.815100
C -18.813800 -20.846500 -19.186400
C -18.696300 -20.571200 -20.569000
C -18.686000 -21.227700 -14.641600
N -18.534500 -20.020100 -23.226200
C -18.526400 -20.810800 -16.977600
H -18.407600 -21.071200 -13.768400
N -18.100400 -20.260200 -18.166000
C -18.091400 -20.538300 -15.680000
N -17.797900 -19.647800 -20.974000
C -17.755400 -19.415800 -22.284100
H -17.494800 -19.656200 -18.254600
H -17.422900 -19.911700 -15.519700
N -16.899100 -18.473200 -22.731800
H -16.637400 -18.664800 -23.533700
H -16.208600 -18.447600 -22.212700
