42
Fragment
H -18.968200 -25.473500 -16.899400
H -18.539400 -25.256200 -15.578300
N -18.277700 -25.447900 -16.380200
H -17.753900 -24.009300 -23.592400
H -17.682000 -24.264800 -20.857500
C -17.421500 -24.505300 -16.828000
N -17.378900 -24.273300 -18.138100
C -17.085400 -23.382700 -23.432100
N -17.076400 -23.660800 -20.946100
H -16.769200 -22.849800 -25.343700
C -16.650500 -23.110300 -22.134500
N -16.642300 -23.900900 -15.885900
C -16.490800 -22.693400 -24.470500
C -16.480500 -23.349800 -18.543000
C -16.363000 -23.074500 -19.925700
C -15.764000 -22.993500 -16.297000
C -15.631700 -22.167200 -21.869500
C -15.619400 -22.647700 -17.664000
C -15.475100 -21.760700 -24.226000
C -15.460600 -22.148900 -20.444900
H -15.090500 -21.309300 -24.942800
C -15.032500 -21.495300 -22.947100
H -14.985400 -20.467700 -15.685900
C -14.913100 -22.430600 -15.211700
C -14.651700 -21.069200 -15.060100
C -14.646000 -21.725800 -18.201800
C -14.610300 -21.429700 -19.547200
H -14.552900 -24.225500 -14.342400
C -14.394800 -23.312000 -14.260300
H -14.348100 -20.883600 -22.801400
H -14.039400 -20.769500 -19.868900
H -14.032100 -21.324300 -17.629800
C -13.902300 -20.593900 -13.989400
H -13.746800 -19.680400 -13.903400
C -13.648900 -22.839400 -13.198400
C -13.383000 -21.473000 -13.045800
H -13.260500 -19.262800 -11.670100
Br -12.937700 -24.070800 -11.945100
O -12.637100 -21.113100 -11.967300
C -12.416800 -19.707700 -11.773700
H -11.956900 -19.348100 -12.536400
H -11.884500 -19.572900 -10.986600
42
Fragment
H -14.517200 -29.904900 -18.347500
H -14.444700 -30.129700 -16.797700
C -13.984800 -29.770100 -17.560300
O -13.764500 -28.364700 -17.366700
Br -13.463900 -25.407000 -17.388900
H -13.141100 -30.215000 -17.664000
C -13.018600 -28.004800 -16.288200
C -12.752700 -26.638400 -16.135700
H -12.654800 -29.797400 -15.430700
C -12.499300 -28.883900 -15.344600
H -12.369500 -28.153500 -11.704300
H -12.362200 -28.708300 -9.465100
H -12.053500 -28.594300 -6.532700
C -12.006800 -26.165900 -15.073800
H -11.848700 -25.252300 -14.991700
C -11.791300 -28.048100 -9.786800
C -11.755700 -27.752000 -11.132300
C -11.750000 -28.408600 -14.274000
C -11.488500 -27.047200 -14.122400
H -11.416200 -29.010100 -13.648200
C -11.369100 -27.982500 -6.387000
H -11.311100 -28.168500 -4.391300
C -10.941000 -27.328900 -8.889200
C -10.926500 -27.717100 -5.108000
C -10.782200 -26.830100 -11.670100
C -10.769900 -27.310600 -7.464500
C -10.637600 -26.484300 -13.037000
C -10.038600 -26.403300 -9.408400
C -9.921100 -26.128000 -10.791000
C -9.910800 -26.784400 -4.863600
N -9.759300 -25.576900 -13.448200
C -9.751100 -26.367500 -7.199600
H -9.632400 -26.628000 -3.990400
N -9.325200 -25.817000 -8.388000
C -9.316200 -26.095100 -5.902000
N -9.022700 -25.204500 -11.195900
C -8.980100 -24.972500 -12.506100
H -8.719600 -25.213000 -8.476600
H -8.647700 -25.468500 -5.741700
N -8.123900 -24.029900 -12.953800
H -7.862200 -24.221600 -13.755700
H -7.433400 -24.004300 -12.434700
84
Fragment
H -18.968200 -25.473500 -16.899400
H -18.539400 -25.256200 -15.578300
N -18.277700 -25.447900 -16.380200
H -17.753900 -24.009300 -23.592400
H -17.682000 -24.264800 -20.857500
C -17.421500 -24.505300 -16.828000
N -17.378900 -24.273300 -18.138100
C -17.085400 -23.382700 -23.432100
N -17.076400 -23.660800 -20.946100
H -16.769200 -22.849800 -25.343700
C -16.650500 -23.110300 -22.134500
N -16.642300 -23.900900 -15.885900
C -16.490800 -22.693400 -24.470500
C -16.480500 -23.349800 -18.543000
C -16.363000 -23.074500 -19.925700
C -15.764000 -22.993500 -16.297000
C -15.631700 -22.167200 -21.869500
C -15.619400 -22.647700 -17.664000
C -15.475100 -21.760700 -24.226000
C -15.460600 -22.148900 -20.444900
H -15.090500 -21.309300 -24.942800
C -15.032500 -21.495300 -22.947100
H -14.985400 -20.467700 -15.685900
C -14.913100 -22.430600 -15.211700
C -14.651700 -21.069200 -15.060100
C -14.646000 -21.725800 -18.201800
C -14.610300 -21.429700 -19.547200
H -14.552900 -24.225500 -14.342400
C -14.394800 -23.312000 -14.260300
H -14.348100 -20.883600 -22.801400
H -14.039400 -20.769500 -19.868900
H -14.032100 -21.324300 -17.629800
C -13.902300 -20.593900 -13.989400
H -13.746800 -19.680400 -13.903400
C -13.648900 -22.839400 -13.198400
C -13.383000 -21.473000 -13.045800
H -13.260500 -19.262800 -11.670100
Br -12.937700 -24.070800 -11.945100
O -12.637100 -21.113100 -11.967300
C -12.416800 -19.707700 -11.773700
H -11.956900 -19.348100 -12.536400
H -11.884500 -19.572900 -10.986600
H -14.517200 -29.904900 -18.347500
H -14.444700 -30.129700 -16.797700
C -13.984800 -29.770100 -17.560300
O -13.764500 -28.364700 -17.366700
Br -13.463900 -25.407000 -17.388900
H -13.141100 -30.215000 -17.664000
C -13.018600 -28.004800 -16.288200
C -12.752700 -26.638400 -16.135700
H -12.654800 -29.797400 -15.430700
C -12.499300 -28.883900 -15.344600
H -12.369500 -28.153500 -11.704300
H -12.362200 -28.708300 -9.465100
H -12.053500 -28.594300 -6.532700
C -12.006800 -26.165900 -15.073800
H -11.848700 -25.252300 -14.991700
C -11.791300 -28.048100 -9.786800
C -11.755700 -27.752000 -11.132300
C -11.750000 -28.408600 -14.274000
C -11.488500 -27.047200 -14.122400
H -11.416200 -29.010100 -13.648200
C -11.369100 -27.982500 -6.387000
H -11.311100 -28.168500 -4.391300
C -10.941000 -27.328900 -8.889200
C -10.926500 -27.717100 -5.108000
C -10.782200 -26.830100 -11.670100
C -10.769900 -27.310600 -7.464500
C -10.637600 -26.484300 -13.037000
C -10.038600 -26.403300 -9.408400
C -9.921100 -26.128000 -10.791000
C -9.910800 -26.784400 -4.863600
N -9.759300 -25.576900 -13.448200
C -9.751100 -26.367500 -7.199600
H -9.632400 -26.628000 -3.990400
N -9.325200 -25.817000 -8.388000
C -9.316200 -26.095100 -5.902000
N -9.022700 -25.204500 -11.195900
C -8.980100 -24.972500 -12.506100
H -8.719600 -25.213000 -8.476600
H -8.647700 -25.468500 -5.741700
N -8.123900 -24.029900 -12.953800
H -7.862200 -24.221600 -13.755700
H -7.433400 -24.004300 -12.434700
