42
Fragment
H -18.968200 -25.473500 -16.899400
H -18.539400 -25.256200 -15.578300
N -18.277700 -25.447900 -16.380200
H -17.753900 -24.009300 -23.592400
H -17.682000 -24.264800 -20.857500
C -17.421500 -24.505300 -16.828000
N -17.378900 -24.273300 -18.138100
C -17.085400 -23.382700 -23.432100
N -17.076400 -23.660800 -20.946100
H -16.769200 -22.849800 -25.343700
C -16.650500 -23.110300 -22.134500
N -16.642300 -23.900900 -15.885900
C -16.490800 -22.693400 -24.470500
C -16.480500 -23.349800 -18.543000
C -16.363000 -23.074500 -19.925700
C -15.764000 -22.993500 -16.297000
C -15.631700 -22.167200 -21.869500
C -15.619400 -22.647700 -17.664000
C -15.475100 -21.760700 -24.226000
C -15.460600 -22.148900 -20.444900
H -15.090500 -21.309300 -24.942800
C -15.032500 -21.495300 -22.947100
H -14.985400 -20.467700 -15.685900
C -14.913100 -22.430600 -15.211700
C -14.651700 -21.069200 -15.060100
C -14.646000 -21.725800 -18.201800
C -14.610300 -21.429700 -19.547200
H -14.552900 -24.225500 -14.342400
C -14.394800 -23.312000 -14.260300
H -14.348100 -20.883600 -22.801400
H -14.039400 -20.769500 -19.868900
H -14.032100 -21.324300 -17.629800
C -13.902300 -20.593900 -13.989400
H -13.746800 -19.680400 -13.903400
C -13.648900 -22.839400 -13.198400
C -13.383000 -21.473000 -13.045800
H -13.260500 -19.262800 -11.670100
Br -12.937700 -24.070800 -11.945100
O -12.637100 -21.113100 -11.967300
C -12.416800 -19.707700 -11.773700
H -11.956900 -19.348100 -12.536400
H -11.884500 -19.572900 -10.986600
6
Fragment
N -17.095100 -23.487600 -28.010100
C -16.498800 -22.683700 -28.546000
H -16.091300 -20.786000 -28.992800
H -15.820900 -21.772800 -30.181800
C -15.743500 -21.648700 -29.232400
H -14.820200 -21.702800 -28.976200
48
Fragment
H -18.968200 -25.473500 -16.899400
H -18.539400 -25.256200 -15.578300
N -18.277700 -25.447900 -16.380200
H -17.753900 -24.009300 -23.592400
H -17.682000 -24.264800 -20.857500
C -17.421500 -24.505300 -16.828000
N -17.378900 -24.273300 -18.138100
C -17.085400 -23.382700 -23.432100
N -17.076400 -23.660800 -20.946100
H -16.769200 -22.849800 -25.343700
C -16.650500 -23.110300 -22.134500
N -16.642300 -23.900900 -15.885900
C -16.490800 -22.693400 -24.470500
C -16.480500 -23.349800 -18.543000
C -16.363000 -23.074500 -19.925700
C -15.764000 -22.993500 -16.297000
C -15.631700 -22.167200 -21.869500
C -15.619400 -22.647700 -17.664000
C -15.475100 -21.760700 -24.226000
C -15.460600 -22.148900 -20.444900
H -15.090500 -21.309300 -24.942800
C -15.032500 -21.495300 -22.947100
H -14.985400 -20.467700 -15.685900
C -14.913100 -22.430600 -15.211700
C -14.651700 -21.069200 -15.060100
C -14.646000 -21.725800 -18.201800
C -14.610300 -21.429700 -19.547200
H -14.552900 -24.225500 -14.342400
C -14.394800 -23.312000 -14.260300
H -14.348100 -20.883600 -22.801400
H -14.039400 -20.769500 -19.868900
H -14.032100 -21.324300 -17.629800
C -13.902300 -20.593900 -13.989400
H -13.746800 -19.680400 -13.903400
C -13.648900 -22.839400 -13.198400
C -13.383000 -21.473000 -13.045800
H -13.260500 -19.262800 -11.670100
Br -12.937700 -24.070800 -11.945100
O -12.637100 -21.113100 -11.967300
C -12.416800 -19.707700 -11.773700
H -11.956900 -19.348100 -12.536400
H -11.884500 -19.572900 -10.986600
N -17.095100 -23.487600 -28.010100
C -16.498800 -22.683700 -28.546000
H -16.091300 -20.786000 -28.992800
H -15.820900 -21.772800 -30.181800
C -15.743500 -21.648700 -29.232400
H -14.820200 -21.702800 -28.976200
