42
Fragment
H -18.968200 -25.473500 -16.899400
H -18.539400 -25.256200 -15.578300
N -18.277700 -25.447900 -16.380200
H -17.753900 -24.009300 -23.592400
H -17.682000 -24.264800 -20.857500
C -17.421500 -24.505300 -16.828000
N -17.378900 -24.273300 -18.138100
C -17.085400 -23.382700 -23.432100
N -17.076400 -23.660800 -20.946100
H -16.769200 -22.849800 -25.343700
C -16.650500 -23.110300 -22.134500
N -16.642300 -23.900900 -15.885900
C -16.490800 -22.693400 -24.470500
C -16.480500 -23.349800 -18.543000
C -16.363000 -23.074500 -19.925700
C -15.764000 -22.993500 -16.297000
C -15.631700 -22.167200 -21.869500
C -15.619400 -22.647700 -17.664000
C -15.475100 -21.760700 -24.226000
C -15.460600 -22.148900 -20.444900
H -15.090500 -21.309300 -24.942800
C -15.032500 -21.495300 -22.947100
H -14.985400 -20.467700 -15.685900
C -14.913100 -22.430600 -15.211700
C -14.651700 -21.069200 -15.060100
C -14.646000 -21.725800 -18.201800
C -14.610300 -21.429700 -19.547200
H -14.552900 -24.225500 -14.342400
C -14.394800 -23.312000 -14.260300
H -14.348100 -20.883600 -22.801400
H -14.039400 -20.769500 -19.868900
H -14.032100 -21.324300 -17.629800
C -13.902300 -20.593900 -13.989400
H -13.746800 -19.680400 -13.903400
C -13.648900 -22.839400 -13.198400
C -13.383000 -21.473000 -13.045800
H -13.260500 -19.262800 -11.670100
Br -12.937700 -24.070800 -11.945100
O -12.637100 -21.113100 -11.967300
C -12.416800 -19.707700 -11.773700
H -11.956900 -19.348100 -12.536400
H -11.884500 -19.572900 -10.986600
42
Fragment
H -14.047100 -24.348100 -28.125500
H -13.974600 -24.572900 -26.575700
C -13.514700 -24.213300 -27.338400
O -13.294400 -22.807900 -27.144800
Br -12.993800 -19.850300 -27.167000
H -12.671000 -24.658300 -27.442000
C -12.548500 -22.448000 -26.066300
C -12.282700 -21.081600 -25.913700
H -12.184700 -24.240700 -25.208700
C -12.029200 -23.327100 -25.122700
H -11.899500 -22.596700 -21.482300
H -11.892100 -23.151500 -19.243100
H -11.583400 -23.037500 -16.310700
C -11.536800 -20.609100 -24.851800
H -11.378600 -19.695500 -24.769700
C -11.321200 -22.491300 -19.564800
C -11.285600 -22.195300 -20.910300
C -11.279900 -22.851800 -24.052000
C -11.018500 -21.490400 -23.900400
H -10.946100 -23.453300 -23.426200
C -10.899000 -22.425700 -16.165000
H -10.841000 -22.611700 -14.169300
C -10.470900 -21.772200 -18.667200
C -10.456400 -22.160300 -14.886100
C -10.312200 -21.273400 -21.448100
C -10.299800 -21.753800 -17.242600
C -10.167600 -20.927600 -22.815100
C -9.568500 -20.846500 -19.186400
C -9.451000 -20.571200 -20.569000
C -9.440700 -21.227700 -14.641600
N -9.289200 -20.020100 -23.226200
C -9.281100 -20.810800 -16.977600
H -9.162300 -21.071200 -13.768400
N -8.855100 -20.260200 -18.166000
C -8.846100 -20.538300 -15.680000
N -8.552600 -19.647800 -20.974000
C -8.510100 -19.415800 -22.284100
H -8.249500 -19.656200 -18.254600
H -8.177600 -19.911700 -15.519700
N -7.653800 -18.473200 -22.731800
H -7.392100 -18.664800 -23.533700
H -6.963300 -18.447600 -22.212700
84
Fragment
H -18.968200 -25.473500 -16.899400
H -18.539400 -25.256200 -15.578300
N -18.277700 -25.447900 -16.380200
H -17.753900 -24.009300 -23.592400
H -17.682000 -24.264800 -20.857500
C -17.421500 -24.505300 -16.828000
N -17.378900 -24.273300 -18.138100
C -17.085400 -23.382700 -23.432100
N -17.076400 -23.660800 -20.946100
H -16.769200 -22.849800 -25.343700
C -16.650500 -23.110300 -22.134500
N -16.642300 -23.900900 -15.885900
C -16.490800 -22.693400 -24.470500
C -16.480500 -23.349800 -18.543000
C -16.363000 -23.074500 -19.925700
C -15.764000 -22.993500 -16.297000
C -15.631700 -22.167200 -21.869500
C -15.619400 -22.647700 -17.664000
C -15.475100 -21.760700 -24.226000
C -15.460600 -22.148900 -20.444900
H -15.090500 -21.309300 -24.942800
C -15.032500 -21.495300 -22.947100
H -14.985400 -20.467700 -15.685900
C -14.913100 -22.430600 -15.211700
C -14.651700 -21.069200 -15.060100
C -14.646000 -21.725800 -18.201800
C -14.610300 -21.429700 -19.547200
H -14.552900 -24.225500 -14.342400
C -14.394800 -23.312000 -14.260300
H -14.348100 -20.883600 -22.801400
H -14.039400 -20.769500 -19.868900
H -14.032100 -21.324300 -17.629800
C -13.902300 -20.593900 -13.989400
H -13.746800 -19.680400 -13.903400
C -13.648900 -22.839400 -13.198400
C -13.383000 -21.473000 -13.045800
H -13.260500 -19.262800 -11.670100
Br -12.937700 -24.070800 -11.945100
O -12.637100 -21.113100 -11.967300
C -12.416800 -19.707700 -11.773700
H -11.956900 -19.348100 -12.536400
H -11.884500 -19.572900 -10.986600
H -14.047100 -24.348100 -28.125500
H -13.974600 -24.572900 -26.575700
C -13.514700 -24.213300 -27.338400
O -13.294400 -22.807900 -27.144800
Br -12.993800 -19.850300 -27.167000
H -12.671000 -24.658300 -27.442000
C -12.548500 -22.448000 -26.066300
C -12.282700 -21.081600 -25.913700
H -12.184700 -24.240700 -25.208700
C -12.029200 -23.327100 -25.122700
H -11.899500 -22.596700 -21.482300
H -11.892100 -23.151500 -19.243100
H -11.583400 -23.037500 -16.310700
C -11.536800 -20.609100 -24.851800
H -11.378600 -19.695500 -24.769700
C -11.321200 -22.491300 -19.564800
C -11.285600 -22.195300 -20.910300
C -11.279900 -22.851800 -24.052000
C -11.018500 -21.490400 -23.900400
H -10.946100 -23.453300 -23.426200
C -10.899000 -22.425700 -16.165000
H -10.841000 -22.611700 -14.169300
C -10.470900 -21.772200 -18.667200
C -10.456400 -22.160300 -14.886100
C -10.312200 -21.273400 -21.448100
C -10.299800 -21.753800 -17.242600
C -10.167600 -20.927600 -22.815100
C -9.568500 -20.846500 -19.186400
C -9.451000 -20.571200 -20.569000
C -9.440700 -21.227700 -14.641600
N -9.289200 -20.020100 -23.226200
C -9.281100 -20.810800 -16.977600
H -9.162300 -21.071200 -13.768400
N -8.855100 -20.260200 -18.166000
C -8.846100 -20.538300 -15.680000
N -8.552600 -19.647800 -20.974000
C -8.510100 -19.415800 -22.284100
H -8.249500 -19.656200 -18.254600
H -8.177600 -19.911700 -15.519700
N -7.653800 -18.473200 -22.731800
H -7.392100 -18.664800 -23.533700
H -6.963300 -18.447600 -22.212700
