26
Fragment
H -6.964100 -17.020200 -13.142900
H -6.312400 -20.849200 -11.207300
H -6.260600 -16.632900 -14.527200
C -6.131100 -16.715200 -13.559000
H -5.952500 -22.407500 -11.163600
H -5.880000 -15.843700 -13.187300
C -5.649600 -21.523900 -11.461100
H -5.541700 -21.526500 -12.435200
H -5.530600 -18.266800 -11.503500
C -5.049200 -17.701000 -13.286000
N -4.980400 -18.403900 -12.124400
C -4.344000 -21.204000 -10.818300
N -4.031300 -17.981600 -14.085200
C -3.856700 -19.182400 -12.176800
N -3.748900 -21.916700 -9.887300
N -3.559700 -20.108900 -11.166900
C -3.300500 -18.899300 -13.382800
C -2.571900 -21.252500 -9.636200
C -2.420700 -20.140900 -10.396200
N -2.105900 -19.444100 -13.975800
O -1.939600 -22.811300 -8.088200
O -1.827100 -19.107800 -15.123500
H -1.767200 -19.442000 -10.430000
N -1.651300 -21.759100 -8.659400
O -1.437200 -20.226100 -13.293300
O -0.620100 -21.113000 -8.464000
26
Fragment
H -3.193200 -17.020200 -6.516400
H -2.541500 -20.849200 -4.580900
H -2.489800 -16.632900 -7.900700
C -2.360300 -16.715200 -6.932600
H -2.181600 -22.407500 -4.537100
H -2.109200 -15.843700 -6.560800
C -1.878700 -21.523900 -4.834700
H -1.770900 -21.526500 -5.808700
H -1.759700 -18.266800 -4.877100
C -1.278300 -17.701000 -6.659600
N -1.209500 -18.403900 -5.498000
C -0.573100 -21.204000 -4.191900
N -0.260400 -17.981600 -7.458700
C -0.085800 -19.182400 -5.550300
N 0.022000 -21.916700 -3.260900
N 0.211200 -20.108900 -4.540400
C 0.470400 -18.899300 -6.756300
C 1.199000 -21.252500 -3.009700
C 1.350200 -20.140900 -3.769800
N 1.664900 -19.444100 -7.349400
O 1.831200 -22.811300 -1.461800
O 1.943700 -19.107800 -8.497100
H 2.003600 -19.442000 -3.803600
N 2.119500 -21.759100 -2.033000
O 2.333600 -20.226100 -6.666900
O 3.150800 -21.113000 -1.837500
52
Fragment
H -6.964100 -17.020200 -13.142900
H -6.312400 -20.849200 -11.207300
H -6.260600 -16.632900 -14.527200
C -6.131100 -16.715200 -13.559000
H -5.952500 -22.407500 -11.163600
H -5.880000 -15.843700 -13.187300
C -5.649600 -21.523900 -11.461100
H -5.541700 -21.526500 -12.435200
H -5.530600 -18.266800 -11.503500
C -5.049200 -17.701000 -13.286000
N -4.980400 -18.403900 -12.124400
C -4.344000 -21.204000 -10.818300
N -4.031300 -17.981600 -14.085200
C -3.856700 -19.182400 -12.176800
N -3.748900 -21.916700 -9.887300
N -3.559700 -20.108900 -11.166900
C -3.300500 -18.899300 -13.382800
C -2.571900 -21.252500 -9.636200
C -2.420700 -20.140900 -10.396200
N -2.105900 -19.444100 -13.975800
O -1.939600 -22.811300 -8.088200
O -1.827100 -19.107800 -15.123500
H -1.767200 -19.442000 -10.430000
N -1.651300 -21.759100 -8.659400
O -1.437200 -20.226100 -13.293300
O -0.620100 -21.113000 -8.464000
H -3.193200 -17.020200 -6.516400
H -2.541500 -20.849200 -4.580900
H -2.489800 -16.632900 -7.900700
C -2.360300 -16.715200 -6.932600
H -2.181600 -22.407500 -4.537100
H -2.109200 -15.843700 -6.560800
C -1.878700 -21.523900 -4.834700
H -1.770900 -21.526500 -5.808700
H -1.759700 -18.266800 -4.877100
C -1.278300 -17.701000 -6.659600
N -1.209500 -18.403900 -5.498000
C -0.573100 -21.204000 -4.191900
N -0.260400 -17.981600 -7.458700
C -0.085800 -19.182400 -5.550300
N 0.022000 -21.916700 -3.260900
N 0.211200 -20.108900 -4.540400
C 0.470400 -18.899300 -6.756300
C 1.199000 -21.252500 -3.009700
C 1.350200 -20.140900 -3.769800
N 1.664900 -19.444100 -7.349400
O 1.831200 -22.811300 -1.461800
O 1.943700 -19.107800 -8.497100
H 2.003600 -19.442000 -3.803600
N 2.119500 -21.759100 -2.033000
O 2.333600 -20.226100 -6.666900
O 3.150800 -21.113000 -1.837500
