26
Fragment
H -6.964100 -17.020200 -13.142900
H -6.312400 -20.849200 -11.207300
H -6.260600 -16.632900 -14.527200
C -6.131100 -16.715200 -13.559000
H -5.952500 -22.407500 -11.163600
H -5.880000 -15.843700 -13.187300
C -5.649600 -21.523900 -11.461100
H -5.541700 -21.526500 -12.435200
H -5.530600 -18.266800 -11.503500
C -5.049200 -17.701000 -13.286000
N -4.980400 -18.403900 -12.124400
C -4.344000 -21.204000 -10.818300
N -4.031300 -17.981600 -14.085200
C -3.856700 -19.182400 -12.176800
N -3.748900 -21.916700 -9.887300
N -3.559700 -20.108900 -11.166900
C -3.300500 -18.899300 -13.382800
C -2.571900 -21.252500 -9.636200
C -2.420700 -20.140900 -10.396200
N -2.105900 -19.444100 -13.975800
O -1.939600 -22.811300 -8.088200
O -1.827100 -19.107800 -15.123500
H -1.767200 -19.442000 -10.430000
N -1.651300 -21.759100 -8.659400
O -1.437200 -20.226100 -13.293300
O -0.620100 -21.113000 -8.464000
26
Fragment
H -0.369000 -17.020200 -13.142900
H 0.282700 -20.849200 -11.207300
H 0.334500 -16.632900 -14.527200
C 0.464000 -16.715200 -13.559000
H 0.642600 -22.407500 -11.163600
H 0.715100 -15.843700 -13.187300
C 0.945500 -21.523900 -11.461100
H 1.053400 -21.526500 -12.435200
H 1.064500 -18.266800 -11.503500
C 1.545900 -17.701000 -13.286000
N 1.614700 -18.403900 -12.124400
C 2.251100 -21.204000 -10.818300
N 2.563800 -17.981600 -14.085200
C 2.738400 -19.182400 -12.176800
N 2.846200 -21.916700 -9.887300
N 3.035400 -20.108900 -11.166900
C 3.294600 -18.899300 -13.382800
C 4.023200 -21.252500 -9.636200
C 4.174400 -20.140900 -10.396200
N 4.489200 -19.444100 -13.975800
O 4.655500 -22.811300 -8.088200
O 4.768000 -19.107800 -15.123500
H 4.827900 -19.442000 -10.430000
N 4.943800 -21.759100 -8.659400
O 5.157900 -20.226100 -13.293300
O 5.975000 -21.113000 -8.464000
52
Fragment
H -6.964100 -17.020200 -13.142900
H -6.312400 -20.849200 -11.207300
H -6.260600 -16.632900 -14.527200
C -6.131100 -16.715200 -13.559000
H -5.952500 -22.407500 -11.163600
H -5.880000 -15.843700 -13.187300
C -5.649600 -21.523900 -11.461100
H -5.541700 -21.526500 -12.435200
H -5.530600 -18.266800 -11.503500
C -5.049200 -17.701000 -13.286000
N -4.980400 -18.403900 -12.124400
C -4.344000 -21.204000 -10.818300
N -4.031300 -17.981600 -14.085200
C -3.856700 -19.182400 -12.176800
N -3.748900 -21.916700 -9.887300
N -3.559700 -20.108900 -11.166900
C -3.300500 -18.899300 -13.382800
C -2.571900 -21.252500 -9.636200
C -2.420700 -20.140900 -10.396200
N -2.105900 -19.444100 -13.975800
O -1.939600 -22.811300 -8.088200
O -1.827100 -19.107800 -15.123500
H -1.767200 -19.442000 -10.430000
N -1.651300 -21.759100 -8.659400
O -1.437200 -20.226100 -13.293300
O -0.620100 -21.113000 -8.464000
H -0.369000 -17.020200 -13.142900
H 0.282700 -20.849200 -11.207300
H 0.334500 -16.632900 -14.527200
C 0.464000 -16.715200 -13.559000
H 0.642600 -22.407500 -11.163600
H 0.715100 -15.843700 -13.187300
C 0.945500 -21.523900 -11.461100
H 1.053400 -21.526500 -12.435200
H 1.064500 -18.266800 -11.503500
C 1.545900 -17.701000 -13.286000
N 1.614700 -18.403900 -12.124400
C 2.251100 -21.204000 -10.818300
N 2.563800 -17.981600 -14.085200
C 2.738400 -19.182400 -12.176800
N 2.846200 -21.916700 -9.887300
N 3.035400 -20.108900 -11.166900
C 3.294600 -18.899300 -13.382800
C 4.023200 -21.252500 -9.636200
C 4.174400 -20.140900 -10.396200
N 4.489200 -19.444100 -13.975800
O 4.655500 -22.811300 -8.088200
O 4.768000 -19.107800 -15.123500
H 4.827900 -19.442000 -10.430000
N 4.943800 -21.759100 -8.659400
O 5.157900 -20.226100 -13.293300
O 5.975000 -21.113000 -8.464000
