26
Fragment
H -6.964100 -17.020200 -13.142900
H -6.312400 -20.849200 -11.207300
H -6.260600 -16.632900 -14.527200
C -6.131100 -16.715200 -13.559000
H -5.952500 -22.407500 -11.163600
H -5.880000 -15.843700 -13.187300
C -5.649600 -21.523900 -11.461100
H -5.541700 -21.526500 -12.435200
H -5.530600 -18.266800 -11.503500
C -5.049200 -17.701000 -13.286000
N -4.980400 -18.403900 -12.124400
C -4.344000 -21.204000 -10.818300
N -4.031300 -17.981600 -14.085200
C -3.856700 -19.182400 -12.176800
N -3.748900 -21.916700 -9.887300
N -3.559700 -20.108900 -11.166900
C -3.300500 -18.899300 -13.382800
C -2.571900 -21.252500 -9.636200
C -2.420700 -20.140900 -10.396200
N -2.105900 -19.444100 -13.975800
O -1.939600 -22.811300 -8.088200
O -1.827100 -19.107800 -15.123500
H -1.767200 -19.442000 -10.430000
N -1.651300 -21.759100 -8.659400
O -1.437200 -20.226100 -13.293300
O -0.620100 -21.113000 -8.464000
26
Fragment
O -10.692500 -27.859000 -11.415400
O -9.875400 -26.972100 -6.586000
N -9.661300 -28.505100 -11.219900
H -9.545400 -26.188000 -9.449300
O -9.485500 -25.853800 -4.755800
O -9.373000 -29.557300 -11.791100
N -9.206700 -26.190100 -5.903500
C -8.891900 -26.886900 -9.483100
C -8.740700 -27.998500 -10.243200
C -8.012100 -25.645300 -6.496600
N -7.752900 -26.854900 -8.712500
N -7.563700 -28.662700 -9.992000
C -7.455900 -25.928400 -7.702600
N -7.281300 -24.727600 -5.794200
C -6.968600 -27.950000 -9.061000
N -6.332200 -25.149900 -7.754900
C -6.263400 -24.447000 -6.593300
H -5.782000 -25.012800 -8.375800
H -5.770900 -28.272500 -7.444200
C -5.663000 -28.269900 -8.418200
H -5.432600 -22.589700 -6.692000
H -5.360100 -29.153500 -8.715800
C -5.181500 -23.461200 -6.320300
H -5.052000 -23.378900 -5.352200
H -5.000200 -27.595200 -8.672000
H -4.348500 -23.766200 -6.736400
52
Fragment
H -6.964100 -17.020200 -13.142900
H -6.312400 -20.849200 -11.207300
H -6.260600 -16.632900 -14.527200
C -6.131100 -16.715200 -13.559000
H -5.952500 -22.407500 -11.163600
H -5.880000 -15.843700 -13.187300
C -5.649600 -21.523900 -11.461100
H -5.541700 -21.526500 -12.435200
H -5.530600 -18.266800 -11.503500
C -5.049200 -17.701000 -13.286000
N -4.980400 -18.403900 -12.124400
C -4.344000 -21.204000 -10.818300
N -4.031300 -17.981600 -14.085200
C -3.856700 -19.182400 -12.176800
N -3.748900 -21.916700 -9.887300
N -3.559700 -20.108900 -11.166900
C -3.300500 -18.899300 -13.382800
C -2.571900 -21.252500 -9.636200
C -2.420700 -20.140900 -10.396200
N -2.105900 -19.444100 -13.975800
O -1.939600 -22.811300 -8.088200
O -1.827100 -19.107800 -15.123500
H -1.767200 -19.442000 -10.430000
N -1.651300 -21.759100 -8.659400
O -1.437200 -20.226100 -13.293300
O -0.620100 -21.113000 -8.464000
O -10.692500 -27.859000 -11.415400
O -9.875400 -26.972100 -6.586000
N -9.661300 -28.505100 -11.219900
H -9.545400 -26.188000 -9.449300
O -9.485500 -25.853800 -4.755800
O -9.373000 -29.557300 -11.791100
N -9.206700 -26.190100 -5.903500
C -8.891900 -26.886900 -9.483100
C -8.740700 -27.998500 -10.243200
C -8.012100 -25.645300 -6.496600
N -7.752900 -26.854900 -8.712500
N -7.563700 -28.662700 -9.992000
C -7.455900 -25.928400 -7.702600
N -7.281300 -24.727600 -5.794200
C -6.968600 -27.950000 -9.061000
N -6.332200 -25.149900 -7.754900
C -6.263400 -24.447000 -6.593300
H -5.782000 -25.012800 -8.375800
H -5.770900 -28.272500 -7.444200
C -5.663000 -28.269900 -8.418200
H -5.432600 -22.589700 -6.692000
H -5.360100 -29.153500 -8.715800
C -5.181500 -23.461200 -6.320300
H -5.052000 -23.378900 -5.352200
H -5.000200 -27.595200 -8.672000
H -4.348500 -23.766200 -6.736400
