27
Fragment
H -20.070100 -7.465700 -17.380900
N -19.639800 -6.438400 -19.022500
C -19.588000 -6.771600 -17.767800
H -18.893300 -5.361400 -15.296300
N -18.790500 -5.353300 -19.180800
O -18.778300 -5.360800 -13.069500
N -18.734400 -5.966000 -17.109500
N -18.470500 -5.964400 -15.743600
C -18.273000 -5.089800 -18.025000
C -17.949700 -6.225800 -12.891300
C -17.685200 -6.892100 -15.234600
H -17.673000 -4.400500 -17.851200
O -17.572200 -6.489300 -11.609100
C -17.375000 -7.057100 -13.914000
H -17.304100 -7.493600 -15.832800
H -17.065700 -8.258400 -9.866800
C -16.528700 -8.183400 -13.567500
H -16.426700 -6.908200 -9.389200
C -16.330100 -7.652700 -9.987700
C -16.317600 -7.157200 -11.405000
O -16.233800 -8.317900 -12.241800
O -16.104300 -9.018400 -14.327500
H -15.506800 -8.107900 -9.800700
H -15.243100 -5.936600 -12.625100
H -15.237700 -5.456700 -11.132000
C -15.185300 -6.222100 -11.710100
H -14.350800 -6.673600 -11.568100
27
Fragment
H -22.153200 -5.924300 -11.257000
N -21.722900 -6.951600 -12.898500
C -21.671100 -6.618400 -11.643900
H -20.976400 -8.028600 -9.172400
N -20.873600 -8.036700 -13.056900
O -20.861400 -8.029200 -6.945600
N -20.817500 -7.424000 -10.985600
N -20.553500 -7.425600 -9.619700
C -20.356100 -8.300200 -11.901100
C -20.032700 -7.164200 -6.767400
C -19.768300 -6.497900 -9.110700
H -19.756100 -8.989500 -11.727300
O -19.655300 -6.900700 -5.485200
C -19.458100 -6.332900 -7.790100
H -19.387200 -5.896400 -9.708800
H -19.148800 -5.131600 -3.742900
C -18.611800 -5.206600 -7.443600
H -18.509800 -6.481800 -3.265300
C -18.413200 -5.737300 -3.863800
C -18.400600 -6.232800 -5.281100
O -18.316800 -5.072100 -6.117900
O -18.187400 -4.371600 -8.203600
H -17.589900 -5.282100 -3.676800
H -17.326200 -7.453400 -6.501100
H -17.320700 -7.933300 -5.008100
C -17.268400 -7.167900 -5.586200
H -16.433900 -6.716400 -5.444200
54
Fragment
H -20.070100 -7.465700 -17.380900
N -19.639800 -6.438400 -19.022500
C -19.588000 -6.771600 -17.767800
H -18.893300 -5.361400 -15.296300
N -18.790500 -5.353300 -19.180800
O -18.778300 -5.360800 -13.069500
N -18.734400 -5.966000 -17.109500
N -18.470500 -5.964400 -15.743600
C -18.273000 -5.089800 -18.025000
C -17.949700 -6.225800 -12.891300
C -17.685200 -6.892100 -15.234600
H -17.673000 -4.400500 -17.851200
O -17.572200 -6.489300 -11.609100
C -17.375000 -7.057100 -13.914000
H -17.304100 -7.493600 -15.832800
H -17.065700 -8.258400 -9.866800
C -16.528700 -8.183400 -13.567500
H -16.426700 -6.908200 -9.389200
C -16.330100 -7.652700 -9.987700
C -16.317600 -7.157200 -11.405000
O -16.233800 -8.317900 -12.241800
O -16.104300 -9.018400 -14.327500
H -15.506800 -8.107900 -9.800700
H -15.243100 -5.936600 -12.625100
H -15.237700 -5.456700 -11.132000
C -15.185300 -6.222100 -11.710100
H -14.350800 -6.673600 -11.568100
H -22.153200 -5.924300 -11.257000
N -21.722900 -6.951600 -12.898500
C -21.671100 -6.618400 -11.643900
H -20.976400 -8.028600 -9.172400
N -20.873600 -8.036700 -13.056900
O -20.861400 -8.029200 -6.945600
N -20.817500 -7.424000 -10.985600
N -20.553500 -7.425600 -9.619700
C -20.356100 -8.300200 -11.901100
C -20.032700 -7.164200 -6.767400
C -19.768300 -6.497900 -9.110700
H -19.756100 -8.989500 -11.727300
O -19.655300 -6.900700 -5.485200
C -19.458100 -6.332900 -7.790100
H -19.387200 -5.896400 -9.708800
H -19.148800 -5.131600 -3.742900
C -18.611800 -5.206600 -7.443600
H -18.509800 -6.481800 -3.265300
C -18.413200 -5.737300 -3.863800
C -18.400600 -6.232800 -5.281100
O -18.316800 -5.072100 -6.117900
O -18.187400 -4.371600 -8.203600
H -17.589900 -5.282100 -3.676800
H -17.326200 -7.453400 -6.501100
H -17.320700 -7.933300 -5.008100
C -17.268400 -7.167900 -5.586200
H -16.433900 -6.716400 -5.444200
