27
Fragment
H -20.070100 -7.465700 -17.380900
N -19.639800 -6.438400 -19.022500
C -19.588000 -6.771600 -17.767800
H -18.893300 -5.361400 -15.296300
N -18.790500 -5.353300 -19.180800
O -18.778300 -5.360800 -13.069500
N -18.734400 -5.966000 -17.109500
N -18.470500 -5.964400 -15.743600
C -18.273000 -5.089800 -18.025000
C -17.949700 -6.225800 -12.891300
C -17.685200 -6.892100 -15.234600
H -17.673000 -4.400500 -17.851200
O -17.572200 -6.489300 -11.609100
C -17.375000 -7.057100 -13.914000
H -17.304100 -7.493600 -15.832800
H -17.065700 -8.258400 -9.866800
C -16.528700 -8.183400 -13.567500
H -16.426700 -6.908200 -9.389200
C -16.330100 -7.652700 -9.987700
C -16.317600 -7.157200 -11.405000
O -16.233800 -8.317900 -12.241800
O -16.104300 -9.018400 -14.327500
H -15.506800 -8.107900 -9.800700
H -15.243100 -5.936600 -12.625100
H -15.237700 -5.456700 -11.132000
C -15.185300 -6.222100 -11.710100
H -14.350800 -6.673600 -11.568100
27
Fragment
H -15.423900 -9.351600 -6.803700
C -14.589500 -8.900100 -6.661600
H -14.537100 -8.134700 -7.239700
H -14.531600 -8.614600 -5.746700
H -14.268000 -10.785900 -8.571000
O -13.670500 -11.696400 -4.044200
O -13.541000 -10.995900 -6.129900
C -13.457200 -9.835200 -6.966700
C -13.444700 -10.330700 -8.384000
H -13.348100 -9.586200 -8.982600
C -13.246100 -10.861400 -4.804200
H -12.709000 -10.936400 -8.504900
H -12.470600 -10.171600 -2.539000
C -12.399800 -9.735100 -4.457700
O -12.202600 -9.167300 -6.762600
H -12.101700 -7.078500 -0.520500
C -12.089600 -9.570100 -3.137200
C -11.825100 -8.903800 -5.480400
C -11.501800 -7.767800 -0.346700
N -11.304300 -8.642400 -2.628100
N -11.040300 -8.644000 -1.262300
O -10.996500 -8.038800 -5.302200
N -10.984300 -8.031300 0.809100
H -10.881400 -8.039400 -3.075400
C -10.186800 -9.449600 -0.603900
N -10.135000 -9.116400 0.650700
H -9.704600 -10.143700 -0.990800
54
Fragment
H -20.070100 -7.465700 -17.380900
N -19.639800 -6.438400 -19.022500
C -19.588000 -6.771600 -17.767800
H -18.893300 -5.361400 -15.296300
N -18.790500 -5.353300 -19.180800
O -18.778300 -5.360800 -13.069500
N -18.734400 -5.966000 -17.109500
N -18.470500 -5.964400 -15.743600
C -18.273000 -5.089800 -18.025000
C -17.949700 -6.225800 -12.891300
C -17.685200 -6.892100 -15.234600
H -17.673000 -4.400500 -17.851200
O -17.572200 -6.489300 -11.609100
C -17.375000 -7.057100 -13.914000
H -17.304100 -7.493600 -15.832800
H -17.065700 -8.258400 -9.866800
C -16.528700 -8.183400 -13.567500
H -16.426700 -6.908200 -9.389200
C -16.330100 -7.652700 -9.987700
C -16.317600 -7.157200 -11.405000
O -16.233800 -8.317900 -12.241800
O -16.104300 -9.018400 -14.327500
H -15.506800 -8.107900 -9.800700
H -15.243100 -5.936600 -12.625100
H -15.237700 -5.456700 -11.132000
C -15.185300 -6.222100 -11.710100
H -14.350800 -6.673600 -11.568100
H -15.423900 -9.351600 -6.803700
C -14.589500 -8.900100 -6.661600
H -14.537100 -8.134700 -7.239700
H -14.531600 -8.614600 -5.746700
H -14.268000 -10.785900 -8.571000
O -13.670500 -11.696400 -4.044200
O -13.541000 -10.995900 -6.129900
C -13.457200 -9.835200 -6.966700
C -13.444700 -10.330700 -8.384000
H -13.348100 -9.586200 -8.982600
C -13.246100 -10.861400 -4.804200
H -12.709000 -10.936400 -8.504900
H -12.470600 -10.171600 -2.539000
C -12.399800 -9.735100 -4.457700
O -12.202600 -9.167300 -6.762600
H -12.101700 -7.078500 -0.520500
C -12.089600 -9.570100 -3.137200
C -11.825100 -8.903800 -5.480400
C -11.501800 -7.767800 -0.346700
N -11.304300 -8.642400 -2.628100
N -11.040300 -8.644000 -1.262300
O -10.996500 -8.038800 -5.302200
N -10.984300 -8.031300 0.809100
H -10.881400 -8.039400 -3.075400
C -10.186800 -9.449600 -0.603900
N -10.135000 -9.116400 0.650700
H -9.704600 -10.143700 -0.990800
