27
Fragment
H -20.070100 -7.465700 -17.380900
N -19.639800 -6.438400 -19.022500
C -19.588000 -6.771600 -17.767800
H -18.893300 -5.361400 -15.296300
N -18.790500 -5.353300 -19.180800
O -18.778300 -5.360800 -13.069500
N -18.734400 -5.966000 -17.109500
N -18.470500 -5.964400 -15.743600
C -18.273000 -5.089800 -18.025000
C -17.949700 -6.225800 -12.891300
C -17.685200 -6.892100 -15.234600
H -17.673000 -4.400500 -17.851200
O -17.572200 -6.489300 -11.609100
C -17.375000 -7.057100 -13.914000
H -17.304100 -7.493600 -15.832800
H -17.065700 -8.258400 -9.866800
C -16.528700 -8.183400 -13.567500
H -16.426700 -6.908200 -9.389200
C -16.330100 -7.652700 -9.987700
C -16.317600 -7.157200 -11.405000
O -16.233800 -8.317900 -12.241800
O -16.104300 -9.018400 -14.327500
H -15.506800 -8.107900 -9.800700
H -15.243100 -5.936600 -12.625100
H -15.237700 -5.456700 -11.132000
C -15.185300 -6.222100 -11.710100
H -14.350800 -6.673600 -11.568100
27
Fragment
H -20.070100 -12.821700 -17.380900
N -19.639800 -11.794400 -19.022500
C -19.588000 -12.127600 -17.767800
H -18.893300 -10.717400 -15.296300
N -18.790500 -10.709300 -19.180800
O -18.778300 -10.716800 -13.069500
N -18.734400 -11.322000 -17.109500
N -18.470500 -11.320400 -15.743600
C -18.273000 -10.445800 -18.025000
C -17.949700 -11.581800 -12.891300
C -17.685200 -12.248100 -15.234600
H -17.673000 -9.756500 -17.851200
O -17.572200 -11.845300 -11.609100
C -17.375000 -12.413100 -13.914000
H -17.304100 -12.849600 -15.832800
H -17.065700 -13.614400 -9.866800
C -16.528700 -13.539400 -13.567500
H -16.426700 -12.264200 -9.389200
C -16.330100 -13.008700 -9.987700
C -16.317600 -12.513200 -11.405000
O -16.233800 -13.673900 -12.241800
O -16.104300 -14.374400 -14.327500
H -15.506800 -13.463900 -9.800700
H -15.243100 -11.292600 -12.625100
H -15.237700 -10.812700 -11.132000
C -15.185300 -11.578100 -11.710100
H -14.350800 -12.029600 -11.568100
54
Fragment
H -20.070100 -7.465700 -17.380900
N -19.639800 -6.438400 -19.022500
C -19.588000 -6.771600 -17.767800
H -18.893300 -5.361400 -15.296300
N -18.790500 -5.353300 -19.180800
O -18.778300 -5.360800 -13.069500
N -18.734400 -5.966000 -17.109500
N -18.470500 -5.964400 -15.743600
C -18.273000 -5.089800 -18.025000
C -17.949700 -6.225800 -12.891300
C -17.685200 -6.892100 -15.234600
H -17.673000 -4.400500 -17.851200
O -17.572200 -6.489300 -11.609100
C -17.375000 -7.057100 -13.914000
H -17.304100 -7.493600 -15.832800
H -17.065700 -8.258400 -9.866800
C -16.528700 -8.183400 -13.567500
H -16.426700 -6.908200 -9.389200
C -16.330100 -7.652700 -9.987700
C -16.317600 -7.157200 -11.405000
O -16.233800 -8.317900 -12.241800
O -16.104300 -9.018400 -14.327500
H -15.506800 -8.107900 -9.800700
H -15.243100 -5.936600 -12.625100
H -15.237700 -5.456700 -11.132000
C -15.185300 -6.222100 -11.710100
H -14.350800 -6.673600 -11.568100
H -20.070100 -12.821700 -17.380900
N -19.639800 -11.794400 -19.022500
C -19.588000 -12.127600 -17.767800
H -18.893300 -10.717400 -15.296300
N -18.790500 -10.709300 -19.180800
O -18.778300 -10.716800 -13.069500
N -18.734400 -11.322000 -17.109500
N -18.470500 -11.320400 -15.743600
C -18.273000 -10.445800 -18.025000
C -17.949700 -11.581800 -12.891300
C -17.685200 -12.248100 -15.234600
H -17.673000 -9.756500 -17.851200
O -17.572200 -11.845300 -11.609100
C -17.375000 -12.413100 -13.914000
H -17.304100 -12.849600 -15.832800
H -17.065700 -13.614400 -9.866800
C -16.528700 -13.539400 -13.567500
H -16.426700 -12.264200 -9.389200
C -16.330100 -13.008700 -9.987700
C -16.317600 -12.513200 -11.405000
O -16.233800 -13.673900 -12.241800
O -16.104300 -14.374400 -14.327500
H -15.506800 -13.463900 -9.800700
H -15.243100 -11.292600 -12.625100
H -15.237700 -10.812700 -11.132000
C -15.185300 -11.578100 -11.710100
H -14.350800 -12.029600 -11.568100
