27
Fragment
H -20.070100 -7.465700 -17.380900
N -19.639800 -6.438400 -19.022500
C -19.588000 -6.771600 -17.767800
H -18.893300 -5.361400 -15.296300
N -18.790500 -5.353300 -19.180800
O -18.778300 -5.360800 -13.069500
N -18.734400 -5.966000 -17.109500
N -18.470500 -5.964400 -15.743600
C -18.273000 -5.089800 -18.025000
C -17.949700 -6.225800 -12.891300
C -17.685200 -6.892100 -15.234600
H -17.673000 -4.400500 -17.851200
O -17.572200 -6.489300 -11.609100
C -17.375000 -7.057100 -13.914000
H -17.304100 -7.493600 -15.832800
H -17.065700 -8.258400 -9.866800
C -16.528700 -8.183400 -13.567500
H -16.426700 -6.908200 -9.389200
C -16.330100 -7.652700 -9.987700
C -16.317600 -7.157200 -11.405000
O -16.233800 -8.317900 -12.241800
O -16.104300 -9.018400 -14.327500
H -15.506800 -8.107900 -9.800700
H -15.243100 -5.936600 -12.625100
H -15.237700 -5.456700 -11.132000
C -15.185300 -6.222100 -11.710100
H -14.350800 -6.673600 -11.568100
27
Fragment
H -17.987000 -0.568300 -23.504800
N -17.556700 -1.595600 -25.146400
C -17.504900 -1.262400 -23.891700
H -16.810300 -2.672600 -21.420200
N -16.707400 -2.680700 -25.304700
O -16.695200 -2.673200 -19.193400
N -16.651400 -2.068000 -23.233400
N -16.387400 -2.069600 -21.867500
C -16.189900 -2.944200 -24.148900
C -15.866600 -1.808200 -19.015200
C -15.602100 -1.141900 -21.358500
H -15.590000 -3.633500 -23.975100
O -15.489100 -1.544700 -17.733000
C -15.291900 -0.976900 -20.037900
H -15.221000 -0.540400 -21.956700
H -14.982700 0.224400 -15.990800
C -14.445600 0.149400 -19.691400
H -14.343600 -1.125800 -15.513100
C -14.247000 -0.381300 -16.111600
C -14.234500 -0.876800 -17.529000
O -14.150700 0.283900 -18.365700
O -14.021200 0.984400 -20.451400
H -13.423700 0.073900 -15.924600
H -13.160100 -2.097400 -18.749000
H -13.154600 -2.577300 -17.256000
C -13.102200 -1.811900 -17.834100
H -12.267800 -1.360400 -17.692000
54
Fragment
H -20.070100 -7.465700 -17.380900
N -19.639800 -6.438400 -19.022500
C -19.588000 -6.771600 -17.767800
H -18.893300 -5.361400 -15.296300
N -18.790500 -5.353300 -19.180800
O -18.778300 -5.360800 -13.069500
N -18.734400 -5.966000 -17.109500
N -18.470500 -5.964400 -15.743600
C -18.273000 -5.089800 -18.025000
C -17.949700 -6.225800 -12.891300
C -17.685200 -6.892100 -15.234600
H -17.673000 -4.400500 -17.851200
O -17.572200 -6.489300 -11.609100
C -17.375000 -7.057100 -13.914000
H -17.304100 -7.493600 -15.832800
H -17.065700 -8.258400 -9.866800
C -16.528700 -8.183400 -13.567500
H -16.426700 -6.908200 -9.389200
C -16.330100 -7.652700 -9.987700
C -16.317600 -7.157200 -11.405000
O -16.233800 -8.317900 -12.241800
O -16.104300 -9.018400 -14.327500
H -15.506800 -8.107900 -9.800700
H -15.243100 -5.936600 -12.625100
H -15.237700 -5.456700 -11.132000
C -15.185300 -6.222100 -11.710100
H -14.350800 -6.673600 -11.568100
H -17.987000 -0.568300 -23.504800
N -17.556700 -1.595600 -25.146400
C -17.504900 -1.262400 -23.891700
H -16.810300 -2.672600 -21.420200
N -16.707400 -2.680700 -25.304700
O -16.695200 -2.673200 -19.193400
N -16.651400 -2.068000 -23.233400
N -16.387400 -2.069600 -21.867500
C -16.189900 -2.944200 -24.148900
C -15.866600 -1.808200 -19.015200
C -15.602100 -1.141900 -21.358500
H -15.590000 -3.633500 -23.975100
O -15.489100 -1.544700 -17.733000
C -15.291900 -0.976900 -20.037900
H -15.221000 -0.540400 -21.956700
H -14.982700 0.224400 -15.990800
C -14.445600 0.149400 -19.691400
H -14.343600 -1.125800 -15.513100
C -14.247000 -0.381300 -16.111600
C -14.234500 -0.876800 -17.529000
O -14.150700 0.283900 -18.365700
O -14.021200 0.984400 -20.451400
H -13.423700 0.073900 -15.924600
H -13.160100 -2.097400 -18.749000
H -13.154600 -2.577300 -17.256000
C -13.102200 -1.811900 -17.834100
H -12.267800 -1.360400 -17.692000
