17
Fragment
O -5.800800 -25.359100 -15.075700
O -5.253000 -27.357300 -15.756500
H -5.229100 -23.267600 -15.356900
N -5.060600 -26.110800 -15.740900
N -4.524900 -23.201200 -15.912100
C -4.031100 -25.587000 -16.485800
N -4.014600 -21.998900 -16.276400
C -3.849700 -24.186500 -16.514000
H -3.697600 -28.315800 -16.999200
N -3.196200 -27.767800 -17.383800
C -3.188800 -26.441600 -17.271100
N -3.047100 -22.197400 -17.082300
N -2.923600 -23.531900 -17.239900
H -2.318000 -23.890000 -17.811000
N -2.229300 -25.965400 -18.063100
N -2.227000 -28.139200 -18.248600
N -1.660200 -27.046300 -18.642400
17
Fragment
O -10.688100 -25.359100 -15.075700
O -10.140300 -27.357300 -15.756500
H -10.116400 -23.267600 -15.356900
N -9.947900 -26.110800 -15.740900
N -9.412200 -23.201200 -15.912100
C -8.918400 -25.587000 -16.485800
N -8.901900 -21.998900 -16.276400
C -8.737000 -24.186500 -16.514000
H -8.584900 -28.315800 -16.999200
N -8.083500 -27.767800 -17.383800
C -8.076100 -26.441600 -17.271100
N -7.934400 -22.197400 -17.082300
N -7.810900 -23.531900 -17.239900
H -7.205300 -23.890000 -17.811000
N -7.116600 -25.965400 -18.063100
N -7.114300 -28.139200 -18.248600
N -6.547500 -27.046300 -18.642400
34
Fragment
O -5.800800 -25.359100 -15.075700
O -5.253000 -27.357300 -15.756500
H -5.229100 -23.267600 -15.356900
N -5.060600 -26.110800 -15.740900
N -4.524900 -23.201200 -15.912100
C -4.031100 -25.587000 -16.485800
N -4.014600 -21.998900 -16.276400
C -3.849700 -24.186500 -16.514000
H -3.697600 -28.315800 -16.999200
N -3.196200 -27.767800 -17.383800
C -3.188800 -26.441600 -17.271100
N -3.047100 -22.197400 -17.082300
N -2.923600 -23.531900 -17.239900
H -2.318000 -23.890000 -17.811000
N -2.229300 -25.965400 -18.063100
N -2.227000 -28.139200 -18.248600
N -1.660200 -27.046300 -18.642400
O -10.688100 -25.359100 -15.075700
O -10.140300 -27.357300 -15.756500
H -10.116400 -23.267600 -15.356900
N -9.947900 -26.110800 -15.740900
N -9.412200 -23.201200 -15.912100
C -8.918400 -25.587000 -16.485800
N -8.901900 -21.998900 -16.276400
C -8.737000 -24.186500 -16.514000
H -8.584900 -28.315800 -16.999200
N -8.083500 -27.767800 -17.383800
C -8.076100 -26.441600 -17.271100
N -7.934400 -22.197400 -17.082300
N -7.810900 -23.531900 -17.239900
H -7.205300 -23.890000 -17.811000
N -7.116600 -25.965400 -18.063100
N -7.114300 -28.139200 -18.248600
N -6.547500 -27.046300 -18.642400
