17
Fragment
O -5.800800 -25.359100 -15.075700
O -5.253000 -27.357300 -15.756500
H -5.229100 -23.267600 -15.356900
N -5.060600 -26.110800 -15.740900
N -4.524900 -23.201200 -15.912100
C -4.031100 -25.587000 -16.485800
N -4.014600 -21.998900 -16.276400
C -3.849700 -24.186500 -16.514000
H -3.697600 -28.315800 -16.999200
N -3.196200 -27.767800 -17.383800
C -3.188800 -26.441600 -17.271100
N -3.047100 -22.197400 -17.082300
N -2.923600 -23.531900 -17.239900
H -2.318000 -23.890000 -17.811000
N -2.229300 -25.965400 -18.063100
N -2.227000 -28.139200 -18.248600
N -1.660200 -27.046300 -18.642400
17
Fragment
N -5.659400 -23.553800 -19.112700
N -5.092700 -22.460900 -19.506500
N -5.090300 -24.634700 -19.692000
H -5.001700 -26.710100 -19.944100
N -4.396000 -27.068200 -20.515200
N -4.272500 -28.402700 -20.672800
C -4.130800 -24.158500 -20.484000
N -4.123400 -22.832300 -20.371300
H -3.622000 -22.284300 -20.755900
C -3.470000 -26.413600 -21.241100
N -3.305000 -28.601200 -21.478700
C -3.288500 -25.013100 -21.269300
N -2.794800 -27.398900 -21.843000
N -2.259100 -24.489300 -22.014200
H -2.090500 -27.332500 -22.398200
O -2.066600 -23.242800 -21.998600
O -1.518800 -25.241000 -22.679400
34
Fragment
O -5.800800 -25.359100 -15.075700
O -5.253000 -27.357300 -15.756500
H -5.229100 -23.267600 -15.356900
N -5.060600 -26.110800 -15.740900
N -4.524900 -23.201200 -15.912100
C -4.031100 -25.587000 -16.485800
N -4.014600 -21.998900 -16.276400
C -3.849700 -24.186500 -16.514000
H -3.697600 -28.315800 -16.999200
N -3.196200 -27.767800 -17.383800
C -3.188800 -26.441600 -17.271100
N -3.047100 -22.197400 -17.082300
N -2.923600 -23.531900 -17.239900
H -2.318000 -23.890000 -17.811000
N -2.229300 -25.965400 -18.063100
N -2.227000 -28.139200 -18.248600
N -1.660200 -27.046300 -18.642400
N -5.659400 -23.553800 -19.112700
N -5.092700 -22.460900 -19.506500
N -5.090300 -24.634700 -19.692000
H -5.001700 -26.710100 -19.944100
N -4.396000 -27.068200 -20.515200
N -4.272500 -28.402700 -20.672800
C -4.130800 -24.158500 -20.484000
N -4.123400 -22.832300 -20.371300
H -3.622000 -22.284300 -20.755900
C -3.470000 -26.413600 -21.241100
N -3.305000 -28.601200 -21.478700
C -3.288500 -25.013100 -21.269300
N -2.794800 -27.398900 -21.843000
N -2.259100 -24.489300 -22.014200
H -2.090500 -27.332500 -22.398200
O -2.066600 -23.242800 -21.998600
O -1.518800 -25.241000 -22.679400
