13
Fragment
H -3.391400 -15.248500 -20.977800
H -3.013500 -10.732500 -21.590600
N -2.606500 -13.623600 -21.041700
O -2.579500 -15.001500 -20.783600
C -2.078300 -10.653900 -21.453700
H -1.535700 -8.592700 -21.577600
C -1.433300 -13.123000 -20.983000
C -1.286400 -9.537300 -21.495400
C -1.192400 -11.711500 -21.185100
H -0.686500 -13.621400 -20.730100
N -0.020500 -9.928300 -21.269900
N 0.074300 -11.259100 -21.065200
H 0.596800 -9.407100 -21.329800
13
Fragment
H -0.317100 -12.835800 -24.393700
N 0.389800 -10.857600 -24.531900
N 0.488500 -12.200100 -24.428900
H 1.216600 -8.498100 -24.615400
C 1.660000 -10.412100 -24.415900
C 1.763300 -12.602100 -24.262000
C 1.891600 -8.987500 -24.517600
H 2.013300 -13.497600 -24.159000
C 2.554800 -11.481200 -24.237300
O 3.016100 -7.091500 -24.661000
N 3.066600 -8.480700 -24.477200
H 3.480800 -11.448900 -24.106900
H 3.939500 -6.808500 -24.550200
26
Fragment
H -3.391400 -15.248500 -20.977800
H -3.013500 -10.732500 -21.590600
N -2.606500 -13.623600 -21.041700
O -2.579500 -15.001500 -20.783600
C -2.078300 -10.653900 -21.453700
H -1.535700 -8.592700 -21.577600
C -1.433300 -13.123000 -20.983000
C -1.286400 -9.537300 -21.495400
C -1.192400 -11.711500 -21.185100
H -0.686500 -13.621400 -20.730100
N -0.020500 -9.928300 -21.269900
N 0.074300 -11.259100 -21.065200
H 0.596800 -9.407100 -21.329800
H -0.317100 -12.835800 -24.393700
N 0.389800 -10.857600 -24.531900
N 0.488500 -12.200100 -24.428900
H 1.216600 -8.498100 -24.615400
C 1.660000 -10.412100 -24.415900
C 1.763300 -12.602100 -24.262000
C 1.891600 -8.987500 -24.517600
H 2.013300 -13.497600 -24.159000
C 2.554800 -11.481200 -24.237300
O 3.016100 -7.091500 -24.661000
N 3.066600 -8.480700 -24.477200
H 3.480800 -11.448900 -24.106900
H 3.939500 -6.808500 -24.550200
