13
Fragment
H -3.391400 -15.248500 -20.977800
H -3.013500 -10.732500 -21.590600
N -2.606500 -13.623600 -21.041700
O -2.579500 -15.001500 -20.783600
C -2.078300 -10.653900 -21.453700
H -1.535700 -8.592700 -21.577600
C -1.433300 -13.123000 -20.983000
C -1.286400 -9.537300 -21.495400
C -1.192400 -11.711500 -21.185100
H -0.686500 -13.621400 -20.730100
N -0.020500 -9.928300 -21.269900
N 0.074300 -11.259100 -21.065200
H 0.596800 -9.407100 -21.329800
13
Fragment
H 0.787900 -10.771600 -17.809600
O 1.519000 -11.360400 -17.692300
N 2.691900 -10.629700 -17.915200
H 3.624500 -12.320700 -17.640100
C 3.716400 -11.398400 -17.884000
H 5.012900 -8.770100 -18.448500
C 5.059400 -10.869400 -18.078200
C 5.515000 -9.566300 -18.355900
N 6.092000 -11.724100 -17.985600
C 6.875600 -9.676500 -18.425000
N 7.189800 -10.971200 -18.206000
H 7.614000 -9.027400 -18.552800
H 8.157000 -11.296100 -18.187700
26
Fragment
H -3.391400 -15.248500 -20.977800
H -3.013500 -10.732500 -21.590600
N -2.606500 -13.623600 -21.041700
O -2.579500 -15.001500 -20.783600
C -2.078300 -10.653900 -21.453700
H -1.535700 -8.592700 -21.577600
C -1.433300 -13.123000 -20.983000
C -1.286400 -9.537300 -21.495400
C -1.192400 -11.711500 -21.185100
H -0.686500 -13.621400 -20.730100
N -0.020500 -9.928300 -21.269900
N 0.074300 -11.259100 -21.065200
H 0.596800 -9.407100 -21.329800
H 0.787900 -10.771600 -17.809600
O 1.519000 -11.360400 -17.692300
N 2.691900 -10.629700 -17.915200
H 3.624500 -12.320700 -17.640100
C 3.716400 -11.398400 -17.884000
H 5.012900 -8.770100 -18.448500
C 5.059400 -10.869400 -18.078200
C 5.515000 -9.566300 -18.355900
N 6.092000 -11.724100 -17.985600
C 6.875600 -9.676500 -18.425000
N 7.189800 -10.971200 -18.206000
H 7.614000 -9.027400 -18.552800
H 8.157000 -11.296100 -18.187700
