13
Fragment
H -3.391400 -15.248500 -20.977800
H -3.013500 -10.732500 -21.590600
N -2.606500 -13.623600 -21.041700
O -2.579500 -15.001500 -20.783600
C -2.078300 -10.653900 -21.453700
H -1.535700 -8.592700 -21.577600
C -1.433300 -13.123000 -20.983000
C -1.286400 -9.537300 -21.495400
C -1.192400 -11.711500 -21.185100
H -0.686500 -13.621400 -20.730100
N -0.020500 -9.928300 -21.269900
N 0.074300 -11.259100 -21.065200
H 0.596800 -9.407100 -21.329800
13
Fragment
H -11.550100 -12.133800 -20.925700
H -11.007000 -14.402500 -20.560600
N -10.582900 -12.458800 -20.907400
C -10.268700 -13.753500 -20.688400
N -9.485100 -11.705800 -21.127800
C -8.908000 -13.863700 -20.757500
C -8.452500 -12.560500 -21.035200
H -8.406000 -14.659900 -20.664900
C -7.109500 -12.031500 -21.229500
H -7.017600 -11.109300 -21.473300
N -6.085000 -12.800300 -21.198200
O -4.912100 -12.069500 -21.421100
H -4.181000 -12.658300 -21.303800
26
Fragment
H -3.391400 -15.248500 -20.977800
H -3.013500 -10.732500 -21.590600
N -2.606500 -13.623600 -21.041700
O -2.579500 -15.001500 -20.783600
C -2.078300 -10.653900 -21.453700
H -1.535700 -8.592700 -21.577600
C -1.433300 -13.123000 -20.983000
C -1.286400 -9.537300 -21.495400
C -1.192400 -11.711500 -21.185100
H -0.686500 -13.621400 -20.730100
N -0.020500 -9.928300 -21.269900
N 0.074300 -11.259100 -21.065200
H 0.596800 -9.407100 -21.329800
H -11.550100 -12.133800 -20.925700
H -11.007000 -14.402500 -20.560600
N -10.582900 -12.458800 -20.907400
C -10.268700 -13.753500 -20.688400
N -9.485100 -11.705800 -21.127800
C -8.908000 -13.863700 -20.757500
C -8.452500 -12.560500 -21.035200
H -8.406000 -14.659900 -20.664900
C -7.109500 -12.031500 -21.229500
H -7.017600 -11.109300 -21.473300
N -6.085000 -12.800300 -21.198200
O -4.912100 -12.069500 -21.421100
H -4.181000 -12.658300 -21.303800
