13
Fragment
H -3.391400 -15.248500 -20.977800
H -3.013500 -10.732500 -21.590600
N -2.606500 -13.623600 -21.041700
O -2.579500 -15.001500 -20.783600
C -2.078300 -10.653900 -21.453700
H -1.535700 -8.592700 -21.577600
C -1.433300 -13.123000 -20.983000
C -1.286400 -9.537300 -21.495400
C -1.192400 -11.711500 -21.185100
H -0.686500 -13.621400 -20.730100
N -0.020500 -9.928300 -21.269900
N 0.074300 -11.259100 -21.065200
H 0.596800 -9.407100 -21.329800
13
Fragment
H -8.440300 -9.401800 -24.172100
O -7.817100 -9.971200 -23.947800
N -6.657600 -9.270600 -24.312900
H -5.691500 -10.898700 -24.106900
C -5.630700 -10.026900 -24.293300
H -4.394900 -7.434000 -25.058700
C -4.308900 -9.514300 -24.604900
C -3.870700 -8.228000 -24.970000
N -3.272600 -10.372000 -24.538400
C -2.512200 -8.356900 -25.103000
N -2.186400 -9.632500 -24.850000
H -1.855700 -7.730900 -25.267300
H -1.437300 -10.036600 -24.810900
26
Fragment
H -3.391400 -15.248500 -20.977800
H -3.013500 -10.732500 -21.590600
N -2.606500 -13.623600 -21.041700
O -2.579500 -15.001500 -20.783600
C -2.078300 -10.653900 -21.453700
H -1.535700 -8.592700 -21.577600
C -1.433300 -13.123000 -20.983000
C -1.286400 -9.537300 -21.495400
C -1.192400 -11.711500 -21.185100
H -0.686500 -13.621400 -20.730100
N -0.020500 -9.928300 -21.269900
N 0.074300 -11.259100 -21.065200
H 0.596800 -9.407100 -21.329800
H -8.440300 -9.401800 -24.172100
O -7.817100 -9.971200 -23.947800
N -6.657600 -9.270600 -24.312900
H -5.691500 -10.898700 -24.106900
C -5.630700 -10.026900 -24.293300
H -4.394900 -7.434000 -25.058700
C -4.308900 -9.514300 -24.604900
C -3.870700 -8.228000 -24.970000
N -3.272600 -10.372000 -24.538400
C -2.512200 -8.356900 -25.103000
N -2.186400 -9.632500 -24.850000
H -1.855700 -7.730900 -25.267300
H -1.437300 -10.036600 -24.810900
