35
Fragment
H -22.914000 -21.830700 -20.837800
N -22.331900 -21.706400 -26.725400
C -22.276600 -21.189400 -21.129600
H -22.157700 -21.494000 -23.165900
N -21.931400 -21.252800 -25.509300
C -21.863600 -21.005800 -22.405500
H -21.694600 -20.164700 -19.361000
N -21.642600 -21.170800 -27.682200
C -21.591700 -20.258700 -20.301500
C -20.948300 -20.394900 -25.765900
N -20.930000 -19.972700 -22.404700
C -20.769900 -19.532700 -21.087600
N -20.760700 -20.340700 -27.089700
H -20.243700 -19.824600 -27.629100
C -20.202400 -19.490400 -23.473200
H -20.185400 -18.843100 -20.797000
C -20.163500 -19.618100 -24.824900
O -19.203300 -18.628700 -23.103500
N -19.114000 -18.830400 -25.321000
C -18.582500 -18.278700 -24.277600
H -17.501800 -17.191500 -22.121900
C -17.435200 -17.385200 -24.164200
C -17.025800 -16.927500 -22.900700
H -17.013300 -17.271000 -26.147400
C -16.736200 -16.969800 -25.289400
C -15.931900 -16.094000 -22.791900
H -15.649200 -15.799600 -21.934100
C -15.637500 -16.120300 -25.187600
C -15.238400 -15.681100 -23.923400
H -15.167900 -15.843600 -25.966000
O -14.173200 -14.855300 -23.691600
H -13.971100 -13.934800 -25.440000
C -13.402600 -14.445800 -24.826400
H -13.054700 -15.237800 -25.286400
H -12.656100 -13.884800 -24.530000
35
Fragment
H -33.335300 -9.654200 -16.312500
H -32.936700 -11.007200 -15.556100
C -32.588800 -10.215200 -16.016100
H -32.020300 -9.704200 -15.402500
O -31.818200 -10.624700 -17.150900
H -30.823500 -11.613000 -14.876500
C -30.753000 -11.450500 -16.919100
C -30.353900 -11.889700 -15.654900
H -30.342200 -11.569000 -18.908400
C -30.059500 -11.863400 -18.050600
C -29.255200 -12.739200 -15.553200
H -28.978100 -13.040400 -14.695100
C -28.965600 -12.696900 -17.941800
C -28.556200 -13.154600 -16.678300
H -28.489700 -12.960900 -18.720600
C -27.409000 -14.048100 -16.564900
N -26.877400 -14.599800 -15.521500
O -26.788100 -14.398100 -17.739000
C -25.828000 -15.387500 -16.017600
H -25.806100 -14.612500 -20.045500
C -25.789000 -15.259800 -17.369300
H -25.747800 -15.594000 -13.213400
N -25.230700 -16.110100 -13.752800
C -25.221500 -15.302100 -19.754900
N -25.061400 -15.742100 -18.437800
C -25.043200 -16.164300 -15.076600
C -24.399800 -16.028100 -20.541000
N -24.348800 -16.940200 -13.160300
H -24.296800 -15.934100 -21.481500
C -24.127900 -16.775200 -18.437000
N -24.060100 -17.022200 -15.333300
H -23.833800 -17.263400 -17.676600
C -23.714900 -16.958800 -19.712900
N -23.659500 -17.475800 -14.117100
H -23.077400 -17.600100 -20.004700
70
Fragment
H -22.914000 -21.830700 -20.837800
N -22.331900 -21.706400 -26.725400
C -22.276600 -21.189400 -21.129600
H -22.157700 -21.494000 -23.165900
N -21.931400 -21.252800 -25.509300
C -21.863600 -21.005800 -22.405500
H -21.694600 -20.164700 -19.361000
N -21.642600 -21.170800 -27.682200
C -21.591700 -20.258700 -20.301500
C -20.948300 -20.394900 -25.765900
N -20.930000 -19.972700 -22.404700
C -20.769900 -19.532700 -21.087600
N -20.760700 -20.340700 -27.089700
H -20.243700 -19.824600 -27.629100
C -20.202400 -19.490400 -23.473200
H -20.185400 -18.843100 -20.797000
C -20.163500 -19.618100 -24.824900
O -19.203300 -18.628700 -23.103500
N -19.114000 -18.830400 -25.321000
C -18.582500 -18.278700 -24.277600
H -17.501800 -17.191500 -22.121900
C -17.435200 -17.385200 -24.164200
C -17.025800 -16.927500 -22.900700
H -17.013300 -17.271000 -26.147400
C -16.736200 -16.969800 -25.289400
C -15.931900 -16.094000 -22.791900
H -15.649200 -15.799600 -21.934100
C -15.637500 -16.120300 -25.187600
C -15.238400 -15.681100 -23.923400
H -15.167900 -15.843600 -25.966000
O -14.173200 -14.855300 -23.691600
H -13.971100 -13.934800 -25.440000
C -13.402600 -14.445800 -24.826400
H -13.054700 -15.237800 -25.286400
H -12.656100 -13.884800 -24.530000
H -33.335300 -9.654200 -16.312500
H -32.936700 -11.007200 -15.556100
C -32.588800 -10.215200 -16.016100
H -32.020300 -9.704200 -15.402500
O -31.818200 -10.624700 -17.150900
H -30.823500 -11.613000 -14.876500
C -30.753000 -11.450500 -16.919100
C -30.353900 -11.889700 -15.654900
H -30.342200 -11.569000 -18.908400
C -30.059500 -11.863400 -18.050600
C -29.255200 -12.739200 -15.553200
H -28.978100 -13.040400 -14.695100
C -28.965600 -12.696900 -17.941800
C -28.556200 -13.154600 -16.678300
H -28.489700 -12.960900 -18.720600
C -27.409000 -14.048100 -16.564900
N -26.877400 -14.599800 -15.521500
O -26.788100 -14.398100 -17.739000
C -25.828000 -15.387500 -16.017600
H -25.806100 -14.612500 -20.045500
C -25.789000 -15.259800 -17.369300
H -25.747800 -15.594000 -13.213400
N -25.230700 -16.110100 -13.752800
C -25.221500 -15.302100 -19.754900
N -25.061400 -15.742100 -18.437800
C -25.043200 -16.164300 -15.076600
C -24.399800 -16.028100 -20.541000
N -24.348800 -16.940200 -13.160300
H -24.296800 -15.934100 -21.481500
C -24.127900 -16.775200 -18.437000
N -24.060100 -17.022200 -15.333300
H -23.833800 -17.263400 -17.676600
C -23.714900 -16.958800 -19.712900
N -23.659500 -17.475800 -14.117100
H -23.077400 -17.600100 -20.004700
