35
Fragment
H -22.914000 -21.830700 -20.837800
N -22.331900 -21.706400 -26.725400
C -22.276600 -21.189400 -21.129600
H -22.157700 -21.494000 -23.165900
N -21.931400 -21.252800 -25.509300
C -21.863600 -21.005800 -22.405500
H -21.694600 -20.164700 -19.361000
N -21.642600 -21.170800 -27.682200
C -21.591700 -20.258700 -20.301500
C -20.948300 -20.394900 -25.765900
N -20.930000 -19.972700 -22.404700
C -20.769900 -19.532700 -21.087600
N -20.760700 -20.340700 -27.089700
H -20.243700 -19.824600 -27.629100
C -20.202400 -19.490400 -23.473200
H -20.185400 -18.843100 -20.797000
C -20.163500 -19.618100 -24.824900
O -19.203300 -18.628700 -23.103500
N -19.114000 -18.830400 -25.321000
C -18.582500 -18.278700 -24.277600
H -17.501800 -17.191500 -22.121900
C -17.435200 -17.385200 -24.164200
C -17.025800 -16.927500 -22.900700
H -17.013300 -17.271000 -26.147400
C -16.736200 -16.969800 -25.289400
C -15.931900 -16.094000 -22.791900
H -15.649200 -15.799600 -21.934100
C -15.637500 -16.120300 -25.187600
C -15.238400 -15.681100 -23.923400
H -15.167900 -15.843600 -25.966000
O -14.173200 -14.855300 -23.691600
H -13.971100 -13.934800 -25.440000
C -13.402600 -14.445800 -24.826400
H -13.054700 -15.237800 -25.286400
H -12.656100 -13.884800 -24.530000
35
Fragment
H -27.493000 -16.244700 -29.006300
N -26.910900 -16.369000 -34.893900
C -26.855600 -16.886000 -29.298100
H -26.736700 -16.581400 -31.334400
N -26.510400 -16.822600 -33.677800
C -26.442600 -17.069600 -30.574000
H -26.273700 -17.910700 -27.529500
N -26.221600 -16.904600 -35.850700
C -26.170700 -17.816700 -28.470000
C -25.527300 -17.680500 -33.934400
N -25.509100 -18.102700 -30.573200
C -25.349000 -18.542700 -29.256100
N -25.339800 -17.734700 -35.258200
H -24.822700 -18.250800 -35.797600
C -24.781500 -18.585000 -31.641700
H -24.764400 -19.232300 -28.965500
C -24.742500 -18.457300 -32.993400
O -23.782400 -19.446700 -31.272000
N -23.693100 -19.245000 -33.489500
C -23.161500 -19.796700 -32.446100
H -22.080800 -20.883900 -30.290400
C -22.014300 -20.690200 -32.332700
C -21.604800 -21.147900 -31.069200
H -21.592400 -20.804400 -34.315900
C -21.315200 -21.105600 -33.457900
C -20.511000 -21.981400 -30.960400
H -20.228300 -22.275800 -30.102600
C -20.216500 -21.955100 -33.356100
C -19.817500 -22.394300 -32.091900
H -19.747000 -22.231800 -34.134500
O -18.752200 -23.220100 -31.860100
H -18.550200 -24.140600 -33.608500
C -17.981700 -23.629600 -32.994900
H -17.633800 -22.837600 -33.454900
H -17.235200 -24.190600 -32.698500
70
Fragment
H -22.914000 -21.830700 -20.837800
N -22.331900 -21.706400 -26.725400
C -22.276600 -21.189400 -21.129600
H -22.157700 -21.494000 -23.165900
N -21.931400 -21.252800 -25.509300
C -21.863600 -21.005800 -22.405500
H -21.694600 -20.164700 -19.361000
N -21.642600 -21.170800 -27.682200
C -21.591700 -20.258700 -20.301500
C -20.948300 -20.394900 -25.765900
N -20.930000 -19.972700 -22.404700
C -20.769900 -19.532700 -21.087600
N -20.760700 -20.340700 -27.089700
H -20.243700 -19.824600 -27.629100
C -20.202400 -19.490400 -23.473200
H -20.185400 -18.843100 -20.797000
C -20.163500 -19.618100 -24.824900
O -19.203300 -18.628700 -23.103500
N -19.114000 -18.830400 -25.321000
C -18.582500 -18.278700 -24.277600
H -17.501800 -17.191500 -22.121900
C -17.435200 -17.385200 -24.164200
C -17.025800 -16.927500 -22.900700
H -17.013300 -17.271000 -26.147400
C -16.736200 -16.969800 -25.289400
C -15.931900 -16.094000 -22.791900
H -15.649200 -15.799600 -21.934100
C -15.637500 -16.120300 -25.187600
C -15.238400 -15.681100 -23.923400
H -15.167900 -15.843600 -25.966000
O -14.173200 -14.855300 -23.691600
H -13.971100 -13.934800 -25.440000
C -13.402600 -14.445800 -24.826400
H -13.054700 -15.237800 -25.286400
H -12.656100 -13.884800 -24.530000
H -27.493000 -16.244700 -29.006300
N -26.910900 -16.369000 -34.893900
C -26.855600 -16.886000 -29.298100
H -26.736700 -16.581400 -31.334400
N -26.510400 -16.822600 -33.677800
C -26.442600 -17.069600 -30.574000
H -26.273700 -17.910700 -27.529500
N -26.221600 -16.904600 -35.850700
C -26.170700 -17.816700 -28.470000
C -25.527300 -17.680500 -33.934400
N -25.509100 -18.102700 -30.573200
C -25.349000 -18.542700 -29.256100
N -25.339800 -17.734700 -35.258200
H -24.822700 -18.250800 -35.797600
C -24.781500 -18.585000 -31.641700
H -24.764400 -19.232300 -28.965500
C -24.742500 -18.457300 -32.993400
O -23.782400 -19.446700 -31.272000
N -23.693100 -19.245000 -33.489500
C -23.161500 -19.796700 -32.446100
H -22.080800 -20.883900 -30.290400
C -22.014300 -20.690200 -32.332700
C -21.604800 -21.147900 -31.069200
H -21.592400 -20.804400 -34.315900
C -21.315200 -21.105600 -33.457900
C -20.511000 -21.981400 -30.960400
H -20.228300 -22.275800 -30.102600
C -20.216500 -21.955100 -33.356100
C -19.817500 -22.394300 -32.091900
H -19.747000 -22.231800 -34.134500
O -18.752200 -23.220100 -31.860100
H -18.550200 -24.140600 -33.608500
C -17.981700 -23.629600 -32.994900
H -17.633800 -22.837600 -33.454900
H -17.235200 -24.190600 -32.698500
