35
Fragment
H -22.914000 -21.830700 -20.837800
N -22.331900 -21.706400 -26.725400
C -22.276600 -21.189400 -21.129600
H -22.157700 -21.494000 -23.165900
N -21.931400 -21.252800 -25.509300
C -21.863600 -21.005800 -22.405500
H -21.694600 -20.164700 -19.361000
N -21.642600 -21.170800 -27.682200
C -21.591700 -20.258700 -20.301500
C -20.948300 -20.394900 -25.765900
N -20.930000 -19.972700 -22.404700
C -20.769900 -19.532700 -21.087600
N -20.760700 -20.340700 -27.089700
H -20.243700 -19.824600 -27.629100
C -20.202400 -19.490400 -23.473200
H -20.185400 -18.843100 -20.797000
C -20.163500 -19.618100 -24.824900
O -19.203300 -18.628700 -23.103500
N -19.114000 -18.830400 -25.321000
C -18.582500 -18.278700 -24.277600
H -17.501800 -17.191500 -22.121900
C -17.435200 -17.385200 -24.164200
C -17.025800 -16.927500 -22.900700
H -17.013300 -17.271000 -26.147400
C -16.736200 -16.969800 -25.289400
C -15.931900 -16.094000 -22.791900
H -15.649200 -15.799600 -21.934100
C -15.637500 -16.120300 -25.187600
C -15.238400 -15.681100 -23.923400
H -15.167900 -15.843600 -25.966000
O -14.173200 -14.855300 -23.691600
H -13.971100 -13.934800 -25.440000
C -13.402600 -14.445800 -24.826400
H -13.054700 -15.237800 -25.286400
H -12.656100 -13.884800 -24.530000
35
Fragment
H -21.787200 -9.654200 -16.312500
H -21.388600 -11.007200 -15.556100
C -21.040700 -10.215200 -16.016100
H -20.472200 -9.704200 -15.402500
O -20.270100 -10.624700 -17.150900
H -19.275400 -11.613000 -14.876500
C -19.204900 -11.450500 -16.919100
C -18.805800 -11.889700 -15.654900
H -18.794100 -11.569000 -18.908400
C -18.511400 -11.863400 -18.050600
C -17.707100 -12.739200 -15.553200
H -17.430000 -13.040400 -14.695100
C -17.417500 -12.696900 -17.941800
C -17.008100 -13.154600 -16.678300
H -16.941600 -12.960900 -18.720600
C -15.860900 -14.048100 -16.564900
N -15.329300 -14.599800 -15.521500
O -15.240000 -14.398100 -17.739000
C -14.279900 -15.387500 -16.017600
H -14.258000 -14.612500 -20.045500
C -14.240900 -15.259800 -17.369300
H -14.199700 -15.594000 -13.213400
N -13.682600 -16.110100 -13.752800
C -13.673400 -15.302100 -19.754900
N -13.513300 -15.742100 -18.437800
C -13.495100 -16.164300 -15.076600
C -12.851700 -16.028100 -20.541000
N -12.800700 -16.940200 -13.160300
H -12.748700 -15.934100 -21.481500
C -12.579800 -16.775200 -18.437000
N -12.512000 -17.022200 -15.333300
H -12.285700 -17.263400 -17.676600
C -12.166800 -16.958800 -19.712900
N -12.111400 -17.475800 -14.117100
H -11.529300 -17.600100 -20.004700
70
Fragment
H -22.914000 -21.830700 -20.837800
N -22.331900 -21.706400 -26.725400
C -22.276600 -21.189400 -21.129600
H -22.157700 -21.494000 -23.165900
N -21.931400 -21.252800 -25.509300
C -21.863600 -21.005800 -22.405500
H -21.694600 -20.164700 -19.361000
N -21.642600 -21.170800 -27.682200
C -21.591700 -20.258700 -20.301500
C -20.948300 -20.394900 -25.765900
N -20.930000 -19.972700 -22.404700
C -20.769900 -19.532700 -21.087600
N -20.760700 -20.340700 -27.089700
H -20.243700 -19.824600 -27.629100
C -20.202400 -19.490400 -23.473200
H -20.185400 -18.843100 -20.797000
C -20.163500 -19.618100 -24.824900
O -19.203300 -18.628700 -23.103500
N -19.114000 -18.830400 -25.321000
C -18.582500 -18.278700 -24.277600
H -17.501800 -17.191500 -22.121900
C -17.435200 -17.385200 -24.164200
C -17.025800 -16.927500 -22.900700
H -17.013300 -17.271000 -26.147400
C -16.736200 -16.969800 -25.289400
C -15.931900 -16.094000 -22.791900
H -15.649200 -15.799600 -21.934100
C -15.637500 -16.120300 -25.187600
C -15.238400 -15.681100 -23.923400
H -15.167900 -15.843600 -25.966000
O -14.173200 -14.855300 -23.691600
H -13.971100 -13.934800 -25.440000
C -13.402600 -14.445800 -24.826400
H -13.054700 -15.237800 -25.286400
H -12.656100 -13.884800 -24.530000
H -21.787200 -9.654200 -16.312500
H -21.388600 -11.007200 -15.556100
C -21.040700 -10.215200 -16.016100
H -20.472200 -9.704200 -15.402500
O -20.270100 -10.624700 -17.150900
H -19.275400 -11.613000 -14.876500
C -19.204900 -11.450500 -16.919100
C -18.805800 -11.889700 -15.654900
H -18.794100 -11.569000 -18.908400
C -18.511400 -11.863400 -18.050600
C -17.707100 -12.739200 -15.553200
H -17.430000 -13.040400 -14.695100
C -17.417500 -12.696900 -17.941800
C -17.008100 -13.154600 -16.678300
H -16.941600 -12.960900 -18.720600
C -15.860900 -14.048100 -16.564900
N -15.329300 -14.599800 -15.521500
O -15.240000 -14.398100 -17.739000
C -14.279900 -15.387500 -16.017600
H -14.258000 -14.612500 -20.045500
C -14.240900 -15.259800 -17.369300
H -14.199700 -15.594000 -13.213400
N -13.682600 -16.110100 -13.752800
C -13.673400 -15.302100 -19.754900
N -13.513300 -15.742100 -18.437800
C -13.495100 -16.164300 -15.076600
C -12.851700 -16.028100 -20.541000
N -12.800700 -16.940200 -13.160300
H -12.748700 -15.934100 -21.481500
C -12.579800 -16.775200 -18.437000
N -12.512000 -17.022200 -15.333300
H -12.285700 -17.263400 -17.676600
C -12.166800 -16.958800 -19.712900
N -12.111400 -17.475800 -14.117100
H -11.529300 -17.600100 -20.004700
