35
Fragment
H -22.914000 -21.830700 -20.837800
N -22.331900 -21.706400 -26.725400
C -22.276600 -21.189400 -21.129600
H -22.157700 -21.494000 -23.165900
N -21.931400 -21.252800 -25.509300
C -21.863600 -21.005800 -22.405500
H -21.694600 -20.164700 -19.361000
N -21.642600 -21.170800 -27.682200
C -21.591700 -20.258700 -20.301500
C -20.948300 -20.394900 -25.765900
N -20.930000 -19.972700 -22.404700
C -20.769900 -19.532700 -21.087600
N -20.760700 -20.340700 -27.089700
H -20.243700 -19.824600 -27.629100
C -20.202400 -19.490400 -23.473200
H -20.185400 -18.843100 -20.797000
C -20.163500 -19.618100 -24.824900
O -19.203300 -18.628700 -23.103500
N -19.114000 -18.830400 -25.321000
C -18.582500 -18.278700 -24.277600
H -17.501800 -17.191500 -22.121900
C -17.435200 -17.385200 -24.164200
C -17.025800 -16.927500 -22.900700
H -17.013300 -17.271000 -26.147400
C -16.736200 -16.969800 -25.289400
C -15.931900 -16.094000 -22.791900
H -15.649200 -15.799600 -21.934100
C -15.637500 -16.120300 -25.187600
C -15.238400 -15.681100 -23.923400
H -15.167900 -15.843600 -25.966000
O -14.173200 -14.855300 -23.691600
H -13.971100 -13.934800 -25.440000
C -13.402600 -14.445800 -24.826400
H -13.054700 -15.237800 -25.286400
H -12.656100 -13.884800 -24.530000
35
Fragment
H -34.462100 -30.291900 -20.837800
N -33.880000 -30.167600 -26.725400
C -33.824700 -29.650600 -21.129600
H -33.705800 -29.955200 -23.165900
N -33.479500 -29.714000 -25.509300
C -33.411700 -29.467000 -22.405500
H -33.242700 -28.625900 -19.361000
N -33.190700 -29.632000 -27.682200
C -33.139800 -28.719900 -20.301500
C -32.496400 -28.856100 -25.765900
N -32.478100 -28.433900 -22.404700
C -32.318000 -27.993900 -21.087600
N -32.308800 -28.801900 -27.089700
H -31.791800 -28.285800 -27.629100
C -31.750500 -27.951600 -23.473200
H -31.733500 -27.304300 -20.797000
C -31.711600 -28.079300 -24.824900
O -30.751400 -27.089900 -23.103500
N -30.662100 -27.291600 -25.321000
C -30.130600 -26.739900 -24.277600
H -29.049900 -25.652700 -22.121900
C -28.983300 -25.846400 -24.164200
C -28.573900 -25.388700 -22.900700
H -28.561400 -25.732200 -26.147400
C -28.284300 -25.431000 -25.289400
C -27.480000 -24.555200 -22.791900
H -27.197300 -24.260800 -21.934100
C -27.185600 -24.581500 -25.187600
C -26.786500 -24.142300 -23.923400
H -26.716000 -24.304800 -25.966000
O -25.721300 -23.316500 -23.691600
H -25.519200 -22.396000 -25.440000
C -24.950700 -22.907000 -24.826400
H -24.602800 -23.699000 -25.286400
H -24.204200 -22.346000 -24.530000
70
Fragment
H -22.914000 -21.830700 -20.837800
N -22.331900 -21.706400 -26.725400
C -22.276600 -21.189400 -21.129600
H -22.157700 -21.494000 -23.165900
N -21.931400 -21.252800 -25.509300
C -21.863600 -21.005800 -22.405500
H -21.694600 -20.164700 -19.361000
N -21.642600 -21.170800 -27.682200
C -21.591700 -20.258700 -20.301500
C -20.948300 -20.394900 -25.765900
N -20.930000 -19.972700 -22.404700
C -20.769900 -19.532700 -21.087600
N -20.760700 -20.340700 -27.089700
H -20.243700 -19.824600 -27.629100
C -20.202400 -19.490400 -23.473200
H -20.185400 -18.843100 -20.797000
C -20.163500 -19.618100 -24.824900
O -19.203300 -18.628700 -23.103500
N -19.114000 -18.830400 -25.321000
C -18.582500 -18.278700 -24.277600
H -17.501800 -17.191500 -22.121900
C -17.435200 -17.385200 -24.164200
C -17.025800 -16.927500 -22.900700
H -17.013300 -17.271000 -26.147400
C -16.736200 -16.969800 -25.289400
C -15.931900 -16.094000 -22.791900
H -15.649200 -15.799600 -21.934100
C -15.637500 -16.120300 -25.187600
C -15.238400 -15.681100 -23.923400
H -15.167900 -15.843600 -25.966000
O -14.173200 -14.855300 -23.691600
H -13.971100 -13.934800 -25.440000
C -13.402600 -14.445800 -24.826400
H -13.054700 -15.237800 -25.286400
H -12.656100 -13.884800 -24.530000
H -34.462100 -30.291900 -20.837800
N -33.880000 -30.167600 -26.725400
C -33.824700 -29.650600 -21.129600
H -33.705800 -29.955200 -23.165900
N -33.479500 -29.714000 -25.509300
C -33.411700 -29.467000 -22.405500
H -33.242700 -28.625900 -19.361000
N -33.190700 -29.632000 -27.682200
C -33.139800 -28.719900 -20.301500
C -32.496400 -28.856100 -25.765900
N -32.478100 -28.433900 -22.404700
C -32.318000 -27.993900 -21.087600
N -32.308800 -28.801900 -27.089700
H -31.791800 -28.285800 -27.629100
C -31.750500 -27.951600 -23.473200
H -31.733500 -27.304300 -20.797000
C -31.711600 -28.079300 -24.824900
O -30.751400 -27.089900 -23.103500
N -30.662100 -27.291600 -25.321000
C -30.130600 -26.739900 -24.277600
H -29.049900 -25.652700 -22.121900
C -28.983300 -25.846400 -24.164200
C -28.573900 -25.388700 -22.900700
H -28.561400 -25.732200 -26.147400
C -28.284300 -25.431000 -25.289400
C -27.480000 -24.555200 -22.791900
H -27.197300 -24.260800 -21.934100
C -27.185600 -24.581500 -25.187600
C -26.786500 -24.142300 -23.923400
H -26.716000 -24.304800 -25.966000
O -25.721300 -23.316500 -23.691600
H -25.519200 -22.396000 -25.440000
C -24.950700 -22.907000 -24.826400
H -24.602800 -23.699000 -25.286400
H -24.204200 -22.346000 -24.530000
