8
Fragment
H -5.137000 -19.782900 -21.054100
H -4.483200 -20.166000 -22.421400
C -4.294800 -19.821500 -21.534200
Cl -3.697300 -18.202000 -21.702400
O -3.619400 -21.990100 -20.961500
C -3.402800 -20.809200 -20.830300
O -2.484200 -20.294500 -20.076800
H -2.044200 -20.894900 -19.733000
16
Fragment
H -9.598000 -25.665900 -19.955200
H -8.927300 -25.032800 -21.221100
C -8.820300 -25.707400 -20.533700
Cl -8.760800 -27.276000 -21.285400
H -7.950000 -23.539100 -19.956700
C -7.586800 -25.388400 -19.720500
N -7.405200 -24.065700 -19.550000
O -6.854700 -26.230900 -19.241700
C -6.408300 -23.472700 -18.769800
N -6.318600 -22.149400 -18.804700
C -5.453600 -24.030800 -17.928600
H -5.309000 -24.929900 -17.740900
N -5.299400 -21.847900 -17.968000
H -5.029400 -21.049300 -17.800600
C -4.770900 -22.939300 -17.439700
H -4.060500 -22.964600 -16.840300
24
Fragment
H -5.137000 -19.782900 -21.054100
H -4.483200 -20.166000 -22.421400
C -4.294800 -19.821500 -21.534200
Cl -3.697300 -18.202000 -21.702400
O -3.619400 -21.990100 -20.961500
C -3.402800 -20.809200 -20.830300
O -2.484200 -20.294500 -20.076800
H -2.044200 -20.894900 -19.733000
H -9.598000 -25.665900 -19.955200
H -8.927300 -25.032800 -21.221100
C -8.820300 -25.707400 -20.533700
Cl -8.760800 -27.276000 -21.285400
H -7.950000 -23.539100 -19.956700
C -7.586800 -25.388400 -19.720500
N -7.405200 -24.065700 -19.550000
O -6.854700 -26.230900 -19.241700
C -6.408300 -23.472700 -18.769800
N -6.318600 -22.149400 -18.804700
C -5.453600 -24.030800 -17.928600
H -5.309000 -24.929900 -17.740900
N -5.299400 -21.847900 -17.968000
H -5.029400 -21.049300 -17.800600
C -4.770900 -22.939300 -17.439700
H -4.060500 -22.964600 -16.840300
