8
Fragment
H -5.137000 -19.782900 -21.054100
H -4.483200 -20.166000 -22.421400
C -4.294800 -19.821500 -21.534200
Cl -3.697300 -18.202000 -21.702400
O -3.619400 -21.990100 -20.961500
C -3.402800 -20.809200 -20.830300
O -2.484200 -20.294500 -20.076800
H -2.044200 -20.894900 -19.733000
8
Fragment
H -10.294000 -19.782900 -21.054100
H -9.640200 -20.166000 -22.421400
C -9.451800 -19.821500 -21.534200
Cl -8.854300 -18.202000 -21.702400
O -8.776400 -21.990100 -20.961500
C -8.559800 -20.809200 -20.830300
O -7.641200 -20.294500 -20.076800
H -7.201200 -20.894900 -19.733000
16
Fragment
H -5.137000 -19.782900 -21.054100
H -4.483200 -20.166000 -22.421400
C -4.294800 -19.821500 -21.534200
Cl -3.697300 -18.202000 -21.702400
O -3.619400 -21.990100 -20.961500
C -3.402800 -20.809200 -20.830300
O -2.484200 -20.294500 -20.076800
H -2.044200 -20.894900 -19.733000
H -10.294000 -19.782900 -21.054100
H -9.640200 -20.166000 -22.421400
C -9.451800 -19.821500 -21.534200
Cl -8.854300 -18.202000 -21.702400
O -8.776400 -21.990100 -20.961500
C -8.559800 -20.809200 -20.830300
O -7.641200 -20.294500 -20.076800
H -7.201200 -20.894900 -19.733000
