8
Fragment
H -5.137000 -19.782900 -21.054100
H -4.483200 -20.166000 -22.421400
C -4.294800 -19.821500 -21.534200
Cl -3.697300 -18.202000 -21.702400
O -3.619400 -21.990100 -20.961500
C -3.402800 -20.809200 -20.830300
O -2.484200 -20.294500 -20.076800
H -2.044200 -20.894900 -19.733000
8
Fragment
H 0.020000 -19.782900 -21.054100
H 0.673800 -20.166000 -22.421400
C 0.862200 -19.821500 -21.534200
Cl 1.459700 -18.202000 -21.702400
O 1.537600 -21.990100 -20.961500
C 1.754200 -20.809200 -20.830300
O 2.672800 -20.294500 -20.076800
H 3.112800 -20.894900 -19.733000
16
Fragment
H -5.137000 -19.782900 -21.054100
H -4.483200 -20.166000 -22.421400
C -4.294800 -19.821500 -21.534200
Cl -3.697300 -18.202000 -21.702400
O -3.619400 -21.990100 -20.961500
C -3.402800 -20.809200 -20.830300
O -2.484200 -20.294500 -20.076800
H -2.044200 -20.894900 -19.733000
H 0.020000 -19.782900 -21.054100
H 0.673800 -20.166000 -22.421400
C 0.862200 -19.821500 -21.534200
Cl 1.459700 -18.202000 -21.702400
O 1.537600 -21.990100 -20.961500
C 1.754200 -20.809200 -20.830300
O 2.672800 -20.294500 -20.076800
H 3.112800 -20.894900 -19.733000
