8
Fragment
H -5.137000 -19.782900 -21.054100
H -4.483200 -20.166000 -22.421400
C -4.294800 -19.821500 -21.534200
Cl -3.697300 -18.202000 -21.702400
O -3.619400 -21.990100 -20.961500
C -3.402800 -20.809200 -20.830300
O -2.484200 -20.294500 -20.076800
H -2.044200 -20.894900 -19.733000
16
Fragment
H -2.639800 -15.818100 -20.436800
C -1.929400 -15.792800 -19.837400
H -1.670900 -13.902800 -19.476500
N -1.400800 -14.701400 -19.309100
H -1.391200 -17.783400 -19.536200
C -1.246700 -16.884300 -19.348400
N -0.381700 -15.002900 -18.472400
C -0.292000 -16.326200 -18.507300
O 0.154500 -19.084400 -18.035400
N 0.704900 -16.919200 -17.727000
C 0.886500 -18.241900 -17.556600
H 1.249700 -16.392600 -17.320400
Cl 2.060500 -20.129500 -15.991700
C 2.120100 -18.560900 -16.743400
H 2.227000 -17.886300 -16.056000
H 2.897700 -18.519400 -17.321900
24
Fragment
H -5.137000 -19.782900 -21.054100
H -4.483200 -20.166000 -22.421400
C -4.294800 -19.821500 -21.534200
Cl -3.697300 -18.202000 -21.702400
O -3.619400 -21.990100 -20.961500
C -3.402800 -20.809200 -20.830300
O -2.484200 -20.294500 -20.076800
H -2.044200 -20.894900 -19.733000
H -2.639800 -15.818100 -20.436800
C -1.929400 -15.792800 -19.837400
H -1.670900 -13.902800 -19.476500
N -1.400800 -14.701400 -19.309100
H -1.391200 -17.783400 -19.536200
C -1.246700 -16.884300 -19.348400
N -0.381700 -15.002900 -18.472400
C -0.292000 -16.326200 -18.507300
O 0.154500 -19.084400 -18.035400
N 0.704900 -16.919200 -17.727000
C 0.886500 -18.241900 -17.556600
H 1.249700 -16.392600 -17.320400
Cl 2.060500 -20.129500 -15.991700
C 2.120100 -18.560900 -16.743400
H 2.227000 -17.886300 -16.056000
H 2.897700 -18.519400 -17.321900
