8
Fragment
H -5.137000 -19.782900 -21.054100
H -4.483200 -20.166000 -22.421400
C -4.294800 -19.821500 -21.534200
Cl -3.697300 -18.202000 -21.702400
O -3.619400 -21.990100 -20.961500
C -3.402800 -20.809200 -20.830300
O -2.484200 -20.294500 -20.076800
H -2.044200 -20.894900 -19.733000
16
Fragment
H -6.042600 -19.914400 -27.892200
C -5.332300 -19.939700 -27.292800
H -5.073700 -21.829700 -26.932000
N -4.803700 -21.031100 -26.764500
H -4.794100 -17.949100 -26.991600
C -4.649500 -18.848200 -26.803900
N -3.784500 -20.729600 -25.927900
C -3.694800 -19.406300 -25.962700
O -3.248400 -16.648100 -25.490800
N -2.698000 -18.813300 -25.182500
C -2.516300 -17.490600 -25.012000
H -2.153100 -19.339900 -24.775800
Cl -1.342300 -15.603000 -23.447100
C -1.282800 -17.171600 -24.198800
H -1.175800 -17.846200 -23.511400
H -0.505100 -17.213100 -24.777300
24
Fragment
H -5.137000 -19.782900 -21.054100
H -4.483200 -20.166000 -22.421400
C -4.294800 -19.821500 -21.534200
Cl -3.697300 -18.202000 -21.702400
O -3.619400 -21.990100 -20.961500
C -3.402800 -20.809200 -20.830300
O -2.484200 -20.294500 -20.076800
H -2.044200 -20.894900 -19.733000
H -6.042600 -19.914400 -27.892200
C -5.332300 -19.939700 -27.292800
H -5.073700 -21.829700 -26.932000
N -4.803700 -21.031100 -26.764500
H -4.794100 -17.949100 -26.991600
C -4.649500 -18.848200 -26.803900
N -3.784500 -20.729600 -25.927900
C -3.694800 -19.406300 -25.962700
O -3.248400 -16.648100 -25.490800
N -2.698000 -18.813300 -25.182500
C -2.516300 -17.490600 -25.012000
H -2.153100 -19.339900 -24.775800
Cl -1.342300 -15.603000 -23.447100
C -1.282800 -17.171600 -24.198800
H -1.175800 -17.846200 -23.511400
H -0.505100 -17.213100 -24.777300
