18
Fragment
O -14.671400 -17.868400 -9.631400
O -14.162900 -15.803800 -9.933100
N -14.127500 -16.983600 -10.310100
N -13.510200 -17.393500 -11.413600
H -13.282600 -14.630400 -11.547600
C -12.864800 -16.490600 -12.213200
C -12.827700 -15.089300 -12.172900
C -12.132400 -17.078300 -13.252500
C -12.097100 -14.400400 -13.075000
H -12.096700 -18.037700 -13.335300
H -12.035200 -13.491000 -13.081500
C -11.413400 -16.343600 -14.128400
N -11.381000 -15.004100 -14.036900
H -11.134400 -13.672000 -15.491200
H -10.911100 -16.713100 -14.850700
C -10.586100 -14.200200 -14.978100
H -10.175300 -14.704900 -15.611100
H -9.945000 -13.778500 -14.510800
18
Fragment
O -10.796300 -8.751600 -15.078400
O -10.287800 -10.816200 -15.380100
N -10.252400 -9.636400 -15.757100
N -9.635100 -9.226500 -16.860600
H -9.407600 -11.989600 -16.994600
C -8.989700 -10.129400 -17.660200
C -8.952700 -11.530700 -17.619900
C -8.257300 -9.541700 -18.699500
C -8.222000 -12.219600 -18.522000
H -8.221600 -8.582300 -18.782300
H -8.160100 -13.129000 -18.528500
C -7.538300 -10.276400 -19.575400
N -7.506000 -11.615900 -19.483900
H -7.259300 -12.948000 -20.938200
H -7.036100 -9.906900 -20.297700
C -6.711100 -12.419800 -20.425100
H -6.300200 -11.915100 -21.058100
H -6.070000 -12.841500 -19.957800
36
Fragment
O -14.671400 -17.868400 -9.631400
O -14.162900 -15.803800 -9.933100
N -14.127500 -16.983600 -10.310100
N -13.510200 -17.393500 -11.413600
H -13.282600 -14.630400 -11.547600
C -12.864800 -16.490600 -12.213200
C -12.827700 -15.089300 -12.172900
C -12.132400 -17.078300 -13.252500
C -12.097100 -14.400400 -13.075000
H -12.096700 -18.037700 -13.335300
H -12.035200 -13.491000 -13.081500
C -11.413400 -16.343600 -14.128400
N -11.381000 -15.004100 -14.036900
H -11.134400 -13.672000 -15.491200
H -10.911100 -16.713100 -14.850700
C -10.586100 -14.200200 -14.978100
H -10.175300 -14.704900 -15.611100
H -9.945000 -13.778500 -14.510800
O -10.796300 -8.751600 -15.078400
O -10.287800 -10.816200 -15.380100
N -10.252400 -9.636400 -15.757100
N -9.635100 -9.226500 -16.860600
H -9.407600 -11.989600 -16.994600
C -8.989700 -10.129400 -17.660200
C -8.952700 -11.530700 -17.619900
C -8.257300 -9.541700 -18.699500
C -8.222000 -12.219600 -18.522000
H -8.221600 -8.582300 -18.782300
H -8.160100 -13.129000 -18.528500
C -7.538300 -10.276400 -19.575400
N -7.506000 -11.615900 -19.483900
H -7.259300 -12.948000 -20.938200
H -7.036100 -9.906900 -20.297700
C -6.711100 -12.419800 -20.425100
H -6.300200 -11.915100 -21.058100
H -6.070000 -12.841500 -19.957800
