18
Fragment
O -14.671400 -17.868400 -9.631400
O -14.162900 -15.803800 -9.933100
N -14.127500 -16.983600 -10.310100
N -13.510200 -17.393500 -11.413600
H -13.282600 -14.630400 -11.547600
C -12.864800 -16.490600 -12.213200
C -12.827700 -15.089300 -12.172900
C -12.132400 -17.078300 -13.252500
C -12.097100 -14.400400 -13.075000
H -12.096700 -18.037700 -13.335300
H -12.035200 -13.491000 -13.081500
C -11.413400 -16.343600 -14.128400
N -11.381000 -15.004100 -14.036900
H -11.134400 -13.672000 -15.491200
H -10.911100 -16.713100 -14.850700
C -10.586100 -14.200200 -14.978100
H -10.175300 -14.704900 -15.611100
H -9.945000 -13.778500 -14.510800
18
Fragment
H -13.219700 -18.165500 -7.277200
H -12.989500 -17.239100 -6.176900
C -12.578600 -17.743800 -6.809800
H -12.253600 -15.230900 -6.937300
H -12.030400 -18.272000 -6.296700
N -11.783700 -16.939900 -7.751100
C -11.751400 -15.600400 -7.659600
H -11.129600 -18.453000 -8.706500
H -11.068100 -13.906300 -8.452600
C -11.067700 -17.543600 -8.713000
C -11.032400 -14.865700 -8.535400
C -10.337100 -16.854700 -9.615000
C -10.300000 -15.453400 -9.574700
H -9.882200 -17.313600 -10.240300
N -9.654600 -14.550500 -10.374300
N -9.037300 -14.960400 -11.477900
O -9.001900 -16.140200 -11.854800
O -8.493400 -14.075600 -12.156600
36
Fragment
O -14.671400 -17.868400 -9.631400
O -14.162900 -15.803800 -9.933100
N -14.127500 -16.983600 -10.310100
N -13.510200 -17.393500 -11.413600
H -13.282600 -14.630400 -11.547600
C -12.864800 -16.490600 -12.213200
C -12.827700 -15.089300 -12.172900
C -12.132400 -17.078300 -13.252500
C -12.097100 -14.400400 -13.075000
H -12.096700 -18.037700 -13.335300
H -12.035200 -13.491000 -13.081500
C -11.413400 -16.343600 -14.128400
N -11.381000 -15.004100 -14.036900
H -11.134400 -13.672000 -15.491200
H -10.911100 -16.713100 -14.850700
C -10.586100 -14.200200 -14.978100
H -10.175300 -14.704900 -15.611100
H -9.945000 -13.778500 -14.510800
H -13.219700 -18.165500 -7.277200
H -12.989500 -17.239100 -6.176900
C -12.578600 -17.743800 -6.809800
H -12.253600 -15.230900 -6.937300
H -12.030400 -18.272000 -6.296700
N -11.783700 -16.939900 -7.751100
C -11.751400 -15.600400 -7.659600
H -11.129600 -18.453000 -8.706500
H -11.068100 -13.906300 -8.452600
C -11.067700 -17.543600 -8.713000
C -11.032400 -14.865700 -8.535400
C -10.337100 -16.854700 -9.615000
C -10.300000 -15.453400 -9.574700
H -9.882200 -17.313600 -10.240300
N -9.654600 -14.550500 -10.374300
N -9.037300 -14.960400 -11.477900
O -9.001900 -16.140200 -11.854800
O -8.493400 -14.075600 -12.156600
