18
Fragment
O -14.671400 -17.868400 -9.631400
O -14.162900 -15.803800 -9.933100
N -14.127500 -16.983600 -10.310100
N -13.510200 -17.393500 -11.413600
H -13.282600 -14.630400 -11.547600
C -12.864800 -16.490600 -12.213200
C -12.827700 -15.089300 -12.172900
C -12.132400 -17.078300 -13.252500
C -12.097100 -14.400400 -13.075000
H -12.096700 -18.037700 -13.335300
H -12.035200 -13.491000 -13.081500
C -11.413400 -16.343600 -14.128400
N -11.381000 -15.004100 -14.036900
H -11.134400 -13.672000 -15.491200
H -10.911100 -16.713100 -14.850700
C -10.586100 -14.200200 -14.978100
H -10.175300 -14.704900 -15.611100
H -9.945000 -13.778500 -14.510800
18
Fragment
H -17.077700 -19.102500 -12.724200
H -16.847400 -20.028900 -11.623900
C -16.436600 -19.524200 -12.256800
H -16.111600 -22.037100 -12.384300
H -15.888300 -18.996000 -11.743700
N -15.641700 -20.328100 -13.198100
C -15.609400 -21.667600 -13.106600
H -14.987500 -18.815000 -14.153500
H -14.926100 -23.361700 -13.899600
C -14.925600 -19.724400 -14.160000
C -14.890400 -22.402300 -13.982400
C -14.195000 -20.413300 -15.062000
C -14.158000 -21.814600 -15.021700
H -13.740100 -19.954400 -15.687300
N -13.512500 -22.717500 -15.821300
N -12.895300 -22.307600 -16.924900
O -12.859900 -21.127800 -17.301800
O -12.351300 -23.192400 -17.603600
36
Fragment
O -14.671400 -17.868400 -9.631400
O -14.162900 -15.803800 -9.933100
N -14.127500 -16.983600 -10.310100
N -13.510200 -17.393500 -11.413600
H -13.282600 -14.630400 -11.547600
C -12.864800 -16.490600 -12.213200
C -12.827700 -15.089300 -12.172900
C -12.132400 -17.078300 -13.252500
C -12.097100 -14.400400 -13.075000
H -12.096700 -18.037700 -13.335300
H -12.035200 -13.491000 -13.081500
C -11.413400 -16.343600 -14.128400
N -11.381000 -15.004100 -14.036900
H -11.134400 -13.672000 -15.491200
H -10.911100 -16.713100 -14.850700
C -10.586100 -14.200200 -14.978100
H -10.175300 -14.704900 -15.611100
H -9.945000 -13.778500 -14.510800
H -17.077700 -19.102500 -12.724200
H -16.847400 -20.028900 -11.623900
C -16.436600 -19.524200 -12.256800
H -16.111600 -22.037100 -12.384300
H -15.888300 -18.996000 -11.743700
N -15.641700 -20.328100 -13.198100
C -15.609400 -21.667600 -13.106600
H -14.987500 -18.815000 -14.153500
H -14.926100 -23.361700 -13.899600
C -14.925600 -19.724400 -14.160000
C -14.890400 -22.402300 -13.982400
C -14.195000 -20.413300 -15.062000
C -14.158000 -21.814600 -15.021700
H -13.740100 -19.954400 -15.687300
N -13.512500 -22.717500 -15.821300
N -12.895300 -22.307600 -16.924900
O -12.859900 -21.127800 -17.301800
O -12.351300 -23.192400 -17.603600
