18
Fragment
O -14.671400 -17.868400 -9.631400
O -14.162900 -15.803800 -9.933100
N -14.127500 -16.983600 -10.310100
N -13.510200 -17.393500 -11.413600
H -13.282600 -14.630400 -11.547600
C -12.864800 -16.490600 -12.213200
C -12.827700 -15.089300 -12.172900
C -12.132400 -17.078300 -13.252500
C -12.097100 -14.400400 -13.075000
H -12.096700 -18.037700 -13.335300
H -12.035200 -13.491000 -13.081500
C -11.413400 -16.343600 -14.128400
N -11.381000 -15.004100 -14.036900
H -11.134400 -13.672000 -15.491200
H -10.911100 -16.713100 -14.850700
C -10.586100 -14.200200 -14.978100
H -10.175300 -14.704900 -15.611100
H -9.945000 -13.778500 -14.510800
3
Fragment
H -13.267500 -19.336800 -11.297100
O -13.099800 -20.217400 -11.240400
H -12.642400 -20.263100 -10.545400
21
Fragment
O -14.671400 -17.868400 -9.631400
O -14.162900 -15.803800 -9.933100
N -14.127500 -16.983600 -10.310100
N -13.510200 -17.393500 -11.413600
H -13.282600 -14.630400 -11.547600
C -12.864800 -16.490600 -12.213200
C -12.827700 -15.089300 -12.172900
C -12.132400 -17.078300 -13.252500
C -12.097100 -14.400400 -13.075000
H -12.096700 -18.037700 -13.335300
H -12.035200 -13.491000 -13.081500
C -11.413400 -16.343600 -14.128400
N -11.381000 -15.004100 -14.036900
H -11.134400 -13.672000 -15.491200
H -10.911100 -16.713100 -14.850700
C -10.586100 -14.200200 -14.978100
H -10.175300 -14.704900 -15.611100
H -9.945000 -13.778500 -14.510800
H -13.267500 -19.336800 -11.297100
O -13.099800 -20.217400 -11.240400
H -12.642400 -20.263100 -10.545400
