36
Fragment
H -20.440200 -14.496000 -15.310800
H -20.001900 -13.297400 -16.276000
C -19.677600 -14.036400 -15.720800
H -19.606200 -14.105900 -18.221300
H -19.092000 -13.684100 -15.018100
H -19.018500 -15.576500 -18.454600
N -18.933700 -14.973800 -16.547000
C -18.892100 -14.731000 -17.975600
H -18.891800 -15.770000 -14.049700
C -18.366800 -16.319700 -14.620200
C -18.258700 -16.002300 -15.995700
H -18.023800 -14.346000 -18.216000
H -17.829500 -17.615300 -13.182000
C -17.720300 -17.412500 -14.103900
C -17.403200 -16.818200 -16.785800
H -17.288300 -16.616800 -17.706900
H -17.214000 -21.386600 -12.617800
C -16.895100 -18.251000 -14.892800
C -16.821900 -20.632400 -12.194100
C -16.742000 -17.886600 -16.245600
O -16.689200 -20.478500 -10.831600
C -16.319800 -19.568700 -12.841000
C -16.272600 -19.405800 -14.304100
H -16.162900 -18.397700 -16.797900
C -16.082100 -19.291800 -10.611900
H -15.979800 -19.595700 -8.789800
N -15.869800 -18.956100 -9.339300
C -15.832100 -18.664500 -11.815500
C -15.635500 -20.433000 -14.981300
C -15.609800 -20.641600 -16.396700
N -15.559100 -20.897900 -17.515500
H -15.304000 -18.345100 -9.188600
C -15.164400 -17.443800 -12.015000
C -14.882000 -21.419100 -14.268700
N -14.616500 -16.455300 -12.218200
N -14.235300 -22.209700 -13.747100
36
Fragment
N -16.399600 -21.344600 -7.466400
N -16.018400 -27.099000 -8.995200
C -15.752900 -22.135200 -6.944800
C -15.470600 -26.110500 -9.198500
H -15.331000 -25.209200 -12.024800
N -15.075800 -22.656400 -3.697900
C -15.025200 -22.912700 -4.816700
C -14.999400 -23.121300 -6.232200
C -14.802800 -24.889700 -9.398000
N -14.765100 -24.598200 -11.874100
H -14.655100 -23.958600 -12.423700
C -14.552800 -24.262500 -10.601500
H -14.472000 -25.156600 -4.415600
C -14.362300 -24.148500 -6.909300
C -14.315100 -23.985600 -8.372400
O -13.945700 -23.075700 -10.381900
C -13.893000 -25.667700 -4.967900
C -13.813000 -22.921800 -9.019300
C -13.739800 -25.303200 -6.320700
H -13.421000 -22.167700 -8.595700
H -13.346600 -26.937500 -3.506600
C -13.231700 -26.736100 -4.427700
C -12.914700 -26.141800 -7.109600
H -12.805400 -25.939000 -8.031400
H -12.611100 -29.208300 -2.997500
C -12.376200 -27.552000 -5.217800
C -12.268100 -27.234600 -6.593200
H -11.743100 -27.784300 -7.163800
C -11.742800 -28.823300 -3.237800
N -11.701200 -28.580500 -4.666400
H -11.616400 -27.977800 -2.758800
H -11.542900 -29.870200 -6.195400
H -11.028700 -29.448400 -2.992200
C -10.957300 -29.517900 -5.492700
H -10.633000 -30.256900 -4.937400
H -10.194700 -29.058300 -5.902600
72
Fragment
H -20.440200 -14.496000 -15.310800
H -20.001900 -13.297400 -16.276000
C -19.677600 -14.036400 -15.720800
H -19.606200 -14.105900 -18.221300
H -19.092000 -13.684100 -15.018100
H -19.018500 -15.576500 -18.454600
N -18.933700 -14.973800 -16.547000
C -18.892100 -14.731000 -17.975600
H -18.891800 -15.770000 -14.049700
C -18.366800 -16.319700 -14.620200
C -18.258700 -16.002300 -15.995700
H -18.023800 -14.346000 -18.216000
H -17.829500 -17.615300 -13.182000
C -17.720300 -17.412500 -14.103900
C -17.403200 -16.818200 -16.785800
H -17.288300 -16.616800 -17.706900
H -17.214000 -21.386600 -12.617800
C -16.895100 -18.251000 -14.892800
C -16.821900 -20.632400 -12.194100
C -16.742000 -17.886600 -16.245600
O -16.689200 -20.478500 -10.831600
C -16.319800 -19.568700 -12.841000
C -16.272600 -19.405800 -14.304100
H -16.162900 -18.397700 -16.797900
C -16.082100 -19.291800 -10.611900
H -15.979800 -19.595700 -8.789800
N -15.869800 -18.956100 -9.339300
C -15.832100 -18.664500 -11.815500
C -15.635500 -20.433000 -14.981300
C -15.609800 -20.641600 -16.396700
N -15.559100 -20.897900 -17.515500
H -15.304000 -18.345100 -9.188600
C -15.164400 -17.443800 -12.015000
C -14.882000 -21.419100 -14.268700
N -14.616500 -16.455300 -12.218200
N -14.235300 -22.209700 -13.747100
N -16.399600 -21.344600 -7.466400
N -16.018400 -27.099000 -8.995200
C -15.752900 -22.135200 -6.944800
C -15.470600 -26.110500 -9.198500
H -15.331000 -25.209200 -12.024800
N -15.075800 -22.656400 -3.697900
C -15.025200 -22.912700 -4.816700
C -14.999400 -23.121300 -6.232200
C -14.802800 -24.889700 -9.398000
N -14.765100 -24.598200 -11.874100
H -14.655100 -23.958600 -12.423700
C -14.552800 -24.262500 -10.601500
H -14.472000 -25.156600 -4.415600
C -14.362300 -24.148500 -6.909300
C -14.315100 -23.985600 -8.372400
O -13.945700 -23.075700 -10.381900
C -13.893000 -25.667700 -4.967900
C -13.813000 -22.921800 -9.019300
C -13.739800 -25.303200 -6.320700
H -13.421000 -22.167700 -8.595700
H -13.346600 -26.937500 -3.506600
C -13.231700 -26.736100 -4.427700
C -12.914700 -26.141800 -7.109600
H -12.805400 -25.939000 -8.031400
H -12.611100 -29.208300 -2.997500
C -12.376200 -27.552000 -5.217800
C -12.268100 -27.234600 -6.593200
H -11.743100 -27.784300 -7.163800
C -11.742800 -28.823300 -3.237800
N -11.701200 -28.580500 -4.666400
H -11.616400 -27.977800 -2.758800
H -11.542900 -29.870200 -6.195400
H -11.028700 -29.448400 -2.992200
C -10.957300 -29.517900 -5.492700
H -10.633000 -30.256900 -4.937400
H -10.194700 -29.058300 -5.902600
