36
Fragment
H -20.440200 -14.496000 -15.310800
H -20.001900 -13.297400 -16.276000
C -19.677600 -14.036400 -15.720800
H -19.606200 -14.105900 -18.221300
H -19.092000 -13.684100 -15.018100
H -19.018500 -15.576500 -18.454600
N -18.933700 -14.973800 -16.547000
C -18.892100 -14.731000 -17.975600
H -18.891800 -15.770000 -14.049700
C -18.366800 -16.319700 -14.620200
C -18.258700 -16.002300 -15.995700
H -18.023800 -14.346000 -18.216000
H -17.829500 -17.615300 -13.182000
C -17.720300 -17.412500 -14.103900
C -17.403200 -16.818200 -16.785800
H -17.288300 -16.616800 -17.706900
H -17.214000 -21.386600 -12.617800
C -16.895100 -18.251000 -14.892800
C -16.821900 -20.632400 -12.194100
C -16.742000 -17.886600 -16.245600
O -16.689200 -20.478500 -10.831600
C -16.319800 -19.568700 -12.841000
C -16.272600 -19.405800 -14.304100
H -16.162900 -18.397700 -16.797900
C -16.082100 -19.291800 -10.611900
H -15.979800 -19.595700 -8.789800
N -15.869800 -18.956100 -9.339300
C -15.832100 -18.664500 -11.815500
C -15.635500 -20.433000 -14.981300
C -15.609800 -20.641600 -16.396700
N -15.559100 -20.897900 -17.515500
H -15.304000 -18.345100 -9.188600
C -15.164400 -17.443800 -12.015000
C -14.882000 -21.419100 -14.268700
N -14.616500 -16.455300 -12.218200
N -14.235300 -22.209700 -13.747100
36
Fragment
N -24.992300 -12.265000 -18.073100
N -24.611100 -18.019400 -19.602000
C -24.345500 -13.055600 -17.551500
C -24.063200 -17.030900 -19.805200
H -23.923600 -16.129600 -22.631600
N -23.668500 -13.576900 -14.304700
C -23.617800 -13.833100 -15.423500
C -23.592100 -14.041700 -16.838900
C -23.395400 -15.810200 -20.004700
N -23.357800 -15.518600 -22.480800
H -23.247800 -14.879000 -23.030400
C -23.145400 -15.182900 -21.208300
H -23.064700 -16.077000 -15.022300
C -22.955000 -15.068900 -17.516100
C -22.907800 -14.906000 -18.979100
O -22.538400 -13.996200 -20.988600
C -22.485600 -16.588100 -15.574600
C -22.405700 -13.842300 -19.626000
C -22.332400 -16.223700 -16.927400
H -22.013600 -13.088100 -19.202400
H -21.939300 -17.858000 -14.113300
C -21.824300 -17.656500 -15.034400
C -21.507300 -17.062300 -17.716300
H -21.398100 -16.859400 -18.638100
H -21.203800 -20.128700 -13.604200
C -20.968900 -18.472400 -15.824500
C -20.860800 -18.155000 -17.200000
H -20.335800 -18.704800 -17.770500
C -20.335500 -19.743700 -13.844500
N -20.293800 -19.500900 -15.273200
H -20.209100 -18.898200 -13.365500
H -20.135500 -20.790600 -16.802100
H -19.621300 -20.368800 -13.598900
C -19.549900 -20.438400 -16.099400
H -19.225700 -21.177300 -15.544200
H -18.787400 -19.978700 -16.509400
72
Fragment
H -20.440200 -14.496000 -15.310800
H -20.001900 -13.297400 -16.276000
C -19.677600 -14.036400 -15.720800
H -19.606200 -14.105900 -18.221300
H -19.092000 -13.684100 -15.018100
H -19.018500 -15.576500 -18.454600
N -18.933700 -14.973800 -16.547000
C -18.892100 -14.731000 -17.975600
H -18.891800 -15.770000 -14.049700
C -18.366800 -16.319700 -14.620200
C -18.258700 -16.002300 -15.995700
H -18.023800 -14.346000 -18.216000
H -17.829500 -17.615300 -13.182000
C -17.720300 -17.412500 -14.103900
C -17.403200 -16.818200 -16.785800
H -17.288300 -16.616800 -17.706900
H -17.214000 -21.386600 -12.617800
C -16.895100 -18.251000 -14.892800
C -16.821900 -20.632400 -12.194100
C -16.742000 -17.886600 -16.245600
O -16.689200 -20.478500 -10.831600
C -16.319800 -19.568700 -12.841000
C -16.272600 -19.405800 -14.304100
H -16.162900 -18.397700 -16.797900
C -16.082100 -19.291800 -10.611900
H -15.979800 -19.595700 -8.789800
N -15.869800 -18.956100 -9.339300
C -15.832100 -18.664500 -11.815500
C -15.635500 -20.433000 -14.981300
C -15.609800 -20.641600 -16.396700
N -15.559100 -20.897900 -17.515500
H -15.304000 -18.345100 -9.188600
C -15.164400 -17.443800 -12.015000
C -14.882000 -21.419100 -14.268700
N -14.616500 -16.455300 -12.218200
N -14.235300 -22.209700 -13.747100
N -24.992300 -12.265000 -18.073100
N -24.611100 -18.019400 -19.602000
C -24.345500 -13.055600 -17.551500
C -24.063200 -17.030900 -19.805200
H -23.923600 -16.129600 -22.631600
N -23.668500 -13.576900 -14.304700
C -23.617800 -13.833100 -15.423500
C -23.592100 -14.041700 -16.838900
C -23.395400 -15.810200 -20.004700
N -23.357800 -15.518600 -22.480800
H -23.247800 -14.879000 -23.030400
C -23.145400 -15.182900 -21.208300
H -23.064700 -16.077000 -15.022300
C -22.955000 -15.068900 -17.516100
C -22.907800 -14.906000 -18.979100
O -22.538400 -13.996200 -20.988600
C -22.485600 -16.588100 -15.574600
C -22.405700 -13.842300 -19.626000
C -22.332400 -16.223700 -16.927400
H -22.013600 -13.088100 -19.202400
H -21.939300 -17.858000 -14.113300
C -21.824300 -17.656500 -15.034400
C -21.507300 -17.062300 -17.716300
H -21.398100 -16.859400 -18.638100
H -21.203800 -20.128700 -13.604200
C -20.968900 -18.472400 -15.824500
C -20.860800 -18.155000 -17.200000
H -20.335800 -18.704800 -17.770500
C -20.335500 -19.743700 -13.844500
N -20.293800 -19.500900 -15.273200
H -20.209100 -18.898200 -13.365500
H -20.135500 -20.790600 -16.802100
H -19.621300 -20.368800 -13.598900
C -19.549900 -20.438400 -16.099400
H -19.225700 -21.177300 -15.544200
H -18.787400 -19.978700 -16.509400
