36
Fragment
H -20.440200 -14.496000 -15.310800
H -20.001900 -13.297400 -16.276000
C -19.677600 -14.036400 -15.720800
H -19.606200 -14.105900 -18.221300
H -19.092000 -13.684100 -15.018100
H -19.018500 -15.576500 -18.454600
N -18.933700 -14.973800 -16.547000
C -18.892100 -14.731000 -17.975600
H -18.891800 -15.770000 -14.049700
C -18.366800 -16.319700 -14.620200
C -18.258700 -16.002300 -15.995700
H -18.023800 -14.346000 -18.216000
H -17.829500 -17.615300 -13.182000
C -17.720300 -17.412500 -14.103900
C -17.403200 -16.818200 -16.785800
H -17.288300 -16.616800 -17.706900
H -17.214000 -21.386600 -12.617800
C -16.895100 -18.251000 -14.892800
C -16.821900 -20.632400 -12.194100
C -16.742000 -17.886600 -16.245600
O -16.689200 -20.478500 -10.831600
C -16.319800 -19.568700 -12.841000
C -16.272600 -19.405800 -14.304100
H -16.162900 -18.397700 -16.797900
C -16.082100 -19.291800 -10.611900
H -15.979800 -19.595700 -8.789800
N -15.869800 -18.956100 -9.339300
C -15.832100 -18.664500 -11.815500
C -15.635500 -20.433000 -14.981300
C -15.609800 -20.641600 -16.396700
N -15.559100 -20.897900 -17.515500
H -15.304000 -18.345100 -9.188600
C -15.164400 -17.443800 -12.015000
C -14.882000 -21.419100 -14.268700
N -14.616500 -16.455300 -12.218200
N -14.235300 -22.209700 -13.747100
36
Fragment
N -16.250400 -12.265000 -18.073100
N -15.869200 -18.019400 -19.602000
C -15.603700 -13.055600 -17.551500
C -15.321400 -17.030900 -19.805200
H -15.181800 -16.129600 -22.631600
N -14.926600 -13.576900 -14.304700
C -14.876000 -13.833100 -15.423500
C -14.850300 -14.041700 -16.838900
C -14.653600 -15.810200 -20.004700
N -14.615900 -15.518600 -22.480800
H -14.505900 -14.879000 -23.030400
C -14.403600 -15.182900 -21.208300
H -14.322800 -16.077000 -15.022300
C -14.213100 -15.068900 -17.516100
C -14.165900 -14.906000 -18.979100
O -13.796600 -13.996200 -20.988600
C -13.743800 -16.588100 -15.574600
C -13.663800 -13.842300 -19.626000
C -13.590600 -16.223700 -16.927400
H -13.271800 -13.088100 -19.202400
H -13.197400 -17.858000 -14.113300
C -13.082500 -17.656500 -15.034400
C -12.765500 -17.062300 -17.716300
H -12.656200 -16.859400 -18.638100
H -12.461900 -20.128700 -13.604200
C -12.227000 -18.472400 -15.824500
C -12.119000 -18.155000 -17.200000
H -11.593900 -18.704800 -17.770500
C -11.593600 -19.743700 -13.844500
N -11.552000 -19.500900 -15.273200
H -11.467200 -18.898200 -13.365500
H -11.393700 -20.790600 -16.802100
H -10.879500 -20.368800 -13.598900
C -10.808100 -20.438400 -16.099400
H -10.483800 -21.177300 -15.544200
H -10.045600 -19.978700 -16.509400
72
Fragment
H -20.440200 -14.496000 -15.310800
H -20.001900 -13.297400 -16.276000
C -19.677600 -14.036400 -15.720800
H -19.606200 -14.105900 -18.221300
H -19.092000 -13.684100 -15.018100
H -19.018500 -15.576500 -18.454600
N -18.933700 -14.973800 -16.547000
C -18.892100 -14.731000 -17.975600
H -18.891800 -15.770000 -14.049700
C -18.366800 -16.319700 -14.620200
C -18.258700 -16.002300 -15.995700
H -18.023800 -14.346000 -18.216000
H -17.829500 -17.615300 -13.182000
C -17.720300 -17.412500 -14.103900
C -17.403200 -16.818200 -16.785800
H -17.288300 -16.616800 -17.706900
H -17.214000 -21.386600 -12.617800
C -16.895100 -18.251000 -14.892800
C -16.821900 -20.632400 -12.194100
C -16.742000 -17.886600 -16.245600
O -16.689200 -20.478500 -10.831600
C -16.319800 -19.568700 -12.841000
C -16.272600 -19.405800 -14.304100
H -16.162900 -18.397700 -16.797900
C -16.082100 -19.291800 -10.611900
H -15.979800 -19.595700 -8.789800
N -15.869800 -18.956100 -9.339300
C -15.832100 -18.664500 -11.815500
C -15.635500 -20.433000 -14.981300
C -15.609800 -20.641600 -16.396700
N -15.559100 -20.897900 -17.515500
H -15.304000 -18.345100 -9.188600
C -15.164400 -17.443800 -12.015000
C -14.882000 -21.419100 -14.268700
N -14.616500 -16.455300 -12.218200
N -14.235300 -22.209700 -13.747100
N -16.250400 -12.265000 -18.073100
N -15.869200 -18.019400 -19.602000
C -15.603700 -13.055600 -17.551500
C -15.321400 -17.030900 -19.805200
H -15.181800 -16.129600 -22.631600
N -14.926600 -13.576900 -14.304700
C -14.876000 -13.833100 -15.423500
C -14.850300 -14.041700 -16.838900
C -14.653600 -15.810200 -20.004700
N -14.615900 -15.518600 -22.480800
H -14.505900 -14.879000 -23.030400
C -14.403600 -15.182900 -21.208300
H -14.322800 -16.077000 -15.022300
C -14.213100 -15.068900 -17.516100
C -14.165900 -14.906000 -18.979100
O -13.796600 -13.996200 -20.988600
C -13.743800 -16.588100 -15.574600
C -13.663800 -13.842300 -19.626000
C -13.590600 -16.223700 -16.927400
H -13.271800 -13.088100 -19.202400
H -13.197400 -17.858000 -14.113300
C -13.082500 -17.656500 -15.034400
C -12.765500 -17.062300 -17.716300
H -12.656200 -16.859400 -18.638100
H -12.461900 -20.128700 -13.604200
C -12.227000 -18.472400 -15.824500
C -12.119000 -18.155000 -17.200000
H -11.593900 -18.704800 -17.770500
C -11.593600 -19.743700 -13.844500
N -11.552000 -19.500900 -15.273200
H -11.467200 -18.898200 -13.365500
H -11.393700 -20.790600 -16.802100
H -10.879500 -20.368800 -13.598900
C -10.808100 -20.438400 -16.099400
H -10.483800 -21.177300 -15.544200
H -10.045600 -19.978700 -16.509400
