28
Fragment
H -28.241600 -19.078800 -15.145100
H -27.621800 -19.496100 -12.933600
C -27.461300 -18.815300 -14.836900
C -27.088200 -19.068200 -13.535900
H -26.702500 -17.979300 -16.572300
C -26.569600 -18.188000 -15.669900
C -25.835700 -18.708800 -13.113200
H -25.474000 -18.879700 -12.205500
N -25.341000 -17.834100 -15.299400
C -24.980400 -18.089700 -14.028700
H -23.713400 -16.540200 -15.891400
C -23.621400 -17.752300 -13.626700
N -23.078000 -16.081700 -15.386700
N -23.009100 -18.249100 -12.565300
N -22.758100 -16.926100 -14.288800
H -22.194800 -15.903100 -15.767100
N -21.741100 -17.744900 -12.530300
C -21.607400 -16.937600 -13.569800
C -20.374600 -16.209800 -13.878400
N -20.260900 -15.702300 -15.119400
C -19.389100 -16.095800 -12.918800
H -19.357600 -16.452900 -12.036900
C -19.102200 -15.076400 -15.396300
H -18.806800 -14.711000 -16.281500
C -18.211800 -15.463000 -13.227400
C -18.072400 -14.939700 -14.509100
H -17.319300 -15.393000 -12.570000
H -17.045500 -14.488700 -14.771200
20
Fragment
N -15.613100 -12.710600 -15.925300
C -14.798200 -12.913200 -15.144300
N -14.779600 -14.738900 -12.289700
C -14.347600 -14.034100 -13.074800
C -13.849500 -13.169100 -14.111800
H -12.710700 -11.666800 -15.948500
C -12.583900 -12.651400 -14.109900
C -12.132200 -11.838700 -15.217200
H -11.985900 -13.419900 -12.292500
C -11.664700 -12.883700 -13.034000
C -10.897600 -11.328700 -15.231100
H -10.562700 -10.793700 -15.974800
C -10.426300 -12.373600 -13.047700
C -9.976000 -11.557700 -14.152000
H -9.832900 -12.549100 -12.317500
C -8.711500 -11.016700 -14.181300
C -8.291200 -10.155300 -15.241500
N -7.944200 -9.459000 -16.085800
C -7.748600 -11.250800 -13.157300
N -6.937100 -11.439000 -12.371800
48
Fragment
H -28.241600 -19.078800 -15.145100
H -27.621800 -19.496100 -12.933600
C -27.461300 -18.815300 -14.836900
C -27.088200 -19.068200 -13.535900
H -26.702500 -17.979300 -16.572300
C -26.569600 -18.188000 -15.669900
C -25.835700 -18.708800 -13.113200
H -25.474000 -18.879700 -12.205500
N -25.341000 -17.834100 -15.299400
C -24.980400 -18.089700 -14.028700
H -23.713400 -16.540200 -15.891400
C -23.621400 -17.752300 -13.626700
N -23.078000 -16.081700 -15.386700
N -23.009100 -18.249100 -12.565300
N -22.758100 -16.926100 -14.288800
H -22.194800 -15.903100 -15.767100
N -21.741100 -17.744900 -12.530300
C -21.607400 -16.937600 -13.569800
C -20.374600 -16.209800 -13.878400
N -20.260900 -15.702300 -15.119400
C -19.389100 -16.095800 -12.918800
H -19.357600 -16.452900 -12.036900
C -19.102200 -15.076400 -15.396300
H -18.806800 -14.711000 -16.281500
C -18.211800 -15.463000 -13.227400
C -18.072400 -14.939700 -14.509100
H -17.319300 -15.393000 -12.570000
H -17.045500 -14.488700 -14.771200
N -15.613100 -12.710600 -15.925300
C -14.798200 -12.913200 -15.144300
N -14.779600 -14.738900 -12.289700
C -14.347600 -14.034100 -13.074800
C -13.849500 -13.169100 -14.111800
H -12.710700 -11.666800 -15.948500
C -12.583900 -12.651400 -14.109900
C -12.132200 -11.838700 -15.217200
H -11.985900 -13.419900 -12.292500
C -11.664700 -12.883700 -13.034000
C -10.897600 -11.328700 -15.231100
H -10.562700 -10.793700 -15.974800
C -10.426300 -12.373600 -13.047700
C -9.976000 -11.557700 -14.152000
H -9.832900 -12.549100 -12.317500
C -8.711500 -11.016700 -14.181300
C -8.291200 -10.155300 -15.241500
N -7.944200 -9.459000 -16.085800
C -7.748600 -11.250800 -13.157300
N -6.937100 -11.439000 -12.371800
