28
Fragment
H -28.241600 -19.078800 -15.145100
H -27.621800 -19.496100 -12.933600
C -27.461300 -18.815300 -14.836900
C -27.088200 -19.068200 -13.535900
H -26.702500 -17.979300 -16.572300
C -26.569600 -18.188000 -15.669900
C -25.835700 -18.708800 -13.113200
H -25.474000 -18.879700 -12.205500
N -25.341000 -17.834100 -15.299400
C -24.980400 -18.089700 -14.028700
H -23.713400 -16.540200 -15.891400
C -23.621400 -17.752300 -13.626700
N -23.078000 -16.081700 -15.386700
N -23.009100 -18.249100 -12.565300
N -22.758100 -16.926100 -14.288800
H -22.194800 -15.903100 -15.767100
N -21.741100 -17.744900 -12.530300
C -21.607400 -16.937600 -13.569800
C -20.374600 -16.209800 -13.878400
N -20.260900 -15.702300 -15.119400
C -19.389100 -16.095800 -12.918800
H -19.357600 -16.452900 -12.036900
C -19.102200 -15.076400 -15.396300
H -18.806800 -14.711000 -16.281500
C -18.211800 -15.463000 -13.227400
C -18.072400 -14.939700 -14.509100
H -17.319300 -15.393000 -12.570000
H -17.045500 -14.488700 -14.771200
28
Fragment
H -37.685600 -19.078800 -15.145100
H -37.065800 -19.496100 -12.933600
C -36.905300 -18.815300 -14.836900
C -36.532200 -19.068200 -13.535900
H -36.146500 -17.979300 -16.572300
C -36.013600 -18.188000 -15.669900
C -35.279700 -18.708800 -13.113200
H -34.918000 -18.879700 -12.205500
N -34.785000 -17.834100 -15.299400
C -34.424400 -18.089700 -14.028700
H -33.157400 -16.540200 -15.891400
C -33.065400 -17.752300 -13.626700
N -32.522000 -16.081700 -15.386700
N -32.453100 -18.249100 -12.565300
N -32.202100 -16.926100 -14.288800
H -31.638800 -15.903100 -15.767100
N -31.185100 -17.744900 -12.530300
C -31.051400 -16.937600 -13.569800
C -29.818600 -16.209800 -13.878400
N -29.704900 -15.702300 -15.119400
C -28.833100 -16.095800 -12.918800
H -28.801600 -16.452900 -12.036900
C -28.546200 -15.076400 -15.396300
H -28.250800 -14.711000 -16.281500
C -27.655800 -15.463000 -13.227400
C -27.516400 -14.939700 -14.509100
H -26.763300 -15.393000 -12.570000
H -26.489500 -14.488700 -14.771200
56
Fragment
H -28.241600 -19.078800 -15.145100
H -27.621800 -19.496100 -12.933600
C -27.461300 -18.815300 -14.836900
C -27.088200 -19.068200 -13.535900
H -26.702500 -17.979300 -16.572300
C -26.569600 -18.188000 -15.669900
C -25.835700 -18.708800 -13.113200
H -25.474000 -18.879700 -12.205500
N -25.341000 -17.834100 -15.299400
C -24.980400 -18.089700 -14.028700
H -23.713400 -16.540200 -15.891400
C -23.621400 -17.752300 -13.626700
N -23.078000 -16.081700 -15.386700
N -23.009100 -18.249100 -12.565300
N -22.758100 -16.926100 -14.288800
H -22.194800 -15.903100 -15.767100
N -21.741100 -17.744900 -12.530300
C -21.607400 -16.937600 -13.569800
C -20.374600 -16.209800 -13.878400
N -20.260900 -15.702300 -15.119400
C -19.389100 -16.095800 -12.918800
H -19.357600 -16.452900 -12.036900
C -19.102200 -15.076400 -15.396300
H -18.806800 -14.711000 -16.281500
C -18.211800 -15.463000 -13.227400
C -18.072400 -14.939700 -14.509100
H -17.319300 -15.393000 -12.570000
H -17.045500 -14.488700 -14.771200
H -37.685600 -19.078800 -15.145100
H -37.065800 -19.496100 -12.933600
C -36.905300 -18.815300 -14.836900
C -36.532200 -19.068200 -13.535900
H -36.146500 -17.979300 -16.572300
C -36.013600 -18.188000 -15.669900
C -35.279700 -18.708800 -13.113200
H -34.918000 -18.879700 -12.205500
N -34.785000 -17.834100 -15.299400
C -34.424400 -18.089700 -14.028700
H -33.157400 -16.540200 -15.891400
C -33.065400 -17.752300 -13.626700
N -32.522000 -16.081700 -15.386700
N -32.453100 -18.249100 -12.565300
N -32.202100 -16.926100 -14.288800
H -31.638800 -15.903100 -15.767100
N -31.185100 -17.744900 -12.530300
C -31.051400 -16.937600 -13.569800
C -29.818600 -16.209800 -13.878400
N -29.704900 -15.702300 -15.119400
C -28.833100 -16.095800 -12.918800
H -28.801600 -16.452900 -12.036900
C -28.546200 -15.076400 -15.396300
H -28.250800 -14.711000 -16.281500
C -27.655800 -15.463000 -13.227400
C -27.516400 -14.939700 -14.509100
H -26.763300 -15.393000 -12.570000
H -26.489500 -14.488700 -14.771200
