28
Fragment
H -28.241600 -19.078800 -15.145100
H -27.621800 -19.496100 -12.933600
C -27.461300 -18.815300 -14.836900
C -27.088200 -19.068200 -13.535900
H -26.702500 -17.979300 -16.572300
C -26.569600 -18.188000 -15.669900
C -25.835700 -18.708800 -13.113200
H -25.474000 -18.879700 -12.205500
N -25.341000 -17.834100 -15.299400
C -24.980400 -18.089700 -14.028700
H -23.713400 -16.540200 -15.891400
C -23.621400 -17.752300 -13.626700
N -23.078000 -16.081700 -15.386700
N -23.009100 -18.249100 -12.565300
N -22.758100 -16.926100 -14.288800
H -22.194800 -15.903100 -15.767100
N -21.741100 -17.744900 -12.530300
C -21.607400 -16.937600 -13.569800
C -20.374600 -16.209800 -13.878400
N -20.260900 -15.702300 -15.119400
C -19.389100 -16.095800 -12.918800
H -19.357600 -16.452900 -12.036900
C -19.102200 -15.076400 -15.396300
H -18.806800 -14.711000 -16.281500
C -18.211800 -15.463000 -13.227400
C -18.072400 -14.939700 -14.509100
H -17.319300 -15.393000 -12.570000
H -17.045500 -14.488700 -14.771200
28
Fragment
H -26.049000 -18.945400 -19.136500
H -25.775300 -18.041100 -21.337600
C -25.022200 -18.494300 -19.398600
C -24.882800 -17.971100 -20.680300
H -24.287700 -18.723100 -17.626100
C -23.992300 -18.357600 -18.511300
H -23.737000 -16.981200 -21.870800
C -23.705500 -17.338300 -20.988800
N -22.833700 -17.731700 -18.788200
C -22.720000 -17.224200 -20.029200
C -21.487200 -16.496400 -20.337800
N -21.353400 -15.689100 -21.377300
H -20.899700 -17.531000 -18.140600
N -20.336500 -16.507900 -19.618900
N -20.085500 -15.185000 -21.342400
N -20.016600 -17.352400 -18.520900
C -19.473200 -15.681700 -20.281000
H -19.381200 -16.893800 -18.016300
C -18.114200 -15.344400 -19.878900
N -17.753600 -15.599900 -18.608300
H -17.620600 -14.554400 -21.702100
C -17.258900 -14.725200 -20.794400
C -16.525000 -15.246100 -18.237800
H -16.392100 -15.454700 -17.335400
C -16.006400 -14.365800 -20.371700
C -15.633200 -14.618800 -19.070800
H -15.472800 -13.937900 -20.974000
H -14.853000 -14.355200 -18.762600
56
Fragment
H -28.241600 -19.078800 -15.145100
H -27.621800 -19.496100 -12.933600
C -27.461300 -18.815300 -14.836900
C -27.088200 -19.068200 -13.535900
H -26.702500 -17.979300 -16.572300
C -26.569600 -18.188000 -15.669900
C -25.835700 -18.708800 -13.113200
H -25.474000 -18.879700 -12.205500
N -25.341000 -17.834100 -15.299400
C -24.980400 -18.089700 -14.028700
H -23.713400 -16.540200 -15.891400
C -23.621400 -17.752300 -13.626700
N -23.078000 -16.081700 -15.386700
N -23.009100 -18.249100 -12.565300
N -22.758100 -16.926100 -14.288800
H -22.194800 -15.903100 -15.767100
N -21.741100 -17.744900 -12.530300
C -21.607400 -16.937600 -13.569800
C -20.374600 -16.209800 -13.878400
N -20.260900 -15.702300 -15.119400
C -19.389100 -16.095800 -12.918800
H -19.357600 -16.452900 -12.036900
C -19.102200 -15.076400 -15.396300
H -18.806800 -14.711000 -16.281500
C -18.211800 -15.463000 -13.227400
C -18.072400 -14.939700 -14.509100
H -17.319300 -15.393000 -12.570000
H -17.045500 -14.488700 -14.771200
H -26.049000 -18.945400 -19.136500
H -25.775300 -18.041100 -21.337600
C -25.022200 -18.494300 -19.398600
C -24.882800 -17.971100 -20.680300
H -24.287700 -18.723100 -17.626100
C -23.992300 -18.357600 -18.511300
H -23.737000 -16.981200 -21.870800
C -23.705500 -17.338300 -20.988800
N -22.833700 -17.731700 -18.788200
C -22.720000 -17.224200 -20.029200
C -21.487200 -16.496400 -20.337800
N -21.353400 -15.689100 -21.377300
H -20.899700 -17.531000 -18.140600
N -20.336500 -16.507900 -19.618900
N -20.085500 -15.185000 -21.342400
N -20.016600 -17.352400 -18.520900
C -19.473200 -15.681700 -20.281000
H -19.381200 -16.893800 -18.016300
C -18.114200 -15.344400 -19.878900
N -17.753600 -15.599900 -18.608300
H -17.620600 -14.554400 -21.702100
C -17.258900 -14.725200 -20.794400
C -16.525000 -15.246100 -18.237800
H -16.392100 -15.454700 -17.335400
C -16.006400 -14.365800 -20.371700
C -15.633200 -14.618800 -19.070800
H -15.472800 -13.937900 -20.974000
H -14.853000 -14.355200 -18.762600
