34
Fragment
H -18.815100 -20.155900 -29.064500
C -18.116700 -20.132100 -29.678500
H -18.065600 -18.115900 -29.873100
H -17.867200 -22.118000 -29.751300
C -17.677100 -18.913400 -30.151900
C -17.546500 -21.313900 -30.092800
H -16.875300 -16.346600 -31.174800
C -16.630600 -18.929300 -31.062300
C -16.495200 -21.332400 -31.014700
N -16.242500 -16.593900 -31.703600
H -16.110300 -22.129900 -31.296600
C -16.058000 -20.116800 -31.484800
C -15.932100 -17.875400 -31.810500
H -15.810900 -16.007200 -32.162500
C -14.999600 -19.728500 -32.421600
N -14.977000 -18.347900 -32.595300
N -14.191400 -20.579200 -32.981200
N -13.217600 -19.981900 -33.764800
H -13.175000 -19.124700 -33.818700
O -12.492600 -21.984400 -34.473400
C -12.335200 -20.748800 -34.443100
H -11.440700 -18.259800 -34.221200
H -11.234000 -22.502300 -36.028700
C -11.234000 -20.054100 -35.125900
C -10.937000 -18.708700 -34.859400
N -10.609100 -22.044300 -36.402200
C -10.435700 -20.735600 -36.071500
H -10.094800 -22.412500 -36.985100
C -9.940300 -18.032700 -35.497700
H -9.778800 -17.136200 -35.310500
C -9.407000 -20.018600 -36.700200
C -9.171800 -18.714000 -36.434300
H -8.868900 -20.455600 -37.321100
H -8.488700 -18.269100 -36.881700
34
Fragment
H -12.875600 -13.553900 -35.556000
C -12.177200 -13.530100 -34.942000
H -12.126100 -11.513900 -34.747400
H -11.927700 -15.516000 -34.869200
C -11.737600 -12.311400 -34.468600
C -11.607000 -14.711900 -34.527700
H -10.935800 -9.744600 -33.445700
C -10.691100 -12.327300 -33.558200
C -10.555700 -14.730400 -33.605800
N -10.303000 -9.991900 -32.916900
H -10.170800 -15.527900 -33.323900
C -10.118500 -13.514800 -33.135700
C -9.992600 -11.273400 -32.810000
H -9.871400 -9.405200 -32.458000
C -9.060100 -13.126500 -32.198900
N -9.037500 -11.745900 -32.025200
N -8.251900 -13.977200 -31.639300
N -7.278100 -13.379900 -30.855700
H -7.235500 -12.522700 -30.801800
O -6.553100 -15.382400 -30.147100
C -6.395700 -14.146800 -30.177400
H -5.501200 -11.657800 -30.399300
H -5.294500 -15.900300 -28.591800
C -5.294500 -13.452100 -29.494600
C -4.997500 -12.106700 -29.761100
N -4.669600 -15.442300 -28.218300
C -4.496200 -14.133600 -28.549000
H -4.155300 -15.810500 -27.635400
C -4.000800 -11.430700 -29.122800
H -3.839300 -10.534200 -29.310000
C -3.467500 -13.416600 -27.920300
C -3.232300 -12.112000 -28.186200
H -2.929400 -13.853600 -27.299400
H -2.549200 -11.667100 -27.738800
68
Fragment
H -18.815100 -20.155900 -29.064500
C -18.116700 -20.132100 -29.678500
H -18.065600 -18.115900 -29.873100
H -17.867200 -22.118000 -29.751300
C -17.677100 -18.913400 -30.151900
C -17.546500 -21.313900 -30.092800
H -16.875300 -16.346600 -31.174800
C -16.630600 -18.929300 -31.062300
C -16.495200 -21.332400 -31.014700
N -16.242500 -16.593900 -31.703600
H -16.110300 -22.129900 -31.296600
C -16.058000 -20.116800 -31.484800
C -15.932100 -17.875400 -31.810500
H -15.810900 -16.007200 -32.162500
C -14.999600 -19.728500 -32.421600
N -14.977000 -18.347900 -32.595300
N -14.191400 -20.579200 -32.981200
N -13.217600 -19.981900 -33.764800
H -13.175000 -19.124700 -33.818700
O -12.492600 -21.984400 -34.473400
C -12.335200 -20.748800 -34.443100
H -11.440700 -18.259800 -34.221200
H -11.234000 -22.502300 -36.028700
C -11.234000 -20.054100 -35.125900
C -10.937000 -18.708700 -34.859400
N -10.609100 -22.044300 -36.402200
C -10.435700 -20.735600 -36.071500
H -10.094800 -22.412500 -36.985100
C -9.940300 -18.032700 -35.497700
H -9.778800 -17.136200 -35.310500
C -9.407000 -20.018600 -36.700200
C -9.171800 -18.714000 -36.434300
H -8.868900 -20.455600 -37.321100
H -8.488700 -18.269100 -36.881700
H -12.875600 -13.553900 -35.556000
C -12.177200 -13.530100 -34.942000
H -12.126100 -11.513900 -34.747400
H -11.927700 -15.516000 -34.869200
C -11.737600 -12.311400 -34.468600
C -11.607000 -14.711900 -34.527700
H -10.935800 -9.744600 -33.445700
C -10.691100 -12.327300 -33.558200
C -10.555700 -14.730400 -33.605800
N -10.303000 -9.991900 -32.916900
H -10.170800 -15.527900 -33.323900
C -10.118500 -13.514800 -33.135700
C -9.992600 -11.273400 -32.810000
H -9.871400 -9.405200 -32.458000
C -9.060100 -13.126500 -32.198900
N -9.037500 -11.745900 -32.025200
N -8.251900 -13.977200 -31.639300
N -7.278100 -13.379900 -30.855700
H -7.235500 -12.522700 -30.801800
O -6.553100 -15.382400 -30.147100
C -6.395700 -14.146800 -30.177400
H -5.501200 -11.657800 -30.399300
H -5.294500 -15.900300 -28.591800
C -5.294500 -13.452100 -29.494600
C -4.997500 -12.106700 -29.761100
N -4.669600 -15.442300 -28.218300
C -4.496200 -14.133600 -28.549000
H -4.155300 -15.810500 -27.635400
C -4.000800 -11.430700 -29.122800
H -3.839300 -10.534200 -29.310000
C -3.467500 -13.416600 -27.920300
C -3.232300 -12.112000 -28.186200
H -2.929400 -13.853600 -27.299400
H -2.549200 -11.667100 -27.738800
