31
Fragment
H -12.553400 -26.783900 -19.106600
H -11.687800 -20.571500 -15.559000
C -11.656700 -26.807300 -19.352200
H -11.312700 -24.876400 -18.890200
N -11.162600 -27.956800 -19.818900
N -11.048600 -20.007900 -15.675900
H -11.043000 -19.269200 -15.236100
C -10.917300 -25.653800 -19.214200
C -10.084300 -20.273900 -16.521600
N -10.033800 -21.406900 -17.237400
H -9.884800 -23.465400 -18.402400
C -9.869900 -27.957500 -20.161600
C -9.587100 -25.664100 -19.561600
H -9.504200 -28.746600 -20.492600
N -9.115300 -23.430100 -18.786100
H -9.109500 -17.701000 -15.698100
C -9.048300 -26.855600 -20.055200
C -8.923500 -19.411300 -16.769600
C -8.834300 -21.363300 -17.938100
C -8.665800 -24.486000 -19.476200
C -8.575600 -18.159100 -16.306400
N -8.356500 -22.294100 -18.686700
H -8.154000 -26.904300 -20.304300
C -8.133500 -20.093400 -17.698300
O -7.567000 -24.491700 -20.008400
C -7.397500 -17.619100 -16.784800
H -7.124300 -16.783200 -16.481800
C -6.991200 -19.550000 -18.175500
C -6.616300 -18.292800 -17.704100
H -6.470800 -20.001400 -18.800100
H -5.830500 -17.901600 -18.012900
3
Fragment
H -12.473300 -28.161500 -16.712300
O -12.125800 -27.606400 -16.168400
H -11.287000 -27.599700 -16.307500
34
Fragment
H -12.553400 -26.783900 -19.106600
H -11.687800 -20.571500 -15.559000
C -11.656700 -26.807300 -19.352200
H -11.312700 -24.876400 -18.890200
N -11.162600 -27.956800 -19.818900
N -11.048600 -20.007900 -15.675900
H -11.043000 -19.269200 -15.236100
C -10.917300 -25.653800 -19.214200
C -10.084300 -20.273900 -16.521600
N -10.033800 -21.406900 -17.237400
H -9.884800 -23.465400 -18.402400
C -9.869900 -27.957500 -20.161600
C -9.587100 -25.664100 -19.561600
H -9.504200 -28.746600 -20.492600
N -9.115300 -23.430100 -18.786100
H -9.109500 -17.701000 -15.698100
C -9.048300 -26.855600 -20.055200
C -8.923500 -19.411300 -16.769600
C -8.834300 -21.363300 -17.938100
C -8.665800 -24.486000 -19.476200
C -8.575600 -18.159100 -16.306400
N -8.356500 -22.294100 -18.686700
H -8.154000 -26.904300 -20.304300
C -8.133500 -20.093400 -17.698300
O -7.567000 -24.491700 -20.008400
C -7.397500 -17.619100 -16.784800
H -7.124300 -16.783200 -16.481800
C -6.991200 -19.550000 -18.175500
C -6.616300 -18.292800 -17.704100
H -6.470800 -20.001400 -18.800100
H -5.830500 -17.901600 -18.012900
H -12.473300 -28.161500 -16.712300
O -12.125800 -27.606400 -16.168400
H -11.287000 -27.599700 -16.307500
