34
Fragment
H -18.815100 -20.155900 -29.064500
C -18.116700 -20.132100 -29.678500
H -18.065600 -18.115900 -29.873100
H -17.867200 -22.118000 -29.751300
C -17.677100 -18.913400 -30.151900
C -17.546500 -21.313900 -30.092800
H -16.875300 -16.346600 -31.174800
C -16.630600 -18.929300 -31.062300
C -16.495200 -21.332400 -31.014700
N -16.242500 -16.593900 -31.703600
H -16.110300 -22.129900 -31.296600
C -16.058000 -20.116800 -31.484800
C -15.932100 -17.875400 -31.810500
H -15.810900 -16.007200 -32.162500
C -14.999600 -19.728500 -32.421600
N -14.977000 -18.347900 -32.595300
N -14.191400 -20.579200 -32.981200
N -13.217600 -19.981900 -33.764800
H -13.175000 -19.124700 -33.818700
O -12.492600 -21.984400 -34.473400
C -12.335200 -20.748800 -34.443100
H -11.440700 -18.259800 -34.221200
H -11.234000 -22.502300 -36.028700
C -11.234000 -20.054100 -35.125900
C -10.937000 -18.708700 -34.859400
N -10.609100 -22.044300 -36.402200
C -10.435700 -20.735600 -36.071500
H -10.094800 -22.412500 -36.985100
C -9.940300 -18.032700 -35.497700
H -9.778800 -17.136200 -35.310500
C -9.407000 -20.018600 -36.700200
C -9.171800 -18.714000 -36.434300
H -8.868900 -20.455600 -37.321100
H -8.488700 -18.269100 -36.881700
34
Fragment
H -30.694100 -19.456100 -19.833000
C -29.995700 -19.479900 -20.447000
H -29.944600 -21.496100 -20.641600
H -29.746200 -17.494000 -20.519800
C -29.556100 -20.698600 -20.920400
C -29.425500 -18.298100 -20.861300
H -28.754300 -23.265400 -21.943300
C -28.509600 -20.682700 -21.830800
C -28.374200 -18.279600 -21.783200
N -28.121500 -23.018100 -22.472100
H -27.989300 -17.482100 -22.065100
C -27.937000 -19.495200 -22.253300
C -27.811100 -21.736600 -22.579000
H -27.689900 -23.604800 -22.931000
C -26.878600 -19.883500 -23.190100
N -26.856000 -21.264100 -23.363800
N -26.070400 -19.032800 -23.749700
N -25.096600 -19.630100 -24.533300
H -25.054000 -20.487300 -24.587200
O -24.371600 -17.627600 -25.241900
C -24.214200 -18.863200 -25.211600
H -23.319700 -21.352200 -24.989700
C -23.113000 -19.557900 -25.894400
H -23.113000 -17.109700 -26.797200
C -22.816000 -20.903300 -25.627900
N -22.488100 -17.567700 -27.170700
C -22.314700 -18.876400 -26.840000
H -21.973800 -17.199500 -27.753600
C -21.819300 -21.579300 -26.266200
H -21.657800 -22.475800 -26.079000
C -21.286000 -19.593400 -27.468700
C -21.050800 -20.898000 -27.202800
H -20.747900 -19.156400 -28.089600
H -20.367700 -21.342900 -27.650200
68
Fragment
H -18.815100 -20.155900 -29.064500
C -18.116700 -20.132100 -29.678500
H -18.065600 -18.115900 -29.873100
H -17.867200 -22.118000 -29.751300
C -17.677100 -18.913400 -30.151900
C -17.546500 -21.313900 -30.092800
H -16.875300 -16.346600 -31.174800
C -16.630600 -18.929300 -31.062300
C -16.495200 -21.332400 -31.014700
N -16.242500 -16.593900 -31.703600
H -16.110300 -22.129900 -31.296600
C -16.058000 -20.116800 -31.484800
C -15.932100 -17.875400 -31.810500
H -15.810900 -16.007200 -32.162500
C -14.999600 -19.728500 -32.421600
N -14.977000 -18.347900 -32.595300
N -14.191400 -20.579200 -32.981200
N -13.217600 -19.981900 -33.764800
H -13.175000 -19.124700 -33.818700
O -12.492600 -21.984400 -34.473400
C -12.335200 -20.748800 -34.443100
H -11.440700 -18.259800 -34.221200
H -11.234000 -22.502300 -36.028700
C -11.234000 -20.054100 -35.125900
C -10.937000 -18.708700 -34.859400
N -10.609100 -22.044300 -36.402200
C -10.435700 -20.735600 -36.071500
H -10.094800 -22.412500 -36.985100
C -9.940300 -18.032700 -35.497700
H -9.778800 -17.136200 -35.310500
C -9.407000 -20.018600 -36.700200
C -9.171800 -18.714000 -36.434300
H -8.868900 -20.455600 -37.321100
H -8.488700 -18.269100 -36.881700
H -30.694100 -19.456100 -19.833000
C -29.995700 -19.479900 -20.447000
H -29.944600 -21.496100 -20.641600
H -29.746200 -17.494000 -20.519800
C -29.556100 -20.698600 -20.920400
C -29.425500 -18.298100 -20.861300
H -28.754300 -23.265400 -21.943300
C -28.509600 -20.682700 -21.830800
C -28.374200 -18.279600 -21.783200
N -28.121500 -23.018100 -22.472100
H -27.989300 -17.482100 -22.065100
C -27.937000 -19.495200 -22.253300
C -27.811100 -21.736600 -22.579000
H -27.689900 -23.604800 -22.931000
C -26.878600 -19.883500 -23.190100
N -26.856000 -21.264100 -23.363800
N -26.070400 -19.032800 -23.749700
N -25.096600 -19.630100 -24.533300
H -25.054000 -20.487300 -24.587200
O -24.371600 -17.627600 -25.241900
C -24.214200 -18.863200 -25.211600
H -23.319700 -21.352200 -24.989700
C -23.113000 -19.557900 -25.894400
H -23.113000 -17.109700 -26.797200
C -22.816000 -20.903300 -25.627900
N -22.488100 -17.567700 -27.170700
C -22.314700 -18.876400 -26.840000
H -21.973800 -17.199500 -27.753600
C -21.819300 -21.579300 -26.266200
H -21.657800 -22.475800 -26.079000
C -21.286000 -19.593400 -27.468700
C -21.050800 -20.898000 -27.202800
H -20.747900 -19.156400 -28.089600
H -20.367700 -21.342900 -27.650200
