31
Fragment
H -12.553400 -26.783900 -19.106600
H -11.687800 -20.571500 -15.559000
C -11.656700 -26.807300 -19.352200
H -11.312700 -24.876400 -18.890200
N -11.162600 -27.956800 -19.818900
N -11.048600 -20.007900 -15.675900
H -11.043000 -19.269200 -15.236100
C -10.917300 -25.653800 -19.214200
C -10.084300 -20.273900 -16.521600
N -10.033800 -21.406900 -17.237400
H -9.884800 -23.465400 -18.402400
C -9.869900 -27.957500 -20.161600
C -9.587100 -25.664100 -19.561600
H -9.504200 -28.746600 -20.492600
N -9.115300 -23.430100 -18.786100
H -9.109500 -17.701000 -15.698100
C -9.048300 -26.855600 -20.055200
C -8.923500 -19.411300 -16.769600
C -8.834300 -21.363300 -17.938100
C -8.665800 -24.486000 -19.476200
C -8.575600 -18.159100 -16.306400
N -8.356500 -22.294100 -18.686700
H -8.154000 -26.904300 -20.304300
C -8.133500 -20.093400 -17.698300
O -7.567000 -24.491700 -20.008400
C -7.397500 -17.619100 -16.784800
H -7.124300 -16.783200 -16.481800
C -6.991200 -19.550000 -18.175500
C -6.616300 -18.292800 -17.704100
H -6.470800 -20.001400 -18.800100
H -5.830500 -17.901600 -18.012900
31
Fragment
H -18.327700 -32.252400 -17.077200
H -17.687400 -30.152600 -16.290000
C -17.541900 -31.861200 -17.386000
C -17.167000 -30.604000 -16.914600
H -17.033900 -33.370800 -18.608300
C -16.760800 -32.534900 -18.305300
O -16.591200 -25.662300 -15.081700
C -16.024700 -30.060600 -17.391800
H -16.004300 -23.249700 -14.785800
N -15.801700 -27.859900 -16.403500
C -15.582600 -31.994900 -18.783700
C -15.492400 -25.668000 -15.613900
C -15.323900 -28.790700 -17.152000
C -15.234700 -30.742700 -18.320600
C -15.110000 -23.298400 -15.034900
H -15.048700 -32.453000 -19.392000
N -15.043000 -26.723900 -16.304000
H -14.654000 -21.407400 -14.597500
C -14.571200 -24.489900 -15.528500
C -14.288300 -22.196500 -14.928500
H -14.273400 -26.688600 -16.687700
N -14.124400 -28.747100 -17.852700
C -14.073900 -29.880100 -18.568500
C -13.241000 -24.500200 -15.875900
H -13.115200 -30.884800 -19.854000
N -13.109700 -30.146100 -19.414200
N -12.995600 -22.197200 -15.271200
H -12.845500 -25.277600 -16.199900
C -12.501500 -23.346700 -15.737900
H -12.470400 -29.582500 -19.531200
H -11.604800 -23.370100 -15.983500
62
Fragment
H -12.553400 -26.783900 -19.106600
H -11.687800 -20.571500 -15.559000
C -11.656700 -26.807300 -19.352200
H -11.312700 -24.876400 -18.890200
N -11.162600 -27.956800 -19.818900
N -11.048600 -20.007900 -15.675900
H -11.043000 -19.269200 -15.236100
C -10.917300 -25.653800 -19.214200
C -10.084300 -20.273900 -16.521600
N -10.033800 -21.406900 -17.237400
H -9.884800 -23.465400 -18.402400
C -9.869900 -27.957500 -20.161600
C -9.587100 -25.664100 -19.561600
H -9.504200 -28.746600 -20.492600
N -9.115300 -23.430100 -18.786100
H -9.109500 -17.701000 -15.698100
C -9.048300 -26.855600 -20.055200
C -8.923500 -19.411300 -16.769600
C -8.834300 -21.363300 -17.938100
C -8.665800 -24.486000 -19.476200
C -8.575600 -18.159100 -16.306400
N -8.356500 -22.294100 -18.686700
H -8.154000 -26.904300 -20.304300
C -8.133500 -20.093400 -17.698300
O -7.567000 -24.491700 -20.008400
C -7.397500 -17.619100 -16.784800
H -7.124300 -16.783200 -16.481800
C -6.991200 -19.550000 -18.175500
C -6.616300 -18.292800 -17.704100
H -6.470800 -20.001400 -18.800100
H -5.830500 -17.901600 -18.012900
H -18.327700 -32.252400 -17.077200
H -17.687400 -30.152600 -16.290000
C -17.541900 -31.861200 -17.386000
C -17.167000 -30.604000 -16.914600
H -17.033900 -33.370800 -18.608300
C -16.760800 -32.534900 -18.305300
O -16.591200 -25.662300 -15.081700
C -16.024700 -30.060600 -17.391800
H -16.004300 -23.249700 -14.785800
N -15.801700 -27.859900 -16.403500
C -15.582600 -31.994900 -18.783700
C -15.492400 -25.668000 -15.613900
C -15.323900 -28.790700 -17.152000
C -15.234700 -30.742700 -18.320600
C -15.110000 -23.298400 -15.034900
H -15.048700 -32.453000 -19.392000
N -15.043000 -26.723900 -16.304000
H -14.654000 -21.407400 -14.597500
C -14.571200 -24.489900 -15.528500
C -14.288300 -22.196500 -14.928500
H -14.273400 -26.688600 -16.687700
N -14.124400 -28.747100 -17.852700
C -14.073900 -29.880100 -18.568500
C -13.241000 -24.500200 -15.875900
H -13.115200 -30.884800 -19.854000
N -13.109700 -30.146100 -19.414200
N -12.995600 -22.197200 -15.271200
H -12.845500 -25.277600 -16.199900
C -12.501500 -23.346700 -15.737900
H -12.470400 -29.582500 -19.531200
H -11.604800 -23.370100 -15.983500
