34
Fragment
H -18.815100 -20.155900 -29.064500
C -18.116700 -20.132100 -29.678500
H -18.065600 -18.115900 -29.873100
H -17.867200 -22.118000 -29.751300
C -17.677100 -18.913400 -30.151900
C -17.546500 -21.313900 -30.092800
H -16.875300 -16.346600 -31.174800
C -16.630600 -18.929300 -31.062300
C -16.495200 -21.332400 -31.014700
N -16.242500 -16.593900 -31.703600
H -16.110300 -22.129900 -31.296600
C -16.058000 -20.116800 -31.484800
C -15.932100 -17.875400 -31.810500
H -15.810900 -16.007200 -32.162500
C -14.999600 -19.728500 -32.421600
N -14.977000 -18.347900 -32.595300
N -14.191400 -20.579200 -32.981200
N -13.217600 -19.981900 -33.764800
H -13.175000 -19.124700 -33.818700
O -12.492600 -21.984400 -34.473400
C -12.335200 -20.748800 -34.443100
H -11.440700 -18.259800 -34.221200
H -11.234000 -22.502300 -36.028700
C -11.234000 -20.054100 -35.125900
C -10.937000 -18.708700 -34.859400
N -10.609100 -22.044300 -36.402200
C -10.435700 -20.735600 -36.071500
H -10.094800 -22.412500 -36.985100
C -9.940300 -18.032700 -35.497700
H -9.778800 -17.136200 -35.310500
C -9.407000 -20.018600 -36.700200
C -9.171800 -18.714000 -36.434300
H -8.868900 -20.455600 -37.321100
H -8.488700 -18.269100 -36.881700
34
Fragment
H -6.936100 -19.456100 -38.296000
C -6.237700 -19.479900 -38.910000
H -6.186600 -21.496100 -39.104600
H -5.988200 -17.494000 -38.982800
C -5.798100 -20.698600 -39.383400
C -5.667500 -18.298100 -39.324300
H -4.996300 -23.265400 -40.406300
C -4.751600 -20.682700 -40.293800
C -4.616200 -18.279600 -40.246200
N -4.363500 -23.018100 -40.935100
H -4.231300 -17.482100 -40.528100
C -4.179000 -19.495200 -40.716300
C -4.053100 -21.736600 -41.042000
H -3.931900 -23.604800 -41.394000
C -3.120600 -19.883500 -41.653100
N -3.098000 -21.264100 -41.826800
N -2.312400 -19.032800 -42.212700
N -1.338600 -19.630100 -42.996300
H -1.296000 -20.487300 -43.050200
O -0.613600 -17.627600 -43.704900
C -0.456200 -18.863200 -43.674600
H 0.438300 -21.352200 -43.452700
C 0.645000 -19.557900 -44.357400
H 0.645000 -17.109700 -45.260200
C 0.942000 -20.903300 -44.090900
N 1.269900 -17.567700 -45.633700
C 1.443300 -18.876400 -45.303000
H 1.784200 -17.199500 -46.216600
C 1.938700 -21.579300 -44.729200
H 2.100200 -22.475800 -44.542000
C 2.472000 -19.593400 -45.931700
C 2.707200 -20.898000 -45.665800
H 3.010100 -19.156400 -46.552600
H 3.390300 -21.342900 -46.113200
68
Fragment
H -18.815100 -20.155900 -29.064500
C -18.116700 -20.132100 -29.678500
H -18.065600 -18.115900 -29.873100
H -17.867200 -22.118000 -29.751300
C -17.677100 -18.913400 -30.151900
C -17.546500 -21.313900 -30.092800
H -16.875300 -16.346600 -31.174800
C -16.630600 -18.929300 -31.062300
C -16.495200 -21.332400 -31.014700
N -16.242500 -16.593900 -31.703600
H -16.110300 -22.129900 -31.296600
C -16.058000 -20.116800 -31.484800
C -15.932100 -17.875400 -31.810500
H -15.810900 -16.007200 -32.162500
C -14.999600 -19.728500 -32.421600
N -14.977000 -18.347900 -32.595300
N -14.191400 -20.579200 -32.981200
N -13.217600 -19.981900 -33.764800
H -13.175000 -19.124700 -33.818700
O -12.492600 -21.984400 -34.473400
C -12.335200 -20.748800 -34.443100
H -11.440700 -18.259800 -34.221200
H -11.234000 -22.502300 -36.028700
C -11.234000 -20.054100 -35.125900
C -10.937000 -18.708700 -34.859400
N -10.609100 -22.044300 -36.402200
C -10.435700 -20.735600 -36.071500
H -10.094800 -22.412500 -36.985100
C -9.940300 -18.032700 -35.497700
H -9.778800 -17.136200 -35.310500
C -9.407000 -20.018600 -36.700200
C -9.171800 -18.714000 -36.434300
H -8.868900 -20.455600 -37.321100
H -8.488700 -18.269100 -36.881700
H -6.936100 -19.456100 -38.296000
C -6.237700 -19.479900 -38.910000
H -6.186600 -21.496100 -39.104600
H -5.988200 -17.494000 -38.982800
C -5.798100 -20.698600 -39.383400
C -5.667500 -18.298100 -39.324300
H -4.996300 -23.265400 -40.406300
C -4.751600 -20.682700 -40.293800
C -4.616200 -18.279600 -40.246200
N -4.363500 -23.018100 -40.935100
H -4.231300 -17.482100 -40.528100
C -4.179000 -19.495200 -40.716300
C -4.053100 -21.736600 -41.042000
H -3.931900 -23.604800 -41.394000
C -3.120600 -19.883500 -41.653100
N -3.098000 -21.264100 -41.826800
N -2.312400 -19.032800 -42.212700
N -1.338600 -19.630100 -42.996300
H -1.296000 -20.487300 -43.050200
O -0.613600 -17.627600 -43.704900
C -0.456200 -18.863200 -43.674600
H 0.438300 -21.352200 -43.452700
C 0.645000 -19.557900 -44.357400
H 0.645000 -17.109700 -45.260200
C 0.942000 -20.903300 -44.090900
N 1.269900 -17.567700 -45.633700
C 1.443300 -18.876400 -45.303000
H 1.784200 -17.199500 -46.216600
C 1.938700 -21.579300 -44.729200
H 2.100200 -22.475800 -44.542000
C 2.472000 -19.593400 -45.931700
C 2.707200 -20.898000 -45.665800
H 3.010100 -19.156400 -46.552600
H 3.390300 -21.342900 -46.113200
