27
Fragment
H -18.986500 -18.601700 -22.172900
H -18.725000 -18.990400 -24.426400
O -18.498900 -18.520700 -19.794700
H -18.429500 -20.312300 -15.440800
O -18.228000 -20.992800 -17.770300
C -18.181700 -18.942200 -22.491600
C -18.024300 -19.174400 -23.842900
N -17.762800 -19.815500 -15.886400
C -17.577700 -20.056200 -17.230300
C -17.415800 -18.975100 -20.162300
H -17.294900 -18.724400 -14.344100
C -17.156800 -19.208100 -21.609500
C -17.115200 -18.838600 -15.249100
C -16.846500 -19.674100 -24.333200
H -16.743900 -19.834800 -25.243000
C -16.675600 -19.186400 -17.871700
N -16.456200 -19.294000 -19.266600
N -16.257700 -18.039100 -15.792100
C -16.034100 -18.195300 -17.136600
C -15.970800 -19.701900 -22.114600
C -15.825900 -19.930600 -23.467100
H -15.715900 -19.503200 -19.538000
H -15.263400 -19.882800 -21.538300
N -15.170700 -17.339600 -17.666800
H -15.020400 -20.264200 -23.791800
H -14.905300 -17.408100 -18.518800
H -14.795500 -16.766100 -17.134100
27
Fragment
H -20.662200 -10.336800 -9.895600
H -19.997300 -15.320900 -13.499000
H -19.995300 -16.305800 -14.700200
C -19.971400 -10.952000 -9.802700
H -19.840400 -10.820300 -7.819300
H -19.805100 -11.381000 -11.751900
N -19.609700 -15.593300 -14.272700
C -19.478300 -11.234500 -8.568300
C -19.455000 -11.573300 -10.912400
H -19.334800 -13.068000 -13.008400
C -18.649300 -14.884100 -14.879500
N -18.538800 -13.273000 -13.066200
C -18.449100 -12.127200 -8.422900
C -18.416700 -12.482100 -10.793500
N -18.276100 -15.330600 -16.127600
H -18.105900 -12.310500 -7.578800
C -18.067800 -13.762800 -14.301800
C -17.925100 -12.750500 -9.533000
C -17.788700 -13.179500 -11.956400
C -17.342600 -14.658900 -16.721700
H -17.231000 -13.361300 -9.431900
H -17.087100 -14.941400 -17.569300
C -17.042000 -13.066600 -14.970600
N -16.713500 -13.588600 -16.214200
O -16.653000 -13.645900 -11.894200
O -16.448200 -12.056800 -14.550600
H -16.077100 -13.119300 -16.759000
54
Fragment
H -18.986500 -18.601700 -22.172900
H -18.725000 -18.990400 -24.426400
O -18.498900 -18.520700 -19.794700
H -18.429500 -20.312300 -15.440800
O -18.228000 -20.992800 -17.770300
C -18.181700 -18.942200 -22.491600
C -18.024300 -19.174400 -23.842900
N -17.762800 -19.815500 -15.886400
C -17.577700 -20.056200 -17.230300
C -17.415800 -18.975100 -20.162300
H -17.294900 -18.724400 -14.344100
C -17.156800 -19.208100 -21.609500
C -17.115200 -18.838600 -15.249100
C -16.846500 -19.674100 -24.333200
H -16.743900 -19.834800 -25.243000
C -16.675600 -19.186400 -17.871700
N -16.456200 -19.294000 -19.266600
N -16.257700 -18.039100 -15.792100
C -16.034100 -18.195300 -17.136600
C -15.970800 -19.701900 -22.114600
C -15.825900 -19.930600 -23.467100
H -15.715900 -19.503200 -19.538000
H -15.263400 -19.882800 -21.538300
N -15.170700 -17.339600 -17.666800
H -15.020400 -20.264200 -23.791800
H -14.905300 -17.408100 -18.518800
H -14.795500 -16.766100 -17.134100
H -20.662200 -10.336800 -9.895600
H -19.997300 -15.320900 -13.499000
H -19.995300 -16.305800 -14.700200
C -19.971400 -10.952000 -9.802700
H -19.840400 -10.820300 -7.819300
H -19.805100 -11.381000 -11.751900
N -19.609700 -15.593300 -14.272700
C -19.478300 -11.234500 -8.568300
C -19.455000 -11.573300 -10.912400
H -19.334800 -13.068000 -13.008400
C -18.649300 -14.884100 -14.879500
N -18.538800 -13.273000 -13.066200
C -18.449100 -12.127200 -8.422900
C -18.416700 -12.482100 -10.793500
N -18.276100 -15.330600 -16.127600
H -18.105900 -12.310500 -7.578800
C -18.067800 -13.762800 -14.301800
C -17.925100 -12.750500 -9.533000
C -17.788700 -13.179500 -11.956400
C -17.342600 -14.658900 -16.721700
H -17.231000 -13.361300 -9.431900
H -17.087100 -14.941400 -17.569300
C -17.042000 -13.066600 -14.970600
N -16.713500 -13.588600 -16.214200
O -16.653000 -13.645900 -11.894200
O -16.448200 -12.056800 -14.550600
H -16.077100 -13.119300 -16.759000
