27
Fragment
H -18.986500 -18.601700 -22.172900
H -18.725000 -18.990400 -24.426400
O -18.498900 -18.520700 -19.794700
H -18.429500 -20.312300 -15.440800
O -18.228000 -20.992800 -17.770300
C -18.181700 -18.942200 -22.491600
C -18.024300 -19.174400 -23.842900
N -17.762800 -19.815500 -15.886400
C -17.577700 -20.056200 -17.230300
C -17.415800 -18.975100 -20.162300
H -17.294900 -18.724400 -14.344100
C -17.156800 -19.208100 -21.609500
C -17.115200 -18.838600 -15.249100
C -16.846500 -19.674100 -24.333200
H -16.743900 -19.834800 -25.243000
C -16.675600 -19.186400 -17.871700
N -16.456200 -19.294000 -19.266600
N -16.257700 -18.039100 -15.792100
C -16.034100 -18.195300 -17.136600
C -15.970800 -19.701900 -22.114600
C -15.825900 -19.930600 -23.467100
H -15.715900 -19.503200 -19.538000
H -15.263400 -19.882800 -21.538300
N -15.170700 -17.339600 -17.666800
H -15.020400 -20.264200 -23.791800
H -14.905300 -17.408100 -18.518800
H -14.795500 -16.766100 -17.134100
27
Fragment
H -16.402300 -19.632200 -30.341900
H -16.292500 -18.990200 -28.957200
H -16.177400 -16.134000 -23.684200
N -16.027100 -19.058700 -29.809200
H -15.934400 -16.515500 -25.937700
H -15.481900 -16.895100 -27.938100
C -15.371900 -16.467600 -24.008900
C -15.227000 -16.696400 -25.361400
C -15.163700 -18.202900 -30.339400
N -14.940100 -18.359200 -31.683900
N -14.741600 -17.104200 -28.209500
C -14.522200 -17.211900 -29.604300
H -14.453900 -16.563500 -22.233000
C -14.351300 -16.724200 -23.142800
C -14.082600 -17.559700 -32.226900
C -14.041000 -17.190200 -25.866500
H -13.902900 -17.673900 -33.131900
C -13.782000 -17.423200 -27.313700
C -13.620100 -16.342100 -30.245700
N -13.434900 -16.582800 -31.589600
C -13.173500 -17.223900 -23.633100
C -13.016100 -17.456100 -24.984400
O -12.969800 -15.405500 -29.705700
H -12.768300 -16.086000 -32.035200
O -12.698900 -17.877600 -27.681400
H -12.472800 -17.407900 -23.049600
H -12.211300 -17.796600 -25.303100
54
Fragment
H -18.986500 -18.601700 -22.172900
H -18.725000 -18.990400 -24.426400
O -18.498900 -18.520700 -19.794700
H -18.429500 -20.312300 -15.440800
O -18.228000 -20.992800 -17.770300
C -18.181700 -18.942200 -22.491600
C -18.024300 -19.174400 -23.842900
N -17.762800 -19.815500 -15.886400
C -17.577700 -20.056200 -17.230300
C -17.415800 -18.975100 -20.162300
H -17.294900 -18.724400 -14.344100
C -17.156800 -19.208100 -21.609500
C -17.115200 -18.838600 -15.249100
C -16.846500 -19.674100 -24.333200
H -16.743900 -19.834800 -25.243000
C -16.675600 -19.186400 -17.871700
N -16.456200 -19.294000 -19.266600
N -16.257700 -18.039100 -15.792100
C -16.034100 -18.195300 -17.136600
C -15.970800 -19.701900 -22.114600
C -15.825900 -19.930600 -23.467100
H -15.715900 -19.503200 -19.538000
H -15.263400 -19.882800 -21.538300
N -15.170700 -17.339600 -17.666800
H -15.020400 -20.264200 -23.791800
H -14.905300 -17.408100 -18.518800
H -14.795500 -16.766100 -17.134100
H -16.402300 -19.632200 -30.341900
H -16.292500 -18.990200 -28.957200
H -16.177400 -16.134000 -23.684200
N -16.027100 -19.058700 -29.809200
H -15.934400 -16.515500 -25.937700
H -15.481900 -16.895100 -27.938100
C -15.371900 -16.467600 -24.008900
C -15.227000 -16.696400 -25.361400
C -15.163700 -18.202900 -30.339400
N -14.940100 -18.359200 -31.683900
N -14.741600 -17.104200 -28.209500
C -14.522200 -17.211900 -29.604300
H -14.453900 -16.563500 -22.233000
C -14.351300 -16.724200 -23.142800
C -14.082600 -17.559700 -32.226900
C -14.041000 -17.190200 -25.866500
H -13.902900 -17.673900 -33.131900
C -13.782000 -17.423200 -27.313700
C -13.620100 -16.342100 -30.245700
N -13.434900 -16.582800 -31.589600
C -13.173500 -17.223900 -23.633100
C -13.016100 -17.456100 -24.984400
O -12.969800 -15.405500 -29.705700
H -12.768300 -16.086000 -32.035200
O -12.698900 -17.877600 -27.681400
H -12.472800 -17.407900 -23.049600
H -12.211300 -17.796600 -25.303100
