27
Fragment
H -18.986500 -18.601700 -22.172900
H -18.725000 -18.990400 -24.426400
O -18.498900 -18.520700 -19.794700
H -18.429500 -20.312300 -15.440800
O -18.228000 -20.992800 -17.770300
C -18.181700 -18.942200 -22.491600
C -18.024300 -19.174400 -23.842900
N -17.762800 -19.815500 -15.886400
C -17.577700 -20.056200 -17.230300
C -17.415800 -18.975100 -20.162300
H -17.294900 -18.724400 -14.344100
C -17.156800 -19.208100 -21.609500
C -17.115200 -18.838600 -15.249100
C -16.846500 -19.674100 -24.333200
H -16.743900 -19.834800 -25.243000
C -16.675600 -19.186400 -17.871700
N -16.456200 -19.294000 -19.266600
N -16.257700 -18.039100 -15.792100
C -16.034100 -18.195300 -17.136600
C -15.970800 -19.701900 -22.114600
C -15.825900 -19.930600 -23.467100
H -15.715900 -19.503200 -19.538000
H -15.263400 -19.882800 -21.538300
N -15.170700 -17.339600 -17.666800
H -15.020400 -20.264200 -23.791800
H -14.905300 -17.408100 -18.518800
H -14.795500 -16.766100 -17.134100
27
Fragment
H -18.733200 -25.545300 -14.516600
H -18.623400 -24.903300 -13.131900
H -18.508400 -22.047100 -7.858900
N -18.358100 -24.971800 -13.983900
H -18.265300 -22.428600 -10.112400
H -17.812800 -22.808200 -12.112700
C -17.702800 -22.380700 -8.183600
C -17.557900 -22.609500 -9.536000
C -17.494600 -24.116000 -14.514100
N -17.271000 -24.272200 -15.858600
N -17.072500 -23.017300 -12.384100
C -16.853200 -23.125000 -13.779000
H -16.784900 -22.476600 -6.407700
C -16.682300 -22.637300 -7.317500
C -16.413500 -23.472800 -16.401500
C -16.371900 -23.103300 -10.041200
H -16.233800 -23.587000 -17.306600
C -16.112900 -23.336300 -11.488400
C -15.951100 -22.255100 -14.420400
N -15.765900 -22.495900 -15.764300
C -15.504500 -23.137000 -7.807700
C -15.347000 -23.369100 -9.159100
O -15.300700 -21.318600 -13.880400
H -15.099200 -21.999100 -16.209900
O -15.029900 -23.790700 -11.856000
H -14.803800 -23.321000 -7.224300
H -14.542200 -23.709700 -9.477800
54
Fragment
H -18.986500 -18.601700 -22.172900
H -18.725000 -18.990400 -24.426400
O -18.498900 -18.520700 -19.794700
H -18.429500 -20.312300 -15.440800
O -18.228000 -20.992800 -17.770300
C -18.181700 -18.942200 -22.491600
C -18.024300 -19.174400 -23.842900
N -17.762800 -19.815500 -15.886400
C -17.577700 -20.056200 -17.230300
C -17.415800 -18.975100 -20.162300
H -17.294900 -18.724400 -14.344100
C -17.156800 -19.208100 -21.609500
C -17.115200 -18.838600 -15.249100
C -16.846500 -19.674100 -24.333200
H -16.743900 -19.834800 -25.243000
C -16.675600 -19.186400 -17.871700
N -16.456200 -19.294000 -19.266600
N -16.257700 -18.039100 -15.792100
C -16.034100 -18.195300 -17.136600
C -15.970800 -19.701900 -22.114600
C -15.825900 -19.930600 -23.467100
H -15.715900 -19.503200 -19.538000
H -15.263400 -19.882800 -21.538300
N -15.170700 -17.339600 -17.666800
H -15.020400 -20.264200 -23.791800
H -14.905300 -17.408100 -18.518800
H -14.795500 -16.766100 -17.134100
H -18.733200 -25.545300 -14.516600
H -18.623400 -24.903300 -13.131900
H -18.508400 -22.047100 -7.858900
N -18.358100 -24.971800 -13.983900
H -18.265300 -22.428600 -10.112400
H -17.812800 -22.808200 -12.112700
C -17.702800 -22.380700 -8.183600
C -17.557900 -22.609500 -9.536000
C -17.494600 -24.116000 -14.514100
N -17.271000 -24.272200 -15.858600
N -17.072500 -23.017300 -12.384100
C -16.853200 -23.125000 -13.779000
H -16.784900 -22.476600 -6.407700
C -16.682300 -22.637300 -7.317500
C -16.413500 -23.472800 -16.401500
C -16.371900 -23.103300 -10.041200
H -16.233800 -23.587000 -17.306600
C -16.112900 -23.336300 -11.488400
C -15.951100 -22.255100 -14.420400
N -15.765900 -22.495900 -15.764300
C -15.504500 -23.137000 -7.807700
C -15.347000 -23.369100 -9.159100
O -15.300700 -21.318600 -13.880400
H -15.099200 -21.999100 -16.209900
O -15.029900 -23.790700 -11.856000
H -14.803800 -23.321000 -7.224300
H -14.542200 -23.709700 -9.477800
