26
Fragment
O -15.074500 -14.251400 -11.451500
H -14.667700 -11.642900 -12.012300
N -14.561500 -14.378000 -12.562200
O -14.476400 -15.451500 -13.150900
H -14.248900 -9.338300 -13.121500
C -14.243600 -11.924600 -12.791000
C -14.063000 -13.216900 -13.213500
H -13.766100 -9.373800 -14.612100
N -13.688500 -11.159000 -13.720300
C -13.578800 -9.704800 -13.720100
C -13.381100 -13.142400 -14.425000
N -13.133800 -11.882700 -14.744300
H -13.133400 -13.876500 -14.938800
C -12.211900 -9.214000 -13.289800
H -12.134700 -8.268700 -13.495100
N -11.973000 -9.415100 -11.864800
N -11.950900 -7.184800 -11.239600
C -11.863200 -8.475500 -10.906000
N -11.833200 -6.316000 -10.224500
O -11.790700 -6.687400 -9.045100
O -11.786000 -5.122700 -10.526400
N -11.779200 -10.650000 -11.334600
N -11.626000 -9.177500 -9.792000
N -11.576600 -10.506000 -10.082300
H -11.551200 -8.875400 -8.861800
H -11.531900 -9.685000 -13.795400
26
Fragment
H -20.526500 -5.351300 -10.657600
H -20.507200 -4.541700 -15.591200
N -20.481800 -6.172300 -14.370700
N -20.432400 -4.843800 -14.661000
N -20.279200 -6.316300 -13.118400
O -20.272400 -0.789000 -13.926600
O -20.267700 -2.353700 -15.407900
N -20.225200 -1.982300 -14.228500
C -20.195200 -4.141800 -13.547000
N -20.107500 -2.851100 -13.213400
N -20.085500 -5.081400 -12.588200
H -19.923800 -3.935000 -10.957900
C -19.846500 -4.880300 -11.163200
H -18.925000 -9.542800 -9.514200
N -18.924700 -7.549000 -9.708700
C -18.677300 -8.808700 -10.028000
C -18.479600 -5.371100 -10.732900
N -18.369900 -6.825300 -10.732700
H -18.292300 -5.040100 -9.840900
C -17.995400 -8.883200 -11.239500
C -17.814800 -7.590900 -11.662000
H -17.809500 -5.004600 -11.331500
O -17.582000 -11.117800 -11.302100
N -17.496900 -10.044300 -11.890800
H -17.390700 -7.309200 -12.440700
O -16.984000 -9.917700 -13.001500
52
Fragment
O -15.074500 -14.251400 -11.451500
H -14.667700 -11.642900 -12.012300
N -14.561500 -14.378000 -12.562200
O -14.476400 -15.451500 -13.150900
H -14.248900 -9.338300 -13.121500
C -14.243600 -11.924600 -12.791000
C -14.063000 -13.216900 -13.213500
H -13.766100 -9.373800 -14.612100
N -13.688500 -11.159000 -13.720300
C -13.578800 -9.704800 -13.720100
C -13.381100 -13.142400 -14.425000
N -13.133800 -11.882700 -14.744300
H -13.133400 -13.876500 -14.938800
C -12.211900 -9.214000 -13.289800
H -12.134700 -8.268700 -13.495100
N -11.973000 -9.415100 -11.864800
N -11.950900 -7.184800 -11.239600
C -11.863200 -8.475500 -10.906000
N -11.833200 -6.316000 -10.224500
O -11.790700 -6.687400 -9.045100
O -11.786000 -5.122700 -10.526400
N -11.779200 -10.650000 -11.334600
N -11.626000 -9.177500 -9.792000
N -11.576600 -10.506000 -10.082300
H -11.551200 -8.875400 -8.861800
H -11.531900 -9.685000 -13.795400
H -20.526500 -5.351300 -10.657600
H -20.507200 -4.541700 -15.591200
N -20.481800 -6.172300 -14.370700
N -20.432400 -4.843800 -14.661000
N -20.279200 -6.316300 -13.118400
O -20.272400 -0.789000 -13.926600
O -20.267700 -2.353700 -15.407900
N -20.225200 -1.982300 -14.228500
C -20.195200 -4.141800 -13.547000
N -20.107500 -2.851100 -13.213400
N -20.085500 -5.081400 -12.588200
H -19.923800 -3.935000 -10.957900
C -19.846500 -4.880300 -11.163200
H -18.925000 -9.542800 -9.514200
N -18.924700 -7.549000 -9.708700
C -18.677300 -8.808700 -10.028000
C -18.479600 -5.371100 -10.732900
N -18.369900 -6.825300 -10.732700
H -18.292300 -5.040100 -9.840900
C -17.995400 -8.883200 -11.239500
C -17.814800 -7.590900 -11.662000
H -17.809500 -5.004600 -11.331500
O -17.582000 -11.117800 -11.302100
N -17.496900 -10.044300 -11.890800
H -17.390700 -7.309200 -12.440700
O -16.984000 -9.917700 -13.001500
