26
Fragment
O -15.074500 -14.251400 -11.451500
H -14.667700 -11.642900 -12.012300
N -14.561500 -14.378000 -12.562200
O -14.476400 -15.451500 -13.150900
H -14.248900 -9.338300 -13.121500
C -14.243600 -11.924600 -12.791000
C -14.063000 -13.216900 -13.213500
H -13.766100 -9.373800 -14.612100
N -13.688500 -11.159000 -13.720300
C -13.578800 -9.704800 -13.720100
C -13.381100 -13.142400 -14.425000
N -13.133800 -11.882700 -14.744300
H -13.133400 -13.876500 -14.938800
C -12.211900 -9.214000 -13.289800
H -12.134700 -8.268700 -13.495100
N -11.973000 -9.415100 -11.864800
N -11.950900 -7.184800 -11.239600
C -11.863200 -8.475500 -10.906000
N -11.833200 -6.316000 -10.224500
O -11.790700 -6.687400 -9.045100
O -11.786000 -5.122700 -10.526400
N -11.779200 -10.650000 -11.334600
N -11.626000 -9.177500 -9.792000
N -11.576600 -10.506000 -10.082300
H -11.551200 -8.875400 -8.861800
H -11.531900 -9.685000 -13.795400
26
Fragment
O -16.837100 -7.417100 -6.560900
H -16.430400 -10.025600 -7.121700
N -16.324200 -7.290500 -7.671600
O -16.239100 -6.217000 -8.260300
H -16.011500 -12.330200 -8.230900
C -16.006300 -9.743900 -7.900400
C -15.825700 -8.451600 -8.322900
H -15.528800 -12.294700 -9.721500
N -15.451200 -10.509500 -8.829700
C -15.341400 -11.963700 -8.829500
C -15.143800 -8.526100 -9.534400
N -14.896400 -9.785800 -9.853700
H -14.896100 -7.792000 -10.048200
C -13.974600 -12.454500 -8.399200
H -13.897300 -13.399800 -8.604500
N -13.735600 -12.253400 -6.974200
N -13.713500 -14.483700 -6.349000
C -13.625900 -13.193000 -6.015400
N -13.595900 -15.352500 -5.333900
O -13.553400 -14.981100 -4.154500
O -13.548600 -16.545800 -5.635800
N -13.541800 -11.018500 -6.444000
N -13.388700 -12.491000 -4.901400
N -13.339200 -11.162500 -5.191700
H -13.313900 -12.793100 -3.971200
H -13.294600 -11.983500 -8.904800
52
Fragment
O -15.074500 -14.251400 -11.451500
H -14.667700 -11.642900 -12.012300
N -14.561500 -14.378000 -12.562200
O -14.476400 -15.451500 -13.150900
H -14.248900 -9.338300 -13.121500
C -14.243600 -11.924600 -12.791000
C -14.063000 -13.216900 -13.213500
H -13.766100 -9.373800 -14.612100
N -13.688500 -11.159000 -13.720300
C -13.578800 -9.704800 -13.720100
C -13.381100 -13.142400 -14.425000
N -13.133800 -11.882700 -14.744300
H -13.133400 -13.876500 -14.938800
C -12.211900 -9.214000 -13.289800
H -12.134700 -8.268700 -13.495100
N -11.973000 -9.415100 -11.864800
N -11.950900 -7.184800 -11.239600
C -11.863200 -8.475500 -10.906000
N -11.833200 -6.316000 -10.224500
O -11.790700 -6.687400 -9.045100
O -11.786000 -5.122700 -10.526400
N -11.779200 -10.650000 -11.334600
N -11.626000 -9.177500 -9.792000
N -11.576600 -10.506000 -10.082300
H -11.551200 -8.875400 -8.861800
H -11.531900 -9.685000 -13.795400
O -16.837100 -7.417100 -6.560900
H -16.430400 -10.025600 -7.121700
N -16.324200 -7.290500 -7.671600
O -16.239100 -6.217000 -8.260300
H -16.011500 -12.330200 -8.230900
C -16.006300 -9.743900 -7.900400
C -15.825700 -8.451600 -8.322900
H -15.528800 -12.294700 -9.721500
N -15.451200 -10.509500 -8.829700
C -15.341400 -11.963700 -8.829500
C -15.143800 -8.526100 -9.534400
N -14.896400 -9.785800 -9.853700
H -14.896100 -7.792000 -10.048200
C -13.974600 -12.454500 -8.399200
H -13.897300 -13.399800 -8.604500
N -13.735600 -12.253400 -6.974200
N -13.713500 -14.483700 -6.349000
C -13.625900 -13.193000 -6.015400
N -13.595900 -15.352500 -5.333900
O -13.553400 -14.981100 -4.154500
O -13.548600 -16.545800 -5.635800
N -13.541800 -11.018500 -6.444000
N -13.388700 -12.491000 -4.901400
N -13.339200 -11.162500 -5.191700
H -13.313900 -12.793100 -3.971200
H -13.294600 -11.983500 -8.904800
