26
Fragment
O -15.074500 -14.251400 -11.451500
H -14.667700 -11.642900 -12.012300
N -14.561500 -14.378000 -12.562200
O -14.476400 -15.451500 -13.150900
H -14.248900 -9.338300 -13.121500
C -14.243600 -11.924600 -12.791000
C -14.063000 -13.216900 -13.213500
H -13.766100 -9.373800 -14.612100
N -13.688500 -11.159000 -13.720300
C -13.578800 -9.704800 -13.720100
C -13.381100 -13.142400 -14.425000
N -13.133800 -11.882700 -14.744300
H -13.133400 -13.876500 -14.938800
C -12.211900 -9.214000 -13.289800
H -12.134700 -8.268700 -13.495100
N -11.973000 -9.415100 -11.864800
N -11.950900 -7.184800 -11.239600
C -11.863200 -8.475500 -10.906000
N -11.833200 -6.316000 -10.224500
O -11.790700 -6.687400 -9.045100
O -11.786000 -5.122700 -10.526400
N -11.779200 -10.650000 -11.334600
N -11.626000 -9.177500 -9.792000
N -11.576600 -10.506000 -10.082300
H -11.551200 -8.875400 -8.861800
H -11.531900 -9.685000 -13.795400
26
Fragment
O -15.074500 -5.584000 -11.451500
H -14.667700 -2.975500 -12.012300
N -14.561500 -5.710600 -12.562200
O -14.476400 -6.784100 -13.150900
H -14.248900 -0.670900 -13.121500
C -14.243600 -3.257200 -12.791000
C -14.063000 -4.549500 -13.213500
H -13.766100 -0.706400 -14.612100
N -13.688500 -2.491600 -13.720300
C -13.578800 -1.037400 -13.720100
C -13.381100 -4.475000 -14.425000
N -13.133800 -3.215300 -14.744300
H -13.133400 -5.209100 -14.938800
C -12.211900 -0.546600 -13.289800
H -12.134700 0.398700 -13.495100
N -11.973000 -0.747700 -11.864800
N -11.950900 1.482600 -11.239600
C -11.863200 0.191900 -10.906000
N -11.833200 2.351400 -10.224500
O -11.790700 1.980000 -9.045100
O -11.786000 3.544700 -10.526400
N -11.779200 -1.982600 -11.334600
N -11.626000 -0.510100 -9.792000
N -11.576600 -1.838600 -10.082300
H -11.551200 -0.208000 -8.861800
H -11.531900 -1.017600 -13.795400
52
Fragment
O -15.074500 -14.251400 -11.451500
H -14.667700 -11.642900 -12.012300
N -14.561500 -14.378000 -12.562200
O -14.476400 -15.451500 -13.150900
H -14.248900 -9.338300 -13.121500
C -14.243600 -11.924600 -12.791000
C -14.063000 -13.216900 -13.213500
H -13.766100 -9.373800 -14.612100
N -13.688500 -11.159000 -13.720300
C -13.578800 -9.704800 -13.720100
C -13.381100 -13.142400 -14.425000
N -13.133800 -11.882700 -14.744300
H -13.133400 -13.876500 -14.938800
C -12.211900 -9.214000 -13.289800
H -12.134700 -8.268700 -13.495100
N -11.973000 -9.415100 -11.864800
N -11.950900 -7.184800 -11.239600
C -11.863200 -8.475500 -10.906000
N -11.833200 -6.316000 -10.224500
O -11.790700 -6.687400 -9.045100
O -11.786000 -5.122700 -10.526400
N -11.779200 -10.650000 -11.334600
N -11.626000 -9.177500 -9.792000
N -11.576600 -10.506000 -10.082300
H -11.551200 -8.875400 -8.861800
H -11.531900 -9.685000 -13.795400
O -15.074500 -5.584000 -11.451500
H -14.667700 -2.975500 -12.012300
N -14.561500 -5.710600 -12.562200
O -14.476400 -6.784100 -13.150900
H -14.248900 -0.670900 -13.121500
C -14.243600 -3.257200 -12.791000
C -14.063000 -4.549500 -13.213500
H -13.766100 -0.706400 -14.612100
N -13.688500 -2.491600 -13.720300
C -13.578800 -1.037400 -13.720100
C -13.381100 -4.475000 -14.425000
N -13.133800 -3.215300 -14.744300
H -13.133400 -5.209100 -14.938800
C -12.211900 -0.546600 -13.289800
H -12.134700 0.398700 -13.495100
N -11.973000 -0.747700 -11.864800
N -11.950900 1.482600 -11.239600
C -11.863200 0.191900 -10.906000
N -11.833200 2.351400 -10.224500
O -11.790700 1.980000 -9.045100
O -11.786000 3.544700 -10.526400
N -11.779200 -1.982600 -11.334600
N -11.626000 -0.510100 -9.792000
N -11.576600 -1.838600 -10.082300
H -11.551200 -0.208000 -8.861800
H -11.531900 -1.017600 -13.795400
