26
Fragment
O -15.074500 -14.251400 -11.451500
H -14.667700 -11.642900 -12.012300
N -14.561500 -14.378000 -12.562200
O -14.476400 -15.451500 -13.150900
H -14.248900 -9.338300 -13.121500
C -14.243600 -11.924600 -12.791000
C -14.063000 -13.216900 -13.213500
H -13.766100 -9.373800 -14.612100
N -13.688500 -11.159000 -13.720300
C -13.578800 -9.704800 -13.720100
C -13.381100 -13.142400 -14.425000
N -13.133800 -11.882700 -14.744300
H -13.133400 -13.876500 -14.938800
C -12.211900 -9.214000 -13.289800
H -12.134700 -8.268700 -13.495100
N -11.973000 -9.415100 -11.864800
N -11.950900 -7.184800 -11.239600
C -11.863200 -8.475500 -10.906000
N -11.833200 -6.316000 -10.224500
O -11.790700 -6.687400 -9.045100
O -11.786000 -5.122700 -10.526400
N -11.779200 -10.650000 -11.334600
N -11.626000 -9.177500 -9.792000
N -11.576600 -10.506000 -10.082300
H -11.551200 -8.875400 -8.861800
H -11.531900 -9.685000 -13.795400
26
Fragment
O -13.311800 -16.084500 -16.342100
H -12.905100 -18.693000 -16.902900
N -12.798900 -15.957900 -17.452800
O -12.713800 -14.884400 -18.041500
H -12.486200 -20.997600 -18.012100
C -12.481000 -18.411300 -17.681600
C -12.300300 -17.119000 -18.104100
H -12.003500 -20.962100 -19.502700
N -11.925900 -19.176900 -18.610900
C -11.816100 -20.631100 -18.610700
C -11.618500 -17.193500 -19.315600
N -11.371100 -18.453200 -19.634900
H -11.370800 -16.459400 -19.829400
C -10.449300 -21.121900 -18.180400
H -10.372000 -22.067200 -18.385700
N -10.210300 -20.920800 -16.755400
N -10.188200 -23.151100 -16.130200
C -10.100500 -21.860400 -15.796600
N -10.070600 -24.019900 -15.115100
O -10.028100 -23.648500 -13.935700
O -10.023300 -25.213200 -15.417000
N -10.016500 -19.685900 -16.225200
N -9.863400 -21.158400 -14.682600
N -9.813900 -19.829900 -14.972900
H -9.788600 -21.460500 -13.752400
H -9.769200 -20.650900 -18.686000
52
Fragment
O -15.074500 -14.251400 -11.451500
H -14.667700 -11.642900 -12.012300
N -14.561500 -14.378000 -12.562200
O -14.476400 -15.451500 -13.150900
H -14.248900 -9.338300 -13.121500
C -14.243600 -11.924600 -12.791000
C -14.063000 -13.216900 -13.213500
H -13.766100 -9.373800 -14.612100
N -13.688500 -11.159000 -13.720300
C -13.578800 -9.704800 -13.720100
C -13.381100 -13.142400 -14.425000
N -13.133800 -11.882700 -14.744300
H -13.133400 -13.876500 -14.938800
C -12.211900 -9.214000 -13.289800
H -12.134700 -8.268700 -13.495100
N -11.973000 -9.415100 -11.864800
N -11.950900 -7.184800 -11.239600
C -11.863200 -8.475500 -10.906000
N -11.833200 -6.316000 -10.224500
O -11.790700 -6.687400 -9.045100
O -11.786000 -5.122700 -10.526400
N -11.779200 -10.650000 -11.334600
N -11.626000 -9.177500 -9.792000
N -11.576600 -10.506000 -10.082300
H -11.551200 -8.875400 -8.861800
H -11.531900 -9.685000 -13.795400
O -13.311800 -16.084500 -16.342100
H -12.905100 -18.693000 -16.902900
N -12.798900 -15.957900 -17.452800
O -12.713800 -14.884400 -18.041500
H -12.486200 -20.997600 -18.012100
C -12.481000 -18.411300 -17.681600
C -12.300300 -17.119000 -18.104100
H -12.003500 -20.962100 -19.502700
N -11.925900 -19.176900 -18.610900
C -11.816100 -20.631100 -18.610700
C -11.618500 -17.193500 -19.315600
N -11.371100 -18.453200 -19.634900
H -11.370800 -16.459400 -19.829400
C -10.449300 -21.121900 -18.180400
H -10.372000 -22.067200 -18.385700
N -10.210300 -20.920800 -16.755400
N -10.188200 -23.151100 -16.130200
C -10.100500 -21.860400 -15.796600
N -10.070600 -24.019900 -15.115100
O -10.028100 -23.648500 -13.935700
O -10.023300 -25.213200 -15.417000
N -10.016500 -19.685900 -16.225200
N -9.863400 -21.158400 -14.682600
N -9.813900 -19.829900 -14.972900
H -9.788600 -21.460500 -13.752400
H -9.769200 -20.650900 -18.686000
