26
Fragment
O -15.074500 -14.251400 -11.451500
H -14.667700 -11.642900 -12.012300
N -14.561500 -14.378000 -12.562200
O -14.476400 -15.451500 -13.150900
H -14.248900 -9.338300 -13.121500
C -14.243600 -11.924600 -12.791000
C -14.063000 -13.216900 -13.213500
H -13.766100 -9.373800 -14.612100
N -13.688500 -11.159000 -13.720300
C -13.578800 -9.704800 -13.720100
C -13.381100 -13.142400 -14.425000
N -13.133800 -11.882700 -14.744300
H -13.133400 -13.876500 -14.938800
C -12.211900 -9.214000 -13.289800
H -12.134700 -8.268700 -13.495100
N -11.973000 -9.415100 -11.864800
N -11.950900 -7.184800 -11.239600
C -11.863200 -8.475500 -10.906000
N -11.833200 -6.316000 -10.224500
O -11.790700 -6.687400 -9.045100
O -11.786000 -5.122700 -10.526400
N -11.779200 -10.650000 -11.334600
N -11.626000 -9.177500 -9.792000
N -11.576600 -10.506000 -10.082300
H -11.551200 -8.875400 -8.861800
H -11.531900 -9.685000 -13.795400
3
Fragment
H -11.793900 -8.528700 -6.729500
O -11.191400 -8.786500 -7.211200
H -10.994000 -9.378100 -6.680600
29
Fragment
O -15.074500 -14.251400 -11.451500
H -14.667700 -11.642900 -12.012300
N -14.561500 -14.378000 -12.562200
O -14.476400 -15.451500 -13.150900
H -14.248900 -9.338300 -13.121500
C -14.243600 -11.924600 -12.791000
C -14.063000 -13.216900 -13.213500
H -13.766100 -9.373800 -14.612100
N -13.688500 -11.159000 -13.720300
C -13.578800 -9.704800 -13.720100
C -13.381100 -13.142400 -14.425000
N -13.133800 -11.882700 -14.744300
H -13.133400 -13.876500 -14.938800
C -12.211900 -9.214000 -13.289800
H -12.134700 -8.268700 -13.495100
N -11.973000 -9.415100 -11.864800
N -11.950900 -7.184800 -11.239600
C -11.863200 -8.475500 -10.906000
N -11.833200 -6.316000 -10.224500
O -11.790700 -6.687400 -9.045100
O -11.786000 -5.122700 -10.526400
N -11.779200 -10.650000 -11.334600
N -11.626000 -9.177500 -9.792000
N -11.576600 -10.506000 -10.082300
H -11.551200 -8.875400 -8.861800
H -11.531900 -9.685000 -13.795400
H -11.793900 -8.528700 -6.729500
O -11.191400 -8.786500 -7.211200
H -10.994000 -9.378100 -6.680600
