26
Fragment
O -15.074500 -14.251400 -11.451500
H -14.667700 -11.642900 -12.012300
N -14.561500 -14.378000 -12.562200
O -14.476400 -15.451500 -13.150900
H -14.248900 -9.338300 -13.121500
C -14.243600 -11.924600 -12.791000
C -14.063000 -13.216900 -13.213500
H -13.766100 -9.373800 -14.612100
N -13.688500 -11.159000 -13.720300
C -13.578800 -9.704800 -13.720100
C -13.381100 -13.142400 -14.425000
N -13.133800 -11.882700 -14.744300
H -13.133400 -13.876500 -14.938800
C -12.211900 -9.214000 -13.289800
H -12.134700 -8.268700 -13.495100
N -11.973000 -9.415100 -11.864800
N -11.950900 -7.184800 -11.239600
C -11.863200 -8.475500 -10.906000
N -11.833200 -6.316000 -10.224500
O -11.790700 -6.687400 -9.045100
O -11.786000 -5.122700 -10.526400
N -11.779200 -10.650000 -11.334600
N -11.626000 -9.177500 -9.792000
N -11.576600 -10.506000 -10.082300
H -11.551200 -8.875400 -8.861800
H -11.531900 -9.685000 -13.795400
26
Fragment
H -8.665300 -7.649800 -5.767000
H -8.646000 -8.459400 -10.700600
N -8.620600 -6.828800 -9.480100
N -8.571100 -8.157300 -9.770400
N -8.418000 -6.684800 -8.227800
O -8.411200 -12.212100 -9.036000
O -8.406400 -10.647400 -10.517300
N -8.364000 -11.018800 -9.337900
C -8.334000 -8.859300 -8.656400
N -8.246300 -10.150000 -8.322800
N -8.224200 -7.919700 -7.697600
H -8.062500 -9.066100 -6.067300
C -7.985200 -8.120800 -6.272600
H -7.063800 -3.458300 -4.623600
N -7.063400 -5.452100 -4.818100
C -6.816100 -4.192400 -5.137400
C -6.618400 -7.630000 -5.842300
N -6.508700 -6.175800 -5.842100
H -6.431100 -7.961000 -4.950300
C -6.134200 -4.117900 -6.348900
C -5.953600 -5.410200 -6.771400
H -5.948300 -7.996500 -6.440900
O -5.720800 -1.883300 -6.411500
N -5.635700 -2.956800 -7.000200
H -5.529400 -5.691900 -7.550100
O -5.122700 -3.083400 -8.110900
52
Fragment
O -15.074500 -14.251400 -11.451500
H -14.667700 -11.642900 -12.012300
N -14.561500 -14.378000 -12.562200
O -14.476400 -15.451500 -13.150900
H -14.248900 -9.338300 -13.121500
C -14.243600 -11.924600 -12.791000
C -14.063000 -13.216900 -13.213500
H -13.766100 -9.373800 -14.612100
N -13.688500 -11.159000 -13.720300
C -13.578800 -9.704800 -13.720100
C -13.381100 -13.142400 -14.425000
N -13.133800 -11.882700 -14.744300
H -13.133400 -13.876500 -14.938800
C -12.211900 -9.214000 -13.289800
H -12.134700 -8.268700 -13.495100
N -11.973000 -9.415100 -11.864800
N -11.950900 -7.184800 -11.239600
C -11.863200 -8.475500 -10.906000
N -11.833200 -6.316000 -10.224500
O -11.790700 -6.687400 -9.045100
O -11.786000 -5.122700 -10.526400
N -11.779200 -10.650000 -11.334600
N -11.626000 -9.177500 -9.792000
N -11.576600 -10.506000 -10.082300
H -11.551200 -8.875400 -8.861800
H -11.531900 -9.685000 -13.795400
H -8.665300 -7.649800 -5.767000
H -8.646000 -8.459400 -10.700600
N -8.620600 -6.828800 -9.480100
N -8.571100 -8.157300 -9.770400
N -8.418000 -6.684800 -8.227800
O -8.411200 -12.212100 -9.036000
O -8.406400 -10.647400 -10.517300
N -8.364000 -11.018800 -9.337900
C -8.334000 -8.859300 -8.656400
N -8.246300 -10.150000 -8.322800
N -8.224200 -7.919700 -7.697600
H -8.062500 -9.066100 -6.067300
C -7.985200 -8.120800 -6.272600
H -7.063800 -3.458300 -4.623600
N -7.063400 -5.452100 -4.818100
C -6.816100 -4.192400 -5.137400
C -6.618400 -7.630000 -5.842300
N -6.508700 -6.175800 -5.842100
H -6.431100 -7.961000 -4.950300
C -6.134200 -4.117900 -6.348900
C -5.953600 -5.410200 -6.771400
H -5.948300 -7.996500 -6.440900
O -5.720800 -1.883300 -6.411500
N -5.635700 -2.956800 -7.000200
H -5.529400 -5.691900 -7.550100
O -5.122700 -3.083400 -8.110900
