26
Fragment
O -15.074500 -14.251400 -11.451500
H -14.667700 -11.642900 -12.012300
N -14.561500 -14.378000 -12.562200
O -14.476400 -15.451500 -13.150900
H -14.248900 -9.338300 -13.121500
C -14.243600 -11.924600 -12.791000
C -14.063000 -13.216900 -13.213500
H -13.766100 -9.373800 -14.612100
N -13.688500 -11.159000 -13.720300
C -13.578800 -9.704800 -13.720100
C -13.381100 -13.142400 -14.425000
N -13.133800 -11.882700 -14.744300
H -13.133400 -13.876500 -14.938800
C -12.211900 -9.214000 -13.289800
H -12.134700 -8.268700 -13.495100
N -11.973000 -9.415100 -11.864800
N -11.950900 -7.184800 -11.239600
C -11.863200 -8.475500 -10.906000
N -11.833200 -6.316000 -10.224500
O -11.790700 -6.687400 -9.045100
O -11.786000 -5.122700 -10.526400
N -11.779200 -10.650000 -11.334600
N -11.626000 -9.177500 -9.792000
N -11.576600 -10.506000 -10.082300
H -11.551200 -8.875400 -8.861800
H -11.531900 -9.685000 -13.795400
26
Fragment
O -13.311800 1.250300 -16.342100
H -12.905100 -1.358200 -16.902900
N -12.798900 1.376900 -17.452800
O -12.713800 2.450400 -18.041500
H -12.486200 -3.662800 -18.012100
C -12.481000 -1.076500 -17.681600
C -12.300300 0.215800 -18.104100
H -12.003500 -3.627300 -19.502700
N -11.925900 -1.842100 -18.610900
C -11.816100 -3.296300 -18.610700
C -11.618500 0.141300 -19.315600
N -11.371100 -1.118400 -19.634900
H -11.370800 0.875400 -19.829400
C -10.449300 -3.787100 -18.180400
H -10.372000 -4.732400 -18.385700
N -10.210300 -3.586000 -16.755400
N -10.188200 -5.816300 -16.130200
C -10.100500 -4.525600 -15.796600
N -10.070600 -6.685100 -15.115100
O -10.028100 -6.313700 -13.935700
O -10.023300 -7.878400 -15.417000
N -10.016500 -2.351100 -16.225200
N -9.863400 -3.823600 -14.682600
N -9.813900 -2.495100 -14.972900
H -9.788600 -4.125700 -13.752400
H -9.769200 -3.316100 -18.686000
52
Fragment
O -15.074500 -14.251400 -11.451500
H -14.667700 -11.642900 -12.012300
N -14.561500 -14.378000 -12.562200
O -14.476400 -15.451500 -13.150900
H -14.248900 -9.338300 -13.121500
C -14.243600 -11.924600 -12.791000
C -14.063000 -13.216900 -13.213500
H -13.766100 -9.373800 -14.612100
N -13.688500 -11.159000 -13.720300
C -13.578800 -9.704800 -13.720100
C -13.381100 -13.142400 -14.425000
N -13.133800 -11.882700 -14.744300
H -13.133400 -13.876500 -14.938800
C -12.211900 -9.214000 -13.289800
H -12.134700 -8.268700 -13.495100
N -11.973000 -9.415100 -11.864800
N -11.950900 -7.184800 -11.239600
C -11.863200 -8.475500 -10.906000
N -11.833200 -6.316000 -10.224500
O -11.790700 -6.687400 -9.045100
O -11.786000 -5.122700 -10.526400
N -11.779200 -10.650000 -11.334600
N -11.626000 -9.177500 -9.792000
N -11.576600 -10.506000 -10.082300
H -11.551200 -8.875400 -8.861800
H -11.531900 -9.685000 -13.795400
O -13.311800 1.250300 -16.342100
H -12.905100 -1.358200 -16.902900
N -12.798900 1.376900 -17.452800
O -12.713800 2.450400 -18.041500
H -12.486200 -3.662800 -18.012100
C -12.481000 -1.076500 -17.681600
C -12.300300 0.215800 -18.104100
H -12.003500 -3.627300 -19.502700
N -11.925900 -1.842100 -18.610900
C -11.816100 -3.296300 -18.610700
C -11.618500 0.141300 -19.315600
N -11.371100 -1.118400 -19.634900
H -11.370800 0.875400 -19.829400
C -10.449300 -3.787100 -18.180400
H -10.372000 -4.732400 -18.385700
N -10.210300 -3.586000 -16.755400
N -10.188200 -5.816300 -16.130200
C -10.100500 -4.525600 -15.796600
N -10.070600 -6.685100 -15.115100
O -10.028100 -6.313700 -13.935700
O -10.023300 -7.878400 -15.417000
N -10.016500 -2.351100 -16.225200
N -9.863400 -3.823600 -14.682600
N -9.813900 -2.495100 -14.972900
H -9.788600 -4.125700 -13.752400
H -9.769200 -3.316100 -18.686000
