26
Fragment
O -15.074500 -14.251400 -11.451500
H -14.667700 -11.642900 -12.012300
N -14.561500 -14.378000 -12.562200
O -14.476400 -15.451500 -13.150900
H -14.248900 -9.338300 -13.121500
C -14.243600 -11.924600 -12.791000
C -14.063000 -13.216900 -13.213500
H -13.766100 -9.373800 -14.612100
N -13.688500 -11.159000 -13.720300
C -13.578800 -9.704800 -13.720100
C -13.381100 -13.142400 -14.425000
N -13.133800 -11.882700 -14.744300
H -13.133400 -13.876500 -14.938800
C -12.211900 -9.214000 -13.289800
H -12.134700 -8.268700 -13.495100
N -11.973000 -9.415100 -11.864800
N -11.950900 -7.184800 -11.239600
C -11.863200 -8.475500 -10.906000
N -11.833200 -6.316000 -10.224500
O -11.790700 -6.687400 -9.045100
O -11.786000 -5.122700 -10.526400
N -11.779200 -10.650000 -11.334600
N -11.626000 -9.177500 -9.792000
N -11.576600 -10.506000 -10.082300
H -11.551200 -8.875400 -8.861800
H -11.531900 -9.685000 -13.795400
26
Fragment
H -18.763900 -16.317200 -15.548200
H -18.744600 -17.126800 -20.481800
N -18.719200 -15.496200 -19.261300
N -18.669700 -16.824700 -19.551600
N -18.516600 -15.352200 -18.009100
O -18.509800 -20.879500 -18.817200
O -18.505000 -19.314800 -20.298500
N -18.462600 -19.686200 -19.119100
C -18.432600 -17.526700 -18.437600
N -18.344900 -18.817400 -18.104000
N -18.322800 -16.587100 -17.478800
H -18.161100 -17.733500 -15.848500
C -18.083800 -16.788200 -16.053800
H -17.162400 -12.125700 -14.404800
N -17.162000 -14.119500 -14.599300
C -16.914700 -12.859800 -14.918600
C -16.717000 -16.297400 -15.623500
N -16.607300 -14.843200 -15.623300
H -16.529600 -16.628400 -14.731500
C -16.232800 -12.785300 -16.130100
C -16.052200 -14.077600 -16.552600
H -16.046900 -16.663900 -16.222100
O -15.819400 -10.550700 -16.192700
N -15.734300 -11.624200 -16.781400
H -15.628000 -14.359300 -17.331300
O -15.221300 -11.750800 -17.892100
52
Fragment
O -15.074500 -14.251400 -11.451500
H -14.667700 -11.642900 -12.012300
N -14.561500 -14.378000 -12.562200
O -14.476400 -15.451500 -13.150900
H -14.248900 -9.338300 -13.121500
C -14.243600 -11.924600 -12.791000
C -14.063000 -13.216900 -13.213500
H -13.766100 -9.373800 -14.612100
N -13.688500 -11.159000 -13.720300
C -13.578800 -9.704800 -13.720100
C -13.381100 -13.142400 -14.425000
N -13.133800 -11.882700 -14.744300
H -13.133400 -13.876500 -14.938800
C -12.211900 -9.214000 -13.289800
H -12.134700 -8.268700 -13.495100
N -11.973000 -9.415100 -11.864800
N -11.950900 -7.184800 -11.239600
C -11.863200 -8.475500 -10.906000
N -11.833200 -6.316000 -10.224500
O -11.790700 -6.687400 -9.045100
O -11.786000 -5.122700 -10.526400
N -11.779200 -10.650000 -11.334600
N -11.626000 -9.177500 -9.792000
N -11.576600 -10.506000 -10.082300
H -11.551200 -8.875400 -8.861800
H -11.531900 -9.685000 -13.795400
H -18.763900 -16.317200 -15.548200
H -18.744600 -17.126800 -20.481800
N -18.719200 -15.496200 -19.261300
N -18.669700 -16.824700 -19.551600
N -18.516600 -15.352200 -18.009100
O -18.509800 -20.879500 -18.817200
O -18.505000 -19.314800 -20.298500
N -18.462600 -19.686200 -19.119100
C -18.432600 -17.526700 -18.437600
N -18.344900 -18.817400 -18.104000
N -18.322800 -16.587100 -17.478800
H -18.161100 -17.733500 -15.848500
C -18.083800 -16.788200 -16.053800
H -17.162400 -12.125700 -14.404800
N -17.162000 -14.119500 -14.599300
C -16.914700 -12.859800 -14.918600
C -16.717000 -16.297400 -15.623500
N -16.607300 -14.843200 -15.623300
H -16.529600 -16.628400 -14.731500
C -16.232800 -12.785300 -16.130100
C -16.052200 -14.077600 -16.552600
H -16.046900 -16.663900 -16.222100
O -15.819400 -10.550700 -16.192700
N -15.734300 -11.624200 -16.781400
H -15.628000 -14.359300 -17.331300
O -15.221300 -11.750800 -17.892100
