15
Fragment
H -14.070000 -10.606100 -28.422000
C -13.445900 -9.998800 -28.799900
N -13.176600 -10.178000 -30.084700
N -12.953200 -9.074800 -27.964100
C -12.289600 -9.260400 -30.529600
C -12.066000 -8.156100 -28.436400
H -11.940400 -9.674700 -32.477400
H -11.803700 -7.220500 -26.769600
N -11.762400 -9.155900 -31.789800
C -11.713000 -8.241000 -29.795500
N -11.563300 -7.234300 -27.615100
H -10.989600 -6.640200 -27.920100
C -10.917600 -8.102000 -31.770900
N -10.837000 -7.510100 -30.589000
H -10.428200 -7.813500 -32.532700
15
Fragment
H -14.070000 -5.302000 -28.422000
C -13.445900 -4.694700 -28.799900
N -13.176600 -4.873900 -30.084700
N -12.953200 -3.770700 -27.964100
C -12.289600 -3.956300 -30.529600
C -12.066000 -2.852000 -28.436400
H -11.940400 -4.370600 -32.477400
H -11.803700 -1.916400 -26.769600
N -11.762400 -3.851800 -31.789800
C -11.713000 -2.936900 -29.795500
N -11.563300 -1.930200 -27.615100
H -10.989600 -1.336100 -27.920100
C -10.917600 -2.797900 -31.770900
N -10.837000 -2.206000 -30.589000
H -10.428200 -2.509400 -32.532700
30
Fragment
H -14.070000 -10.606100 -28.422000
C -13.445900 -9.998800 -28.799900
N -13.176600 -10.178000 -30.084700
N -12.953200 -9.074800 -27.964100
C -12.289600 -9.260400 -30.529600
C -12.066000 -8.156100 -28.436400
H -11.940400 -9.674700 -32.477400
H -11.803700 -7.220500 -26.769600
N -11.762400 -9.155900 -31.789800
C -11.713000 -8.241000 -29.795500
N -11.563300 -7.234300 -27.615100
H -10.989600 -6.640200 -27.920100
C -10.917600 -8.102000 -31.770900
N -10.837000 -7.510100 -30.589000
H -10.428200 -7.813500 -32.532700
H -14.070000 -5.302000 -28.422000
C -13.445900 -4.694700 -28.799900
N -13.176600 -4.873900 -30.084700
N -12.953200 -3.770700 -27.964100
C -12.289600 -3.956300 -30.529600
C -12.066000 -2.852000 -28.436400
H -11.940400 -4.370600 -32.477400
H -11.803700 -1.916400 -26.769600
N -11.762400 -3.851800 -31.789800
C -11.713000 -2.936900 -29.795500
N -11.563300 -1.930200 -27.615100
H -10.989600 -1.336100 -27.920100
C -10.917600 -2.797900 -31.770900
N -10.837000 -2.206000 -30.589000
H -10.428200 -2.509400 -32.532700
