15
Fragment
H -14.070000 -10.606100 -28.422000
C -13.445900 -9.998800 -28.799900
N -13.176600 -10.178000 -30.084700
N -12.953200 -9.074800 -27.964100
C -12.289600 -9.260400 -30.529600
C -12.066000 -8.156100 -28.436400
H -11.940400 -9.674700 -32.477400
H -11.803700 -7.220500 -26.769600
N -11.762400 -9.155900 -31.789800
C -11.713000 -8.241000 -29.795500
N -11.563300 -7.234300 -27.615100
H -10.989600 -6.640200 -27.920100
C -10.917600 -8.102000 -31.770900
N -10.837000 -7.510100 -30.589000
H -10.428200 -7.813500 -32.532700
14
Fragment
O -10.324500 -8.741200 -34.721800
C -9.493300 -8.700300 -35.595000
O -9.470200 -9.646600 -36.529000
H -9.279100 -6.325700 -34.297700
H -8.851500 -9.486900 -37.075100
H -8.680300 -7.023700 -36.473200
C -8.461000 -7.605500 -35.703200
C -8.400300 -6.760100 -34.434300
H -8.234400 -7.355700 -33.659800
H -7.572400 -8.009700 -35.869300
C -7.338700 -5.704600 -34.469600
O -7.243100 -5.036200 -33.354000
H -6.636600 -4.459700 -33.423700
O -6.629200 -5.481800 -35.436300
29
Fragment
H -14.070000 -10.606100 -28.422000
C -13.445900 -9.998800 -28.799900
N -13.176600 -10.178000 -30.084700
N -12.953200 -9.074800 -27.964100
C -12.289600 -9.260400 -30.529600
C -12.066000 -8.156100 -28.436400
H -11.940400 -9.674700 -32.477400
H -11.803700 -7.220500 -26.769600
N -11.762400 -9.155900 -31.789800
C -11.713000 -8.241000 -29.795500
N -11.563300 -7.234300 -27.615100
H -10.989600 -6.640200 -27.920100
C -10.917600 -8.102000 -31.770900
N -10.837000 -7.510100 -30.589000
H -10.428200 -7.813500 -32.532700
O -10.324500 -8.741200 -34.721800
C -9.493300 -8.700300 -35.595000
O -9.470200 -9.646600 -36.529000
H -9.279100 -6.325700 -34.297700
H -8.851500 -9.486900 -37.075100
H -8.680300 -7.023700 -36.473200
C -8.461000 -7.605500 -35.703200
C -8.400300 -6.760100 -34.434300
H -8.234400 -7.355700 -33.659800
H -7.572400 -8.009700 -35.869300
C -7.338700 -5.704600 -34.469600
O -7.243100 -5.036200 -33.354000
H -6.636600 -4.459700 -33.423700
O -6.629200 -5.481800 -35.436300
