15
Fragment
H -14.070000 -10.606100 -28.422000
C -13.445900 -9.998800 -28.799900
N -13.176600 -10.178000 -30.084700
N -12.953200 -9.074800 -27.964100
C -12.289600 -9.260400 -30.529600
C -12.066000 -8.156100 -28.436400
H -11.940400 -9.674700 -32.477400
H -11.803700 -7.220500 -26.769600
N -11.762400 -9.155900 -31.789800
C -11.713000 -8.241000 -29.795500
N -11.563300 -7.234300 -27.615100
H -10.989600 -6.640200 -27.920100
C -10.917600 -8.102000 -31.770900
N -10.837000 -7.510100 -30.589000
H -10.428200 -7.813500 -32.532700
14
Fragment
O -9.679500 -5.126400 -28.361600
H -9.672100 -6.148500 -30.374200
O -9.065600 -5.572000 -30.443900
C -8.970000 -4.903600 -29.328300
H -8.736300 -2.598500 -27.928600
H -8.074400 -3.252500 -30.138100
C -7.908400 -3.848100 -29.363600
C -7.847700 -3.002700 -28.094700
H -7.628500 -3.584500 -27.324600
H -7.457200 -1.121300 -26.722800
H -7.029600 -4.282500 -29.500100
O -6.838500 -0.961600 -27.268900
C -6.815400 -1.907900 -28.202900
O -5.984200 -1.867000 -29.076100
29
Fragment
H -14.070000 -10.606100 -28.422000
C -13.445900 -9.998800 -28.799900
N -13.176600 -10.178000 -30.084700
N -12.953200 -9.074800 -27.964100
C -12.289600 -9.260400 -30.529600
C -12.066000 -8.156100 -28.436400
H -11.940400 -9.674700 -32.477400
H -11.803700 -7.220500 -26.769600
N -11.762400 -9.155900 -31.789800
C -11.713000 -8.241000 -29.795500
N -11.563300 -7.234300 -27.615100
H -10.989600 -6.640200 -27.920100
C -10.917600 -8.102000 -31.770900
N -10.837000 -7.510100 -30.589000
H -10.428200 -7.813500 -32.532700
O -9.679500 -5.126400 -28.361600
H -9.672100 -6.148500 -30.374200
O -9.065600 -5.572000 -30.443900
C -8.970000 -4.903600 -29.328300
H -8.736300 -2.598500 -27.928600
H -8.074400 -3.252500 -30.138100
C -7.908400 -3.848100 -29.363600
C -7.847700 -3.002700 -28.094700
H -7.628500 -3.584500 -27.324600
H -7.457200 -1.121300 -26.722800
H -7.029600 -4.282500 -29.500100
O -6.838500 -0.961600 -27.268900
C -6.815400 -1.907900 -28.202900
O -5.984200 -1.867000 -29.076100
