15
Fragment
H -14.070000 -10.606100 -28.422000
C -13.445900 -9.998800 -28.799900
N -13.176600 -10.178000 -30.084700
N -12.953200 -9.074800 -27.964100
C -12.289600 -9.260400 -30.529600
C -12.066000 -8.156100 -28.436400
H -11.940400 -9.674700 -32.477400
H -11.803700 -7.220500 -26.769600
N -11.762400 -9.155900 -31.789800
C -11.713000 -8.241000 -29.795500
N -11.563300 -7.234300 -27.615100
H -10.989600 -6.640200 -27.920100
C -10.917600 -8.102000 -31.770900
N -10.837000 -7.510100 -30.589000
H -10.428200 -7.813500 -32.532700
15
Fragment
H -15.370700 -13.402900 -31.265200
N -14.961900 -13.706300 -33.208900
C -14.881300 -13.114400 -32.027000
H -14.809300 -14.576200 -35.877800
N -14.235600 -13.982100 -36.182800
C -14.085900 -12.975400 -34.002400
N -14.036600 -12.060500 -32.008000
H -13.995200 -13.995900 -37.028300
H -13.858500 -11.541700 -31.320500
C -13.732900 -13.060300 -35.361500
C -13.509300 -11.956000 -33.268300
N -12.845700 -12.141600 -35.833800
N -12.622300 -11.038400 -33.713100
C -12.353100 -11.217600 -34.998000
H -11.728900 -10.610300 -35.375900
30
Fragment
H -14.070000 -10.606100 -28.422000
C -13.445900 -9.998800 -28.799900
N -13.176600 -10.178000 -30.084700
N -12.953200 -9.074800 -27.964100
C -12.289600 -9.260400 -30.529600
C -12.066000 -8.156100 -28.436400
H -11.940400 -9.674700 -32.477400
H -11.803700 -7.220500 -26.769600
N -11.762400 -9.155900 -31.789800
C -11.713000 -8.241000 -29.795500
N -11.563300 -7.234300 -27.615100
H -10.989600 -6.640200 -27.920100
C -10.917600 -8.102000 -31.770900
N -10.837000 -7.510100 -30.589000
H -10.428200 -7.813500 -32.532700
H -15.370700 -13.402900 -31.265200
N -14.961900 -13.706300 -33.208900
C -14.881300 -13.114400 -32.027000
H -14.809300 -14.576200 -35.877800
N -14.235600 -13.982100 -36.182800
C -14.085900 -12.975400 -34.002400
N -14.036600 -12.060500 -32.008000
H -13.995200 -13.995900 -37.028300
H -13.858500 -11.541700 -31.320500
C -13.732900 -13.060300 -35.361500
C -13.509300 -11.956000 -33.268300
N -12.845700 -12.141600 -35.833800
N -12.622300 -11.038400 -33.713100
C -12.353100 -11.217600 -34.998000
H -11.728900 -10.610300 -35.375900
