17
Fragment
H -11.282900 -38.006400 -10.897700
H -10.711100 -36.629500 -8.754100
O -10.582900 -40.460100 -10.878400
C -10.335300 -38.123000 -11.049400
H -10.293600 -38.200000 -11.916200
H -10.226600 -41.172200 -10.704600
H -9.880500 -36.177900 -11.017500
C -9.801300 -39.440000 -10.555500
C -9.732100 -36.679800 -9.049000
C -9.565200 -36.909100 -10.545500
O -9.563000 -34.332800 -9.220700
H -9.395800 -37.408500 -8.587600
C -9.090600 -35.401100 -8.580300
H -9.085800 -33.669700 -8.953800
O -8.773100 -39.565700 -9.943700
H -8.579600 -37.033900 -10.797800
O -8.261300 -35.334400 -7.708200
13
Fragment
H -16.234900 -42.308500 -15.557600
H -15.611200 -40.212000 -15.104900
N -15.596700 -42.200600 -15.005100
O -15.415500 -44.452600 -14.864000
C -15.193500 -40.945900 -14.672900
C -14.991200 -43.326400 -14.492500
C -14.188800 -40.818400 -13.812800
N -13.968400 -43.195200 -13.624400
F -13.712500 -39.600500 -13.439300
C -13.560000 -41.968600 -13.258900
N -12.583200 -41.825900 -12.388800
H -12.360600 -41.018400 -12.209100
H -12.066800 -42.514400 -12.102600
30
Fragment
H -11.282900 -38.006400 -10.897700
H -10.711100 -36.629500 -8.754100
O -10.582900 -40.460100 -10.878400
C -10.335300 -38.123000 -11.049400
H -10.293600 -38.200000 -11.916200
H -10.226600 -41.172200 -10.704600
H -9.880500 -36.177900 -11.017500
C -9.801300 -39.440000 -10.555500
C -9.732100 -36.679800 -9.049000
C -9.565200 -36.909100 -10.545500
O -9.563000 -34.332800 -9.220700
H -9.395800 -37.408500 -8.587600
C -9.090600 -35.401100 -8.580300
H -9.085800 -33.669700 -8.953800
O -8.773100 -39.565700 -9.943700
H -8.579600 -37.033900 -10.797800
O -8.261300 -35.334400 -7.708200
H -16.234900 -42.308500 -15.557600
H -15.611200 -40.212000 -15.104900
N -15.596700 -42.200600 -15.005100
O -15.415500 -44.452600 -14.864000
C -15.193500 -40.945900 -14.672900
C -14.991200 -43.326400 -14.492500
C -14.188800 -40.818400 -13.812800
N -13.968400 -43.195200 -13.624400
F -13.712500 -39.600500 -13.439300
C -13.560000 -41.968600 -13.258900
N -12.583200 -41.825900 -12.388800
H -12.360600 -41.018400 -12.209100
H -12.066800 -42.514400 -12.102600
