17
Fragment
H -11.282900 -38.006400 -10.897700
H -10.711100 -36.629500 -8.754100
O -10.582900 -40.460100 -10.878400
C -10.335300 -38.123000 -11.049400
H -10.293600 -38.200000 -11.916200
H -10.226600 -41.172200 -10.704600
H -9.880500 -36.177900 -11.017500
C -9.801300 -39.440000 -10.555500
C -9.732100 -36.679800 -9.049000
C -9.565200 -36.909100 -10.545500
O -9.563000 -34.332800 -9.220700
H -9.395800 -37.408500 -8.587600
C -9.090600 -35.401100 -8.580300
H -9.085800 -33.669700 -8.953800
O -8.773100 -39.565700 -9.943700
H -8.579600 -37.033900 -10.797800
O -8.261300 -35.334400 -7.708200
13
Fragment
H -7.066000 -32.401900 -7.249600
H -6.464900 -34.525600 -6.750300
N -6.372600 -32.548200 -6.700400
O -6.117700 -30.301400 -6.569200
C -6.011900 -33.812100 -6.352200
C -5.703100 -31.443900 -6.223000
C -4.981700 -33.966900 -5.530700
N -4.641300 -31.609700 -5.414200
F -4.572200 -35.208600 -5.133900
C -4.267400 -32.837800 -5.044100
N -3.238700 -33.011400 -4.231900
H -2.981300 -33.855700 -3.934300
H -2.846100 -32.379500 -3.987600
30
Fragment
H -11.282900 -38.006400 -10.897700
H -10.711100 -36.629500 -8.754100
O -10.582900 -40.460100 -10.878400
C -10.335300 -38.123000 -11.049400
H -10.293600 -38.200000 -11.916200
H -10.226600 -41.172200 -10.704600
H -9.880500 -36.177900 -11.017500
C -9.801300 -39.440000 -10.555500
C -9.732100 -36.679800 -9.049000
C -9.565200 -36.909100 -10.545500
O -9.563000 -34.332800 -9.220700
H -9.395800 -37.408500 -8.587600
C -9.090600 -35.401100 -8.580300
H -9.085800 -33.669700 -8.953800
O -8.773100 -39.565700 -9.943700
H -8.579600 -37.033900 -10.797800
O -8.261300 -35.334400 -7.708200
H -7.066000 -32.401900 -7.249600
H -6.464900 -34.525600 -6.750300
N -6.372600 -32.548200 -6.700400
O -6.117700 -30.301400 -6.569200
C -6.011900 -33.812100 -6.352200
C -5.703100 -31.443900 -6.223000
C -4.981700 -33.966900 -5.530700
N -4.641300 -31.609700 -5.414200
F -4.572200 -35.208600 -5.133900
C -4.267400 -32.837800 -5.044100
N -3.238700 -33.011400 -4.231900
H -2.981300 -33.855700 -3.934300
H -2.846100 -32.379500 -3.987600
