17
Fragment
H -11.282900 -38.006400 -10.897700
H -10.711100 -36.629500 -8.754100
O -10.582900 -40.460100 -10.878400
C -10.335300 -38.123000 -11.049400
H -10.293600 -38.200000 -11.916200
H -10.226600 -41.172200 -10.704600
H -9.880500 -36.177900 -11.017500
C -9.801300 -39.440000 -10.555500
C -9.732100 -36.679800 -9.049000
C -9.565200 -36.909100 -10.545500
O -9.563000 -34.332800 -9.220700
H -9.395800 -37.408500 -8.587600
C -9.090600 -35.401100 -8.580300
H -9.085800 -33.669700 -8.953800
O -8.773100 -39.565700 -9.943700
H -8.579600 -37.033900 -10.797800
O -8.261300 -35.334400 -7.708200
17
Fragment
O -6.514100 -39.095600 -12.263000
H -6.195800 -37.396100 -9.173500
O -6.002300 -34.864300 -10.027600
H -5.689700 -40.760300 -11.017500
C -5.684900 -39.028900 -11.390900
H -5.379600 -37.021500 -11.383600
O -5.212400 -40.097200 -10.750500
C -5.210200 -37.520900 -9.425800
C -5.043300 -37.750200 -10.922300
C -4.974100 -34.990000 -9.415800
H -4.894900 -38.252100 -8.953800
H -4.548800 -33.257800 -9.266700
H -4.481900 -36.230000 -8.055100
C -4.440100 -36.307000 -8.921800
O -4.192600 -33.969900 -9.092900
H -4.064400 -37.800500 -11.217200
H -3.492600 -36.423600 -9.073600
34
Fragment
H -11.282900 -38.006400 -10.897700
H -10.711100 -36.629500 -8.754100
O -10.582900 -40.460100 -10.878400
C -10.335300 -38.123000 -11.049400
H -10.293600 -38.200000 -11.916200
H -10.226600 -41.172200 -10.704600
H -9.880500 -36.177900 -11.017500
C -9.801300 -39.440000 -10.555500
C -9.732100 -36.679800 -9.049000
C -9.565200 -36.909100 -10.545500
O -9.563000 -34.332800 -9.220700
H -9.395800 -37.408500 -8.587600
C -9.090600 -35.401100 -8.580300
H -9.085800 -33.669700 -8.953800
O -8.773100 -39.565700 -9.943700
H -8.579600 -37.033900 -10.797800
O -8.261300 -35.334400 -7.708200
O -6.514100 -39.095600 -12.263000
H -6.195800 -37.396100 -9.173500
O -6.002300 -34.864300 -10.027600
H -5.689700 -40.760300 -11.017500
C -5.684900 -39.028900 -11.390900
H -5.379600 -37.021500 -11.383600
O -5.212400 -40.097200 -10.750500
C -5.210200 -37.520900 -9.425800
C -5.043300 -37.750200 -10.922300
C -4.974100 -34.990000 -9.415800
H -4.894900 -38.252100 -8.953800
H -4.548800 -33.257800 -9.266700
H -4.481900 -36.230000 -8.055100
C -4.440100 -36.307000 -8.921800
O -4.192600 -33.969900 -9.092900
H -4.064400 -37.800500 -11.217200
H -3.492600 -36.423600 -9.073600
