18
Fragment
O -7.455500 -20.803700 -20.312800
H -7.434100 -20.548400 -21.132000
H -7.223300 -22.588700 -18.493500
C -6.549000 -22.659400 -19.130100
C -6.503200 -21.784600 -20.199600
O -6.411400 -24.473800 -16.948700
C -5.641800 -24.609200 -17.902900
C -5.578600 -23.641000 -19.018900
O -5.522400 -20.969600 -22.166400
C -5.481200 -21.868500 -21.146700
H -4.923700 -26.109900 -17.357200
O -4.833400 -25.618900 -18.008100
H -4.752000 -20.944400 -22.569000
C -4.555200 -23.750200 -19.962800
C -4.518600 -22.866800 -21.030700
H -3.904300 -24.408800 -19.876100
O -3.587900 -22.926200 -22.019400
H -3.076700 -23.551100 -21.877000
18
Fragment
O -10.644700 -23.588800 -14.275100
H -10.623200 -23.844100 -15.094300
H -10.412500 -21.803800 -12.455800
C -9.738200 -21.733100 -13.092400
C -9.692400 -22.607900 -14.161900
O -9.600600 -19.918700 -10.911000
C -8.830900 -19.783300 -11.865200
C -8.767700 -20.751500 -12.981200
O -8.711500 -23.422900 -16.128700
C -8.670400 -22.524000 -15.109000
H -8.112800 -18.282600 -11.319500
O -8.022600 -18.773600 -11.970400
H -7.941200 -23.448100 -16.531300
C -7.744400 -20.642300 -13.925100
C -7.707800 -21.525700 -14.993000
H -7.093500 -19.983700 -13.838400
O -6.777000 -21.466300 -15.981700
H -6.265900 -20.841400 -15.839300
36
Fragment
O -7.455500 -20.803700 -20.312800
H -7.434100 -20.548400 -21.132000
H -7.223300 -22.588700 -18.493500
C -6.549000 -22.659400 -19.130100
C -6.503200 -21.784600 -20.199600
O -6.411400 -24.473800 -16.948700
C -5.641800 -24.609200 -17.902900
C -5.578600 -23.641000 -19.018900
O -5.522400 -20.969600 -22.166400
C -5.481200 -21.868500 -21.146700
H -4.923700 -26.109900 -17.357200
O -4.833400 -25.618900 -18.008100
H -4.752000 -20.944400 -22.569000
C -4.555200 -23.750200 -19.962800
C -4.518600 -22.866800 -21.030700
H -3.904300 -24.408800 -19.876100
O -3.587900 -22.926200 -22.019400
H -3.076700 -23.551100 -21.877000
O -10.644700 -23.588800 -14.275100
H -10.623200 -23.844100 -15.094300
H -10.412500 -21.803800 -12.455800
C -9.738200 -21.733100 -13.092400
C -9.692400 -22.607900 -14.161900
O -9.600600 -19.918700 -10.911000
C -8.830900 -19.783300 -11.865200
C -8.767700 -20.751500 -12.981200
O -8.711500 -23.422900 -16.128700
C -8.670400 -22.524000 -15.109000
H -8.112800 -18.282600 -11.319500
O -8.022600 -18.773600 -11.970400
H -7.941200 -23.448100 -16.531300
C -7.744400 -20.642300 -13.925100
C -7.707800 -21.525700 -14.993000
H -7.093500 -19.983700 -13.838400
O -6.777000 -21.466300 -15.981700
H -6.265900 -20.841400 -15.839300
