18
Fragment
O -7.455500 -20.803700 -20.312800
H -7.434100 -20.548400 -21.132000
H -7.223300 -22.588700 -18.493500
C -6.549000 -22.659400 -19.130100
C -6.503200 -21.784600 -20.199600
O -6.411400 -24.473800 -16.948700
C -5.641800 -24.609200 -17.902900
C -5.578600 -23.641000 -19.018900
O -5.522400 -20.969600 -22.166400
C -5.481200 -21.868500 -21.146700
H -4.923700 -26.109900 -17.357200
O -4.833400 -25.618900 -18.008100
H -4.752000 -20.944400 -22.569000
C -4.555200 -23.750200 -19.962800
C -4.518600 -22.866800 -21.030700
H -3.904300 -24.408800 -19.876100
O -3.587900 -22.926200 -22.019400
H -3.076700 -23.551100 -21.877000
18
Fragment
O -2.172500 -20.803700 -20.312800
H -2.151100 -20.548400 -21.132000
H -1.940300 -22.588700 -18.493500
C -1.266000 -22.659400 -19.130100
C -1.220200 -21.784600 -20.199600
O -1.128400 -24.473800 -16.948700
C -0.358800 -24.609200 -17.902900
C -0.295600 -23.641000 -19.018900
O -0.239400 -20.969600 -22.166400
C -0.198200 -21.868500 -21.146700
H 0.359300 -26.109900 -17.357200
O 0.449600 -25.618900 -18.008100
H 0.531000 -20.944400 -22.569000
C 0.727800 -23.750200 -19.962800
C 0.764400 -22.866800 -21.030700
H 1.378700 -24.408800 -19.876100
O 1.695100 -22.926200 -22.019400
H 2.206300 -23.551100 -21.877000
36
Fragment
O -7.455500 -20.803700 -20.312800
H -7.434100 -20.548400 -21.132000
H -7.223300 -22.588700 -18.493500
C -6.549000 -22.659400 -19.130100
C -6.503200 -21.784600 -20.199600
O -6.411400 -24.473800 -16.948700
C -5.641800 -24.609200 -17.902900
C -5.578600 -23.641000 -19.018900
O -5.522400 -20.969600 -22.166400
C -5.481200 -21.868500 -21.146700
H -4.923700 -26.109900 -17.357200
O -4.833400 -25.618900 -18.008100
H -4.752000 -20.944400 -22.569000
C -4.555200 -23.750200 -19.962800
C -4.518600 -22.866800 -21.030700
H -3.904300 -24.408800 -19.876100
O -3.587900 -22.926200 -22.019400
H -3.076700 -23.551100 -21.877000
O -2.172500 -20.803700 -20.312800
H -2.151100 -20.548400 -21.132000
H -1.940300 -22.588700 -18.493500
C -1.266000 -22.659400 -19.130100
C -1.220200 -21.784600 -20.199600
O -1.128400 -24.473800 -16.948700
C -0.358800 -24.609200 -17.902900
C -0.295600 -23.641000 -19.018900
O -0.239400 -20.969600 -22.166400
C -0.198200 -21.868500 -21.146700
H 0.359300 -26.109900 -17.357200
O 0.449600 -25.618900 -18.008100
H 0.531000 -20.944400 -22.569000
C 0.727800 -23.750200 -19.962800
C 0.764400 -22.866800 -21.030700
H 1.378700 -24.408800 -19.876100
O 1.695100 -22.926200 -22.019400
H 2.206300 -23.551100 -21.877000
