17
Fragment
H -11.282900 -38.006400 -10.897700
H -10.711100 -36.629500 -8.754100
O -10.582900 -40.460100 -10.878400
C -10.335300 -38.123000 -11.049400
H -10.293600 -38.200000 -11.916200
H -10.226600 -41.172200 -10.704600
H -9.880500 -36.177900 -11.017500
C -9.801300 -39.440000 -10.555500
C -9.732100 -36.679800 -9.049000
C -9.565200 -36.909100 -10.545500
O -9.563000 -34.332800 -9.220700
H -9.395800 -37.408500 -8.587600
C -9.090600 -35.401100 -8.580300
H -9.085800 -33.669700 -8.953800
O -8.773100 -39.565700 -9.943700
H -8.579600 -37.033900 -10.797800
O -8.261300 -35.334400 -7.708200
13
Fragment
H -13.720400 -42.050500 -9.326600
H -13.585100 -40.574300 -9.379800
N -13.327700 -41.418600 -9.082300
C -12.299000 -41.592200 -8.270100
F -11.994200 -39.221400 -8.180200
N -11.925100 -42.820300 -7.900000
C -11.584700 -40.463100 -7.783500
C -10.863300 -42.986100 -7.091100
C -10.554500 -40.617900 -6.962000
O -10.448700 -44.128600 -6.745000
N -10.193800 -41.881800 -6.613800
H -10.101500 -39.904400 -6.563900
H -9.500400 -42.028100 -6.064600
30
Fragment
H -11.282900 -38.006400 -10.897700
H -10.711100 -36.629500 -8.754100
O -10.582900 -40.460100 -10.878400
C -10.335300 -38.123000 -11.049400
H -10.293600 -38.200000 -11.916200
H -10.226600 -41.172200 -10.704600
H -9.880500 -36.177900 -11.017500
C -9.801300 -39.440000 -10.555500
C -9.732100 -36.679800 -9.049000
C -9.565200 -36.909100 -10.545500
O -9.563000 -34.332800 -9.220700
H -9.395800 -37.408500 -8.587600
C -9.090600 -35.401100 -8.580300
H -9.085800 -33.669700 -8.953800
O -8.773100 -39.565700 -9.943700
H -8.579600 -37.033900 -10.797800
O -8.261300 -35.334400 -7.708200
H -13.720400 -42.050500 -9.326600
H -13.585100 -40.574300 -9.379800
N -13.327700 -41.418600 -9.082300
C -12.299000 -41.592200 -8.270100
F -11.994200 -39.221400 -8.180200
N -11.925100 -42.820300 -7.900000
C -11.584700 -40.463100 -7.783500
C -10.863300 -42.986100 -7.091100
C -10.554500 -40.617900 -6.962000
O -10.448700 -44.128600 -6.745000
N -10.193800 -41.881800 -6.613800
H -10.101500 -39.904400 -6.563900
H -9.500400 -42.028100 -6.064600
