26
Fragment
N -18.449900 -18.366600 -14.363400
N -18.385300 -17.082300 -14.587600
N -17.417000 -18.978800 -14.949200
N -17.299900 -16.828100 -15.330000
H -17.028800 -16.063100 -15.613600
C -16.733700 -18.007900 -15.535800
H -15.511800 -19.113700 -16.736800
C -15.474900 -18.235100 -16.327300
H -15.425100 -17.577600 -17.038900
N -14.276100 -18.140900 -15.506100
O -14.068600 -15.902300 -15.712400
H -13.952400 -18.870100 -15.205100
H -13.836200 -16.883900 -12.681100
C -13.693300 -16.976500 -15.254200
H -12.983200 -18.213600 -12.616600
C -12.960200 -17.269200 -12.839800
C -12.512900 -17.053400 -14.293800
H -12.334900 -14.625400 -12.655500
H -12.201200 -16.331900 -11.151400
H -11.942100 -17.757600 -14.641900
C -11.890500 -16.544300 -12.045300
N -11.763200 -15.752600 -14.286500
C -11.660800 -15.295000 -12.853100
H -11.080800 -17.074700 -11.982800
H -10.949800 -15.865100 -14.529300
H -10.784800 -14.920600 -12.670900
26
Fragment
H -16.880300 -8.920200 -12.926900
H -16.715300 -9.864700 -11.068500
H -16.584300 -11.074300 -13.614900
C -16.004300 -9.294600 -12.744600
N -15.901900 -9.752200 -11.311200
C -15.774600 -10.543900 -13.552500
H -15.723000 -11.757200 -10.955800
H -15.463900 -10.331500 -14.446300
H -15.330200 -8.625000 -12.942200
C -15.152200 -11.053000 -11.304000
C -14.704900 -11.268800 -12.757900
H -14.681900 -12.213200 -12.981100
C -13.971800 -10.976100 -10.343500
H -13.828900 -10.883500 -12.916600
H -13.712700 -12.869700 -10.392700
O -13.596500 -9.901900 -9.885300
N -13.389000 -12.140500 -10.091700
H -12.240000 -11.577200 -8.558900
C -12.190200 -12.234700 -9.270500
H -12.153300 -13.113300 -8.860900
C -10.931400 -12.007500 -10.062000
H -10.636300 -10.062700 -9.984100
N -10.365200 -10.827700 -10.267800
N -10.248100 -12.978400 -10.648600
N -9.279800 -11.081900 -11.010100
N -9.215200 -12.366200 -11.234300
52
Fragment
N -18.449900 -18.366600 -14.363400
N -18.385300 -17.082300 -14.587600
N -17.417000 -18.978800 -14.949200
N -17.299900 -16.828100 -15.330000
H -17.028800 -16.063100 -15.613600
C -16.733700 -18.007900 -15.535800
H -15.511800 -19.113700 -16.736800
C -15.474900 -18.235100 -16.327300
H -15.425100 -17.577600 -17.038900
N -14.276100 -18.140900 -15.506100
O -14.068600 -15.902300 -15.712400
H -13.952400 -18.870100 -15.205100
H -13.836200 -16.883900 -12.681100
C -13.693300 -16.976500 -15.254200
H -12.983200 -18.213600 -12.616600
C -12.960200 -17.269200 -12.839800
C -12.512900 -17.053400 -14.293800
H -12.334900 -14.625400 -12.655500
H -12.201200 -16.331900 -11.151400
H -11.942100 -17.757600 -14.641900
C -11.890500 -16.544300 -12.045300
N -11.763200 -15.752600 -14.286500
C -11.660800 -15.295000 -12.853100
H -11.080800 -17.074700 -11.982800
H -10.949800 -15.865100 -14.529300
H -10.784800 -14.920600 -12.670900
H -16.880300 -8.920200 -12.926900
H -16.715300 -9.864700 -11.068500
H -16.584300 -11.074300 -13.614900
C -16.004300 -9.294600 -12.744600
N -15.901900 -9.752200 -11.311200
C -15.774600 -10.543900 -13.552500
H -15.723000 -11.757200 -10.955800
H -15.463900 -10.331500 -14.446300
H -15.330200 -8.625000 -12.942200
C -15.152200 -11.053000 -11.304000
C -14.704900 -11.268800 -12.757900
H -14.681900 -12.213200 -12.981100
C -13.971800 -10.976100 -10.343500
H -13.828900 -10.883500 -12.916600
H -13.712700 -12.869700 -10.392700
O -13.596500 -9.901900 -9.885300
N -13.389000 -12.140500 -10.091700
H -12.240000 -11.577200 -8.558900
C -12.190200 -12.234700 -9.270500
H -12.153300 -13.113300 -8.860900
C -10.931400 -12.007500 -10.062000
H -10.636300 -10.062700 -9.984100
N -10.365200 -10.827700 -10.267800
N -10.248100 -12.978400 -10.648600
N -9.279800 -11.081900 -11.010100
N -9.215200 -12.366200 -11.234300
