26
Fragment
N -18.449900 -18.366600 -14.363400
N -18.385300 -17.082300 -14.587600
N -17.417000 -18.978800 -14.949200
N -17.299900 -16.828100 -15.330000
H -17.028800 -16.063100 -15.613600
C -16.733700 -18.007900 -15.535800
H -15.511800 -19.113700 -16.736800
C -15.474900 -18.235100 -16.327300
H -15.425100 -17.577600 -17.038900
N -14.276100 -18.140900 -15.506100
O -14.068600 -15.902300 -15.712400
H -13.952400 -18.870100 -15.205100
H -13.836200 -16.883900 -12.681100
C -13.693300 -16.976500 -15.254200
H -12.983200 -18.213600 -12.616600
C -12.960200 -17.269200 -12.839800
C -12.512900 -17.053400 -14.293800
H -12.334900 -14.625400 -12.655500
H -12.201200 -16.331900 -11.151400
H -11.942100 -17.757600 -14.641900
C -11.890500 -16.544300 -12.045300
N -11.763200 -15.752600 -14.286500
C -11.660800 -15.295000 -12.853100
H -11.080800 -17.074700 -11.982800
H -10.949800 -15.865100 -14.529300
H -10.784800 -14.920600 -12.670900
26
Fragment
H -21.491200 -21.081800 -7.551300
H -21.326100 -20.137300 -9.409700
H -21.195200 -18.927700 -6.863300
C -20.615100 -20.707400 -7.733600
N -20.512700 -20.249800 -9.167000
C -20.385500 -19.458100 -6.925700
H -20.333800 -18.244800 -9.522400
H -20.074700 -19.670500 -6.031900
H -19.941000 -21.377000 -7.536000
C -19.763000 -18.949000 -9.174200
C -19.315800 -18.733200 -7.720300
H -19.292700 -17.788800 -7.497100
C -18.582600 -19.025900 -10.134700
H -18.439700 -19.118500 -7.561600
H -18.323500 -17.132300 -10.085500
O -18.207300 -20.100100 -10.592900
N -17.999800 -17.861500 -10.386500
H -16.850800 -18.424800 -11.919300
C -16.801000 -17.767300 -11.207700
H -16.764100 -16.888700 -11.617300
C -15.542300 -17.994500 -10.416200
H -15.247200 -19.939300 -10.494100
N -14.976000 -19.174300 -10.210400
N -14.858900 -17.023600 -9.829600
N -13.890600 -18.920100 -9.468100
N -13.826100 -17.635800 -9.243900
52
Fragment
N -18.449900 -18.366600 -14.363400
N -18.385300 -17.082300 -14.587600
N -17.417000 -18.978800 -14.949200
N -17.299900 -16.828100 -15.330000
H -17.028800 -16.063100 -15.613600
C -16.733700 -18.007900 -15.535800
H -15.511800 -19.113700 -16.736800
C -15.474900 -18.235100 -16.327300
H -15.425100 -17.577600 -17.038900
N -14.276100 -18.140900 -15.506100
O -14.068600 -15.902300 -15.712400
H -13.952400 -18.870100 -15.205100
H -13.836200 -16.883900 -12.681100
C -13.693300 -16.976500 -15.254200
H -12.983200 -18.213600 -12.616600
C -12.960200 -17.269200 -12.839800
C -12.512900 -17.053400 -14.293800
H -12.334900 -14.625400 -12.655500
H -12.201200 -16.331900 -11.151400
H -11.942100 -17.757600 -14.641900
C -11.890500 -16.544300 -12.045300
N -11.763200 -15.752600 -14.286500
C -11.660800 -15.295000 -12.853100
H -11.080800 -17.074700 -11.982800
H -10.949800 -15.865100 -14.529300
H -10.784800 -14.920600 -12.670900
H -21.491200 -21.081800 -7.551300
H -21.326100 -20.137300 -9.409700
H -21.195200 -18.927700 -6.863300
C -20.615100 -20.707400 -7.733600
N -20.512700 -20.249800 -9.167000
C -20.385500 -19.458100 -6.925700
H -20.333800 -18.244800 -9.522400
H -20.074700 -19.670500 -6.031900
H -19.941000 -21.377000 -7.536000
C -19.763000 -18.949000 -9.174200
C -19.315800 -18.733200 -7.720300
H -19.292700 -17.788800 -7.497100
C -18.582600 -19.025900 -10.134700
H -18.439700 -19.118500 -7.561600
H -18.323500 -17.132300 -10.085500
O -18.207300 -20.100100 -10.592900
N -17.999800 -17.861500 -10.386500
H -16.850800 -18.424800 -11.919300
C -16.801000 -17.767300 -11.207700
H -16.764100 -16.888700 -11.617300
C -15.542300 -17.994500 -10.416200
H -15.247200 -19.939300 -10.494100
N -14.976000 -19.174300 -10.210400
N -14.858900 -17.023600 -9.829600
N -13.890600 -18.920100 -9.468100
N -13.826100 -17.635800 -9.243900
