26
Fragment
N -18.449900 -18.366600 -14.363400
N -18.385300 -17.082300 -14.587600
N -17.417000 -18.978800 -14.949200
N -17.299900 -16.828100 -15.330000
H -17.028800 -16.063100 -15.613600
C -16.733700 -18.007900 -15.535800
H -15.511800 -19.113700 -16.736800
C -15.474900 -18.235100 -16.327300
H -15.425100 -17.577600 -17.038900
N -14.276100 -18.140900 -15.506100
O -14.068600 -15.902300 -15.712400
H -13.952400 -18.870100 -15.205100
H -13.836200 -16.883900 -12.681100
C -13.693300 -16.976500 -15.254200
H -12.983200 -18.213600 -12.616600
C -12.960200 -17.269200 -12.839800
C -12.512900 -17.053400 -14.293800
H -12.334900 -14.625400 -12.655500
H -12.201200 -16.331900 -11.151400
H -11.942100 -17.757600 -14.641900
C -11.890500 -16.544300 -12.045300
N -11.763200 -15.752600 -14.286500
C -11.660800 -15.295000 -12.853100
H -11.080800 -17.074700 -11.982800
H -10.949800 -15.865100 -14.529300
H -10.784800 -14.920600 -12.670900
26
Fragment
H -16.880300 -20.921000 -12.926900
H -16.715300 -21.865500 -11.068500
H -16.584300 -23.075100 -13.614900
C -16.004300 -21.295400 -12.744600
N -15.901900 -21.753000 -11.311200
C -15.774600 -22.544700 -13.552500
H -15.723000 -23.758000 -10.955800
H -15.463900 -22.332300 -14.446300
H -15.330200 -20.625800 -12.942200
C -15.152200 -23.053800 -11.304000
C -14.704900 -23.269600 -12.757900
H -14.681900 -24.214000 -12.981100
C -13.971800 -22.976900 -10.343500
H -13.828900 -22.884300 -12.916600
H -13.712700 -24.870500 -10.392700
O -13.596500 -21.902700 -9.885300
N -13.389000 -24.141300 -10.091700
H -12.240000 -23.578000 -8.558900
C -12.190200 -24.235500 -9.270500
H -12.153300 -25.114100 -8.860900
C -10.931400 -24.008300 -10.062000
H -10.636300 -22.063500 -9.984100
N -10.365200 -22.828500 -10.267800
N -10.248100 -24.979200 -10.648600
N -9.279800 -23.082700 -11.010100
N -9.215200 -24.367000 -11.234300
52
Fragment
N -18.449900 -18.366600 -14.363400
N -18.385300 -17.082300 -14.587600
N -17.417000 -18.978800 -14.949200
N -17.299900 -16.828100 -15.330000
H -17.028800 -16.063100 -15.613600
C -16.733700 -18.007900 -15.535800
H -15.511800 -19.113700 -16.736800
C -15.474900 -18.235100 -16.327300
H -15.425100 -17.577600 -17.038900
N -14.276100 -18.140900 -15.506100
O -14.068600 -15.902300 -15.712400
H -13.952400 -18.870100 -15.205100
H -13.836200 -16.883900 -12.681100
C -13.693300 -16.976500 -15.254200
H -12.983200 -18.213600 -12.616600
C -12.960200 -17.269200 -12.839800
C -12.512900 -17.053400 -14.293800
H -12.334900 -14.625400 -12.655500
H -12.201200 -16.331900 -11.151400
H -11.942100 -17.757600 -14.641900
C -11.890500 -16.544300 -12.045300
N -11.763200 -15.752600 -14.286500
C -11.660800 -15.295000 -12.853100
H -11.080800 -17.074700 -11.982800
H -10.949800 -15.865100 -14.529300
H -10.784800 -14.920600 -12.670900
H -16.880300 -20.921000 -12.926900
H -16.715300 -21.865500 -11.068500
H -16.584300 -23.075100 -13.614900
C -16.004300 -21.295400 -12.744600
N -15.901900 -21.753000 -11.311200
C -15.774600 -22.544700 -13.552500
H -15.723000 -23.758000 -10.955800
H -15.463900 -22.332300 -14.446300
H -15.330200 -20.625800 -12.942200
C -15.152200 -23.053800 -11.304000
C -14.704900 -23.269600 -12.757900
H -14.681900 -24.214000 -12.981100
C -13.971800 -22.976900 -10.343500
H -13.828900 -22.884300 -12.916600
H -13.712700 -24.870500 -10.392700
O -13.596500 -21.902700 -9.885300
N -13.389000 -24.141300 -10.091700
H -12.240000 -23.578000 -8.558900
C -12.190200 -24.235500 -9.270500
H -12.153300 -25.114100 -8.860900
C -10.931400 -24.008300 -10.062000
H -10.636300 -22.063500 -9.984100
N -10.365200 -22.828500 -10.267800
N -10.248100 -24.979200 -10.648600
N -9.279800 -23.082700 -11.010100
N -9.215200 -24.367000 -11.234300
