26
Fragment
N -18.449900 -18.366600 -14.363400
N -18.385300 -17.082300 -14.587600
N -17.417000 -18.978800 -14.949200
N -17.299900 -16.828100 -15.330000
H -17.028800 -16.063100 -15.613600
C -16.733700 -18.007900 -15.535800
H -15.511800 -19.113700 -16.736800
C -15.474900 -18.235100 -16.327300
H -15.425100 -17.577600 -17.038900
N -14.276100 -18.140900 -15.506100
O -14.068600 -15.902300 -15.712400
H -13.952400 -18.870100 -15.205100
H -13.836200 -16.883900 -12.681100
C -13.693300 -16.976500 -15.254200
H -12.983200 -18.213600 -12.616600
C -12.960200 -17.269200 -12.839800
C -12.512900 -17.053400 -14.293800
H -12.334900 -14.625400 -12.655500
H -12.201200 -16.331900 -11.151400
H -11.942100 -17.757600 -14.641900
C -11.890500 -16.544300 -12.045300
N -11.763200 -15.752600 -14.286500
C -11.660800 -15.295000 -12.853100
H -11.080800 -17.074700 -11.982800
H -10.949800 -15.865100 -14.529300
H -10.784800 -14.920600 -12.670900
26
Fragment
N -9.228200 -18.366600 -14.363400
N -9.163600 -17.082300 -14.587600
N -8.195300 -18.978800 -14.949200
N -8.078200 -16.828100 -15.330000
H -7.807100 -16.063100 -15.613600
C -7.512000 -18.007900 -15.535800
H -6.290100 -19.113700 -16.736800
C -6.253200 -18.235100 -16.327300
H -6.203400 -17.577600 -17.038900
N -5.054400 -18.140900 -15.506100
O -4.846900 -15.902300 -15.712400
H -4.730700 -18.870100 -15.205100
H -4.614500 -16.883900 -12.681100
C -4.471600 -16.976500 -15.254200
H -3.761500 -18.213600 -12.616600
C -3.738500 -17.269200 -12.839800
C -3.291200 -17.053400 -14.293800
H -3.113200 -14.625400 -12.655500
H -2.979500 -16.331900 -11.151400
H -2.720400 -17.757600 -14.641900
C -2.668800 -16.544300 -12.045300
N -2.541500 -15.752600 -14.286500
C -2.439100 -15.295000 -12.853100
H -1.859100 -17.074700 -11.982800
H -1.728100 -15.865100 -14.529300
H -1.563100 -14.920600 -12.670900
52
Fragment
N -18.449900 -18.366600 -14.363400
N -18.385300 -17.082300 -14.587600
N -17.417000 -18.978800 -14.949200
N -17.299900 -16.828100 -15.330000
H -17.028800 -16.063100 -15.613600
C -16.733700 -18.007900 -15.535800
H -15.511800 -19.113700 -16.736800
C -15.474900 -18.235100 -16.327300
H -15.425100 -17.577600 -17.038900
N -14.276100 -18.140900 -15.506100
O -14.068600 -15.902300 -15.712400
H -13.952400 -18.870100 -15.205100
H -13.836200 -16.883900 -12.681100
C -13.693300 -16.976500 -15.254200
H -12.983200 -18.213600 -12.616600
C -12.960200 -17.269200 -12.839800
C -12.512900 -17.053400 -14.293800
H -12.334900 -14.625400 -12.655500
H -12.201200 -16.331900 -11.151400
H -11.942100 -17.757600 -14.641900
C -11.890500 -16.544300 -12.045300
N -11.763200 -15.752600 -14.286500
C -11.660800 -15.295000 -12.853100
H -11.080800 -17.074700 -11.982800
H -10.949800 -15.865100 -14.529300
H -10.784800 -14.920600 -12.670900
N -9.228200 -18.366600 -14.363400
N -9.163600 -17.082300 -14.587600
N -8.195300 -18.978800 -14.949200
N -8.078200 -16.828100 -15.330000
H -7.807100 -16.063100 -15.613600
C -7.512000 -18.007900 -15.535800
H -6.290100 -19.113700 -16.736800
C -6.253200 -18.235100 -16.327300
H -6.203400 -17.577600 -17.038900
N -5.054400 -18.140900 -15.506100
O -4.846900 -15.902300 -15.712400
H -4.730700 -18.870100 -15.205100
H -4.614500 -16.883900 -12.681100
C -4.471600 -16.976500 -15.254200
H -3.761500 -18.213600 -12.616600
C -3.738500 -17.269200 -12.839800
C -3.291200 -17.053400 -14.293800
H -3.113200 -14.625400 -12.655500
H -2.979500 -16.331900 -11.151400
H -2.720400 -17.757600 -14.641900
C -2.668800 -16.544300 -12.045300
N -2.541500 -15.752600 -14.286500
C -2.439100 -15.295000 -12.853100
H -1.859100 -17.074700 -11.982800
H -1.728100 -15.865100 -14.529300
H -1.563100 -14.920600 -12.670900
