26
Fragment
N -18.449900 -18.366600 -14.363400
N -18.385300 -17.082300 -14.587600
N -17.417000 -18.978800 -14.949200
N -17.299900 -16.828100 -15.330000
H -17.028800 -16.063100 -15.613600
C -16.733700 -18.007900 -15.535800
H -15.511800 -19.113700 -16.736800
C -15.474900 -18.235100 -16.327300
H -15.425100 -17.577600 -17.038900
N -14.276100 -18.140900 -15.506100
O -14.068600 -15.902300 -15.712400
H -13.952400 -18.870100 -15.205100
H -13.836200 -16.883900 -12.681100
C -13.693300 -16.976500 -15.254200
H -12.983200 -18.213600 -12.616600
C -12.960200 -17.269200 -12.839800
C -12.512900 -17.053400 -14.293800
H -12.334900 -14.625400 -12.655500
H -12.201200 -16.331900 -11.151400
H -11.942100 -17.757600 -14.641900
C -11.890500 -16.544300 -12.045300
N -11.763200 -15.752600 -14.286500
C -11.660800 -15.295000 -12.853100
H -11.080800 -17.074700 -11.982800
H -10.949800 -15.865100 -14.529300
H -10.784800 -14.920600 -12.670900
26
Fragment
N -27.671600 -18.366600 -14.363400
N -27.607000 -17.082300 -14.587600
N -26.638700 -18.978800 -14.949200
N -26.521600 -16.828100 -15.330000
H -26.250500 -16.063100 -15.613600
C -25.955400 -18.007900 -15.535800
H -24.733500 -19.113700 -16.736800
C -24.696600 -18.235100 -16.327300
H -24.646800 -17.577600 -17.038900
N -23.497800 -18.140900 -15.506100
O -23.290300 -15.902300 -15.712400
H -23.174100 -18.870100 -15.205100
H -23.057900 -16.883900 -12.681100
C -22.915000 -16.976500 -15.254200
H -22.204900 -18.213600 -12.616600
C -22.181900 -17.269200 -12.839800
C -21.734600 -17.053400 -14.293800
H -21.556600 -14.625400 -12.655500
H -21.422900 -16.331900 -11.151400
H -21.163800 -17.757600 -14.641900
C -21.112200 -16.544300 -12.045300
N -20.984900 -15.752600 -14.286500
C -20.882500 -15.295000 -12.853100
H -20.302500 -17.074700 -11.982800
H -20.171500 -15.865100 -14.529300
H -20.006500 -14.920600 -12.670900
52
Fragment
N -18.449900 -18.366600 -14.363400
N -18.385300 -17.082300 -14.587600
N -17.417000 -18.978800 -14.949200
N -17.299900 -16.828100 -15.330000
H -17.028800 -16.063100 -15.613600
C -16.733700 -18.007900 -15.535800
H -15.511800 -19.113700 -16.736800
C -15.474900 -18.235100 -16.327300
H -15.425100 -17.577600 -17.038900
N -14.276100 -18.140900 -15.506100
O -14.068600 -15.902300 -15.712400
H -13.952400 -18.870100 -15.205100
H -13.836200 -16.883900 -12.681100
C -13.693300 -16.976500 -15.254200
H -12.983200 -18.213600 -12.616600
C -12.960200 -17.269200 -12.839800
C -12.512900 -17.053400 -14.293800
H -12.334900 -14.625400 -12.655500
H -12.201200 -16.331900 -11.151400
H -11.942100 -17.757600 -14.641900
C -11.890500 -16.544300 -12.045300
N -11.763200 -15.752600 -14.286500
C -11.660800 -15.295000 -12.853100
H -11.080800 -17.074700 -11.982800
H -10.949800 -15.865100 -14.529300
H -10.784800 -14.920600 -12.670900
N -27.671600 -18.366600 -14.363400
N -27.607000 -17.082300 -14.587600
N -26.638700 -18.978800 -14.949200
N -26.521600 -16.828100 -15.330000
H -26.250500 -16.063100 -15.613600
C -25.955400 -18.007900 -15.535800
H -24.733500 -19.113700 -16.736800
C -24.696600 -18.235100 -16.327300
H -24.646800 -17.577600 -17.038900
N -23.497800 -18.140900 -15.506100
O -23.290300 -15.902300 -15.712400
H -23.174100 -18.870100 -15.205100
H -23.057900 -16.883900 -12.681100
C -22.915000 -16.976500 -15.254200
H -22.204900 -18.213600 -12.616600
C -22.181900 -17.269200 -12.839800
C -21.734600 -17.053400 -14.293800
H -21.556600 -14.625400 -12.655500
H -21.422900 -16.331900 -11.151400
H -21.163800 -17.757600 -14.641900
C -21.112200 -16.544300 -12.045300
N -20.984900 -15.752600 -14.286500
C -20.882500 -15.295000 -12.853100
H -20.302500 -17.074700 -11.982800
H -20.171500 -15.865100 -14.529300
H -20.006500 -14.920600 -12.670900
