26
Fragment
N -18.449900 -18.366600 -14.363400
N -18.385300 -17.082300 -14.587600
N -17.417000 -18.978800 -14.949200
N -17.299900 -16.828100 -15.330000
H -17.028800 -16.063100 -15.613600
C -16.733700 -18.007900 -15.535800
H -15.511800 -19.113700 -16.736800
C -15.474900 -18.235100 -16.327300
H -15.425100 -17.577600 -17.038900
N -14.276100 -18.140900 -15.506100
O -14.068600 -15.902300 -15.712400
H -13.952400 -18.870100 -15.205100
H -13.836200 -16.883900 -12.681100
C -13.693300 -16.976500 -15.254200
H -12.983200 -18.213600 -12.616600
C -12.960200 -17.269200 -12.839800
C -12.512900 -17.053400 -14.293800
H -12.334900 -14.625400 -12.655500
H -12.201200 -16.331900 -11.151400
H -11.942100 -17.757600 -14.641900
C -11.890500 -16.544300 -12.045300
N -11.763200 -15.752600 -14.286500
C -11.660800 -15.295000 -12.853100
H -11.080800 -17.074700 -11.982800
H -10.949800 -15.865100 -14.529300
H -10.784800 -14.920600 -12.670900
26
Fragment
N -23.060700 -11.635400 -16.353900
N -22.996200 -12.919700 -16.129700
N -22.027900 -11.023200 -15.768100
N -21.910800 -13.173900 -15.387300
H -21.639600 -13.938900 -15.103700
C -21.344500 -11.994100 -15.181500
H -20.122700 -10.888300 -13.980500
C -20.085800 -11.766900 -14.390000
H -20.036000 -12.424400 -13.678400
N -18.887000 -11.861100 -15.211200
O -18.679500 -14.099700 -15.004900
H -18.563300 -11.131900 -15.512200
H -18.447100 -13.118100 -18.036200
C -18.304200 -13.025500 -15.463100
H -17.594100 -11.788400 -18.100700
C -17.571000 -12.732800 -17.877500
C -17.123800 -12.948600 -16.423500
H -16.945800 -15.376600 -18.061800
H -16.812100 -13.670100 -19.565900
H -16.553000 -12.244400 -16.075400
C -16.501300 -13.457700 -18.672000
N -16.374100 -14.249400 -16.430800
C -16.271700 -14.707000 -17.864200
H -15.691600 -12.927300 -18.734500
H -15.560700 -14.136900 -16.188000
H -15.395600 -15.081400 -18.046400
52
Fragment
N -18.449900 -18.366600 -14.363400
N -18.385300 -17.082300 -14.587600
N -17.417000 -18.978800 -14.949200
N -17.299900 -16.828100 -15.330000
H -17.028800 -16.063100 -15.613600
C -16.733700 -18.007900 -15.535800
H -15.511800 -19.113700 -16.736800
C -15.474900 -18.235100 -16.327300
H -15.425100 -17.577600 -17.038900
N -14.276100 -18.140900 -15.506100
O -14.068600 -15.902300 -15.712400
H -13.952400 -18.870100 -15.205100
H -13.836200 -16.883900 -12.681100
C -13.693300 -16.976500 -15.254200
H -12.983200 -18.213600 -12.616600
C -12.960200 -17.269200 -12.839800
C -12.512900 -17.053400 -14.293800
H -12.334900 -14.625400 -12.655500
H -12.201200 -16.331900 -11.151400
H -11.942100 -17.757600 -14.641900
C -11.890500 -16.544300 -12.045300
N -11.763200 -15.752600 -14.286500
C -11.660800 -15.295000 -12.853100
H -11.080800 -17.074700 -11.982800
H -10.949800 -15.865100 -14.529300
H -10.784800 -14.920600 -12.670900
N -23.060700 -11.635400 -16.353900
N -22.996200 -12.919700 -16.129700
N -22.027900 -11.023200 -15.768100
N -21.910800 -13.173900 -15.387300
H -21.639600 -13.938900 -15.103700
C -21.344500 -11.994100 -15.181500
H -20.122700 -10.888300 -13.980500
C -20.085800 -11.766900 -14.390000
H -20.036000 -12.424400 -13.678400
N -18.887000 -11.861100 -15.211200
O -18.679500 -14.099700 -15.004900
H -18.563300 -11.131900 -15.512200
H -18.447100 -13.118100 -18.036200
C -18.304200 -13.025500 -15.463100
H -17.594100 -11.788400 -18.100700
C -17.571000 -12.732800 -17.877500
C -17.123800 -12.948600 -16.423500
H -16.945800 -15.376600 -18.061800
H -16.812100 -13.670100 -19.565900
H -16.553000 -12.244400 -16.075400
C -16.501300 -13.457700 -18.672000
N -16.374100 -14.249400 -16.430800
C -16.271700 -14.707000 -17.864200
H -15.691600 -12.927300 -18.734500
H -15.560700 -14.136900 -16.188000
H -15.395600 -15.081400 -18.046400
