20
Fragment
H -17.493600 -13.435500 -17.746600
C -17.231000 -12.903900 -17.004300
H -17.216500 -14.397000 -15.658500
H -17.110300 -11.125400 -17.994200
C -17.066800 -13.463900 -15.754700
C -17.003100 -11.542400 -17.147400
N -16.708300 -12.768100 -14.671800
C -16.618900 -10.798800 -16.049000
C -16.492500 -11.451000 -14.824700
H -16.445600 -9.868000 -16.126300
C -16.108800 -10.755300 -13.587700
H -15.968900 -11.249200 -12.788300
N -15.963900 -9.487300 -13.588900
N -15.609800 -8.904900 -12.375700
H -15.567500 -10.320200 -10.874100
C -15.458300 -9.407500 -11.114400
H -15.391800 -6.954300 -12.973900
C -15.362000 -7.575200 -12.255500
N -15.142000 -8.449800 -10.290100
N -15.078400 -7.266900 -11.028000
20
Fragment
N -20.983500 -14.719700 -17.163600
N -20.920000 -13.536800 -17.901500
C -20.699900 -14.411400 -15.936100
H -20.670100 -15.032300 -15.217700
C -20.603600 -12.579100 -17.077300
H -20.494400 -11.666500 -17.317500
N -20.452100 -13.081800 -15.815900
N -20.098000 -12.499300 -14.602700
H -20.093000 -10.737400 -15.403300
C -19.953100 -11.231300 -14.603900
H -19.616300 -12.118700 -12.065300
C -19.569400 -10.535600 -13.366900
C -19.443000 -11.187800 -12.142600
N -19.353700 -9.218500 -13.519800
C -19.058800 -10.444200 -11.044200
C -18.995100 -8.522700 -12.436900
H -18.951600 -10.861200 -10.197400
H -18.845400 -7.589600 -12.533100
C -18.831000 -9.082700 -11.187300
H -18.568400 -8.551200 -10.445000
40
Fragment
H -17.493600 -13.435500 -17.746600
C -17.231000 -12.903900 -17.004300
H -17.216500 -14.397000 -15.658500
H -17.110300 -11.125400 -17.994200
C -17.066800 -13.463900 -15.754700
C -17.003100 -11.542400 -17.147400
N -16.708300 -12.768100 -14.671800
C -16.618900 -10.798800 -16.049000
C -16.492500 -11.451000 -14.824700
H -16.445600 -9.868000 -16.126300
C -16.108800 -10.755300 -13.587700
H -15.968900 -11.249200 -12.788300
N -15.963900 -9.487300 -13.588900
N -15.609800 -8.904900 -12.375700
H -15.567500 -10.320200 -10.874100
C -15.458300 -9.407500 -11.114400
H -15.391800 -6.954300 -12.973900
C -15.362000 -7.575200 -12.255500
N -15.142000 -8.449800 -10.290100
N -15.078400 -7.266900 -11.028000
N -20.983500 -14.719700 -17.163600
N -20.920000 -13.536800 -17.901500
C -20.699900 -14.411400 -15.936100
H -20.670100 -15.032300 -15.217700
C -20.603600 -12.579100 -17.077300
H -20.494400 -11.666500 -17.317500
N -20.452100 -13.081800 -15.815900
N -20.098000 -12.499300 -14.602700
H -20.093000 -10.737400 -15.403300
C -19.953100 -11.231300 -14.603900
H -19.616300 -12.118700 -12.065300
C -19.569400 -10.535600 -13.366900
C -19.443000 -11.187800 -12.142600
N -19.353700 -9.218500 -13.519800
C -19.058800 -10.444200 -11.044200
C -18.995100 -8.522700 -12.436900
H -18.951600 -10.861200 -10.197400
H -18.845400 -7.589600 -12.533100
C -18.831000 -9.082700 -11.187300
H -18.568400 -8.551200 -10.445000
