20
Fragment
H -17.493600 -13.435500 -17.746600
C -17.231000 -12.903900 -17.004300
H -17.216500 -14.397000 -15.658500
H -17.110300 -11.125400 -17.994200
C -17.066800 -13.463900 -15.754700
C -17.003100 -11.542400 -17.147400
N -16.708300 -12.768100 -14.671800
C -16.618900 -10.798800 -16.049000
C -16.492500 -11.451000 -14.824700
H -16.445600 -9.868000 -16.126300
C -16.108800 -10.755300 -13.587700
H -15.968900 -11.249200 -12.788300
N -15.963900 -9.487300 -13.588900
N -15.609800 -8.904900 -12.375700
H -15.567500 -10.320200 -10.874100
C -15.458300 -9.407500 -11.114400
H -15.391800 -6.954300 -12.973900
C -15.362000 -7.575200 -12.255500
N -15.142000 -8.449800 -10.290100
N -15.078400 -7.266900 -11.028000
20
Fragment
N -21.029900 -15.034900 -26.560800
N -20.966400 -13.852000 -27.298700
C -20.746300 -14.726600 -25.333300
H -20.716500 -15.347500 -24.614900
C -20.650100 -12.894300 -26.474500
H -20.540900 -11.981600 -26.714700
N -20.498600 -13.396900 -25.213100
N -20.144500 -12.814500 -23.999900
H -20.139400 -11.052600 -24.800500
C -19.999600 -11.546500 -24.001100
H -19.662700 -12.433800 -21.462500
C -19.615800 -10.850800 -22.764100
C -19.489400 -11.503000 -21.539800
N -19.400100 -9.533700 -22.917000
C -19.105300 -10.759400 -20.441400
C -19.041500 -8.837900 -21.834100
H -18.998000 -11.176400 -19.594600
H -18.891900 -7.904800 -21.930300
C -18.877400 -9.397900 -20.584500
H -18.614800 -8.866300 -19.842200
40
Fragment
H -17.493600 -13.435500 -17.746600
C -17.231000 -12.903900 -17.004300
H -17.216500 -14.397000 -15.658500
H -17.110300 -11.125400 -17.994200
C -17.066800 -13.463900 -15.754700
C -17.003100 -11.542400 -17.147400
N -16.708300 -12.768100 -14.671800
C -16.618900 -10.798800 -16.049000
C -16.492500 -11.451000 -14.824700
H -16.445600 -9.868000 -16.126300
C -16.108800 -10.755300 -13.587700
H -15.968900 -11.249200 -12.788300
N -15.963900 -9.487300 -13.588900
N -15.609800 -8.904900 -12.375700
H -15.567500 -10.320200 -10.874100
C -15.458300 -9.407500 -11.114400
H -15.391800 -6.954300 -12.973900
C -15.362000 -7.575200 -12.255500
N -15.142000 -8.449800 -10.290100
N -15.078400 -7.266900 -11.028000
N -21.029900 -15.034900 -26.560800
N -20.966400 -13.852000 -27.298700
C -20.746300 -14.726600 -25.333300
H -20.716500 -15.347500 -24.614900
C -20.650100 -12.894300 -26.474500
H -20.540900 -11.981600 -26.714700
N -20.498600 -13.396900 -25.213100
N -20.144500 -12.814500 -23.999900
H -20.139400 -11.052600 -24.800500
C -19.999600 -11.546500 -24.001100
H -19.662700 -12.433800 -21.462500
C -19.615800 -10.850800 -22.764100
C -19.489400 -11.503000 -21.539800
N -19.400100 -9.533700 -22.917000
C -19.105300 -10.759400 -20.441400
C -19.041500 -8.837900 -21.834100
H -18.998000 -11.176400 -19.594600
H -18.891900 -7.904800 -21.930300
C -18.877400 -9.397900 -20.584500
H -18.614800 -8.866300 -19.842200
