20
Fragment
H -17.493600 -13.435500 -17.746600
C -17.231000 -12.903900 -17.004300
H -17.216500 -14.397000 -15.658500
H -17.110300 -11.125400 -17.994200
C -17.066800 -13.463900 -15.754700
C -17.003100 -11.542400 -17.147400
N -16.708300 -12.768100 -14.671800
C -16.618900 -10.798800 -16.049000
C -16.492500 -11.451000 -14.824700
H -16.445600 -9.868000 -16.126300
C -16.108800 -10.755300 -13.587700
H -15.968900 -11.249200 -12.788300
N -15.963900 -9.487300 -13.588900
N -15.609800 -8.904900 -12.375700
H -15.567500 -10.320200 -10.874100
C -15.458300 -9.407500 -11.114400
H -15.391800 -6.954300 -12.973900
C -15.362000 -7.575200 -12.255500
N -15.142000 -8.449800 -10.290100
N -15.078400 -7.266900 -11.028000
20
Fragment
H -20.265900 -20.764300 -27.143800
C -20.003300 -20.232800 -26.401500
H -19.988900 -21.725900 -25.055700
H -19.882700 -18.454300 -27.391400
C -19.839200 -20.792800 -25.151900
C -19.775400 -18.871300 -26.544700
N -19.480600 -20.097000 -24.069000
C -19.391300 -18.127700 -25.446200
C -19.264900 -18.779900 -24.221900
H -19.218000 -17.196800 -25.523500
C -18.881200 -18.084200 -22.984900
H -18.741300 -18.578100 -22.185500
N -18.736200 -16.816200 -22.986100
N -18.382100 -16.233800 -21.772900
H -18.339900 -17.649000 -20.271300
C -18.230600 -16.736400 -20.511600
H -18.164200 -14.283200 -22.371100
C -18.134400 -14.904100 -21.652700
N -17.914300 -15.778700 -19.687300
N -17.850800 -14.595800 -20.425200
40
Fragment
H -17.493600 -13.435500 -17.746600
C -17.231000 -12.903900 -17.004300
H -17.216500 -14.397000 -15.658500
H -17.110300 -11.125400 -17.994200
C -17.066800 -13.463900 -15.754700
C -17.003100 -11.542400 -17.147400
N -16.708300 -12.768100 -14.671800
C -16.618900 -10.798800 -16.049000
C -16.492500 -11.451000 -14.824700
H -16.445600 -9.868000 -16.126300
C -16.108800 -10.755300 -13.587700
H -15.968900 -11.249200 -12.788300
N -15.963900 -9.487300 -13.588900
N -15.609800 -8.904900 -12.375700
H -15.567500 -10.320200 -10.874100
C -15.458300 -9.407500 -11.114400
H -15.391800 -6.954300 -12.973900
C -15.362000 -7.575200 -12.255500
N -15.142000 -8.449800 -10.290100
N -15.078400 -7.266900 -11.028000
H -20.265900 -20.764300 -27.143800
C -20.003300 -20.232800 -26.401500
H -19.988900 -21.725900 -25.055700
H -19.882700 -18.454300 -27.391400
C -19.839200 -20.792800 -25.151900
C -19.775400 -18.871300 -26.544700
N -19.480600 -20.097000 -24.069000
C -19.391300 -18.127700 -25.446200
C -19.264900 -18.779900 -24.221900
H -19.218000 -17.196800 -25.523500
C -18.881200 -18.084200 -22.984900
H -18.741300 -18.578100 -22.185500
N -18.736200 -16.816200 -22.986100
N -18.382100 -16.233800 -21.772900
H -18.339900 -17.649000 -20.271300
C -18.230600 -16.736400 -20.511600
H -18.164200 -14.283200 -22.371100
C -18.134400 -14.904100 -21.652700
N -17.914300 -15.778700 -19.687300
N -17.850800 -14.595800 -20.425200
