20
Fragment
H -17.493600 -13.435500 -17.746600
C -17.231000 -12.903900 -17.004300
H -17.216500 -14.397000 -15.658500
H -17.110300 -11.125400 -17.994200
C -17.066800 -13.463900 -15.754700
C -17.003100 -11.542400 -17.147400
N -16.708300 -12.768100 -14.671800
C -16.618900 -10.798800 -16.049000
C -16.492500 -11.451000 -14.824700
H -16.445600 -9.868000 -16.126300
C -16.108800 -10.755300 -13.587700
H -15.968900 -11.249200 -12.788300
N -15.963900 -9.487300 -13.588900
N -15.609800 -8.904900 -12.375700
H -15.567500 -10.320200 -10.874100
C -15.458300 -9.407500 -11.114400
H -15.391800 -6.954300 -12.973900
C -15.362000 -7.575200 -12.255500
N -15.142000 -8.449800 -10.290100
N -15.078400 -7.266900 -11.028000
20
Fragment
N -18.257600 -7.706000 -17.163600
N -18.194000 -6.523100 -17.901500
C -17.973900 -7.397700 -15.936100
H -17.944200 -8.018600 -15.217700
C -17.877700 -5.565400 -17.077300
H -17.768500 -4.652800 -17.317500
N -17.726200 -6.068100 -15.815900
N -17.372100 -5.485600 -14.602700
H -17.367100 -3.723700 -15.403300
C -17.227200 -4.217600 -14.603900
H -16.890300 -5.105000 -12.065300
C -16.843400 -3.521900 -13.366900
C -16.717100 -4.174100 -12.142600
N -16.627700 -2.204800 -13.519800
C -16.332900 -3.430500 -11.044200
C -16.269200 -1.509000 -12.436900
H -16.225700 -3.847500 -10.197400
H -16.119500 -0.575900 -12.533100
C -16.105000 -2.069000 -11.187300
H -15.842400 -1.537500 -10.445000
40
Fragment
H -17.493600 -13.435500 -17.746600
C -17.231000 -12.903900 -17.004300
H -17.216500 -14.397000 -15.658500
H -17.110300 -11.125400 -17.994200
C -17.066800 -13.463900 -15.754700
C -17.003100 -11.542400 -17.147400
N -16.708300 -12.768100 -14.671800
C -16.618900 -10.798800 -16.049000
C -16.492500 -11.451000 -14.824700
H -16.445600 -9.868000 -16.126300
C -16.108800 -10.755300 -13.587700
H -15.968900 -11.249200 -12.788300
N -15.963900 -9.487300 -13.588900
N -15.609800 -8.904900 -12.375700
H -15.567500 -10.320200 -10.874100
C -15.458300 -9.407500 -11.114400
H -15.391800 -6.954300 -12.973900
C -15.362000 -7.575200 -12.255500
N -15.142000 -8.449800 -10.290100
N -15.078400 -7.266900 -11.028000
N -18.257600 -7.706000 -17.163600
N -18.194000 -6.523100 -17.901500
C -17.973900 -7.397700 -15.936100
H -17.944200 -8.018600 -15.217700
C -17.877700 -5.565400 -17.077300
H -17.768500 -4.652800 -17.317500
N -17.726200 -6.068100 -15.815900
N -17.372100 -5.485600 -14.602700
H -17.367100 -3.723700 -15.403300
C -17.227200 -4.217600 -14.603900
H -16.890300 -5.105000 -12.065300
C -16.843400 -3.521900 -13.366900
C -16.717100 -4.174100 -12.142600
N -16.627700 -2.204800 -13.519800
C -16.332900 -3.430500 -11.044200
C -16.269200 -1.509000 -12.436900
H -16.225700 -3.847500 -10.197400
H -16.119500 -0.575900 -12.533100
C -16.105000 -2.069000 -11.187300
H -15.842400 -1.537500 -10.445000
