20
Fragment
H -17.493600 -13.435500 -17.746600
C -17.231000 -12.903900 -17.004300
H -17.216500 -14.397000 -15.658500
H -17.110300 -11.125400 -17.994200
C -17.066800 -13.463900 -15.754700
C -17.003100 -11.542400 -17.147400
N -16.708300 -12.768100 -14.671800
C -16.618900 -10.798800 -16.049000
C -16.492500 -11.451000 -14.824700
H -16.445600 -9.868000 -16.126300
C -16.108800 -10.755300 -13.587700
H -15.968900 -11.249200 -12.788300
N -15.963900 -9.487300 -13.588900
N -15.609800 -8.904900 -12.375700
H -15.567500 -10.320200 -10.874100
C -15.458300 -9.407500 -11.114400
H -15.391800 -6.954300 -12.973900
C -15.362000 -7.575200 -12.255500
N -15.142000 -8.449800 -10.290100
N -15.078400 -7.266900 -11.028000
20
Fragment
H -20.219500 -20.449200 -17.746600
C -19.956900 -19.917600 -17.004300
H -19.942400 -21.410700 -15.658500
H -19.836300 -18.139100 -17.994200
C -19.792700 -20.477600 -15.754700
C -19.729000 -18.556100 -17.147400
N -19.434200 -19.781800 -14.671800
C -19.344800 -17.812500 -16.049000
C -19.218500 -18.464700 -14.824700
H -19.171600 -16.881700 -16.126300
C -18.834700 -17.769000 -13.587700
H -18.694900 -18.262900 -12.788300
N -18.689800 -16.501000 -13.588900
N -18.335700 -15.918600 -12.375700
H -18.293400 -17.333900 -10.874100
C -18.184200 -16.421200 -11.114400
H -18.117700 -13.968000 -12.973900
C -18.088000 -14.588900 -12.255500
N -17.867900 -15.463500 -10.290100
N -17.804300 -14.280600 -11.028000
40
Fragment
H -17.493600 -13.435500 -17.746600
C -17.231000 -12.903900 -17.004300
H -17.216500 -14.397000 -15.658500
H -17.110300 -11.125400 -17.994200
C -17.066800 -13.463900 -15.754700
C -17.003100 -11.542400 -17.147400
N -16.708300 -12.768100 -14.671800
C -16.618900 -10.798800 -16.049000
C -16.492500 -11.451000 -14.824700
H -16.445600 -9.868000 -16.126300
C -16.108800 -10.755300 -13.587700
H -15.968900 -11.249200 -12.788300
N -15.963900 -9.487300 -13.588900
N -15.609800 -8.904900 -12.375700
H -15.567500 -10.320200 -10.874100
C -15.458300 -9.407500 -11.114400
H -15.391800 -6.954300 -12.973900
C -15.362000 -7.575200 -12.255500
N -15.142000 -8.449800 -10.290100
N -15.078400 -7.266900 -11.028000
H -20.219500 -20.449200 -17.746600
C -19.956900 -19.917600 -17.004300
H -19.942400 -21.410700 -15.658500
H -19.836300 -18.139100 -17.994200
C -19.792700 -20.477600 -15.754700
C -19.729000 -18.556100 -17.147400
N -19.434200 -19.781800 -14.671800
C -19.344800 -17.812500 -16.049000
C -19.218500 -18.464700 -14.824700
H -19.171600 -16.881700 -16.126300
C -18.834700 -17.769000 -13.587700
H -18.694900 -18.262900 -12.788300
N -18.689800 -16.501000 -13.588900
N -18.335700 -15.918600 -12.375700
H -18.293400 -17.333900 -10.874100
C -18.184200 -16.421200 -11.114400
H -18.117700 -13.968000 -12.973900
C -18.088000 -14.588900 -12.255500
N -17.867900 -15.463500 -10.290100
N -17.804300 -14.280600 -11.028000
