20
Fragment
H -17.493600 -13.435500 -17.746600
C -17.231000 -12.903900 -17.004300
H -17.216500 -14.397000 -15.658500
H -17.110300 -11.125400 -17.994200
C -17.066800 -13.463900 -15.754700
C -17.003100 -11.542400 -17.147400
N -16.708300 -12.768100 -14.671800
C -16.618900 -10.798800 -16.049000
C -16.492500 -11.451000 -14.824700
H -16.445600 -9.868000 -16.126300
C -16.108800 -10.755300 -13.587700
H -15.968900 -11.249200 -12.788300
N -15.963900 -9.487300 -13.588900
N -15.609800 -8.904900 -12.375700
H -15.567500 -10.320200 -10.874100
C -15.458300 -9.407500 -11.114400
H -15.391800 -6.954300 -12.973900
C -15.362000 -7.575200 -12.255500
N -15.142000 -8.449800 -10.290100
N -15.078400 -7.266900 -11.028000
20
Fragment
H -17.540000 -13.750700 -27.143800
C -17.277400 -13.219100 -26.401500
H -17.262900 -14.712200 -25.055700
H -17.156800 -11.440600 -27.391400
C -17.113300 -13.779100 -25.151900
C -17.049500 -11.857600 -26.544700
N -16.754700 -13.083300 -24.069000
C -16.665300 -11.114000 -25.446200
C -16.539000 -11.766200 -24.221900
H -16.492100 -10.183100 -25.523500
C -16.155200 -11.070500 -22.984900
H -16.015400 -11.564400 -22.185500
N -16.010300 -9.802500 -22.986100
N -15.656200 -9.220100 -21.772900
H -15.613900 -10.635300 -20.271300
C -15.504700 -9.722700 -20.511600
H -15.438200 -7.269500 -22.371100
C -15.408500 -7.890400 -21.652700
N -15.188400 -8.765000 -19.687300
N -15.124900 -7.582100 -20.425200
40
Fragment
H -17.493600 -13.435500 -17.746600
C -17.231000 -12.903900 -17.004300
H -17.216500 -14.397000 -15.658500
H -17.110300 -11.125400 -17.994200
C -17.066800 -13.463900 -15.754700
C -17.003100 -11.542400 -17.147400
N -16.708300 -12.768100 -14.671800
C -16.618900 -10.798800 -16.049000
C -16.492500 -11.451000 -14.824700
H -16.445600 -9.868000 -16.126300
C -16.108800 -10.755300 -13.587700
H -15.968900 -11.249200 -12.788300
N -15.963900 -9.487300 -13.588900
N -15.609800 -8.904900 -12.375700
H -15.567500 -10.320200 -10.874100
C -15.458300 -9.407500 -11.114400
H -15.391800 -6.954300 -12.973900
C -15.362000 -7.575200 -12.255500
N -15.142000 -8.449800 -10.290100
N -15.078400 -7.266900 -11.028000
H -17.540000 -13.750700 -27.143800
C -17.277400 -13.219100 -26.401500
H -17.262900 -14.712200 -25.055700
H -17.156800 -11.440600 -27.391400
C -17.113300 -13.779100 -25.151900
C -17.049500 -11.857600 -26.544700
N -16.754700 -13.083300 -24.069000
C -16.665300 -11.114000 -25.446200
C -16.539000 -11.766200 -24.221900
H -16.492100 -10.183100 -25.523500
C -16.155200 -11.070500 -22.984900
H -16.015400 -11.564400 -22.185500
N -16.010300 -9.802500 -22.986100
N -15.656200 -9.220100 -21.772900
H -15.613900 -10.635300 -20.271300
C -15.504700 -9.722700 -20.511600
H -15.438200 -7.269500 -22.371100
C -15.408500 -7.890400 -21.652700
N -15.188400 -8.765000 -19.687300
N -15.124900 -7.582100 -20.425200
