17
Fragment
H -20.223400 -15.846400 -29.369000
C -19.311800 -15.713400 -29.498200
H -19.251200 -16.635900 -31.295100
C -18.737900 -16.188400 -30.661200
N -18.623700 -15.073700 -28.552900
H -18.239900 -16.843900 -33.079900
N -17.389200 -16.819000 -33.121000
C -17.376900 -15.985000 -30.866900
C -17.318100 -14.872700 -28.760000
N -16.875900 -17.195000 -34.387900
H -16.828600 -14.421800 -28.108900
C -16.662400 -15.305700 -29.900500
C -16.629300 -16.449800 -32.097700
H -16.415200 -16.449800 -34.784700
H -16.273100 -17.853300 -34.283200
H -15.754100 -15.141900 -30.013900
O -15.411100 -16.468200 -32.124300
26
Fragment
H -22.228600 -10.800100 -20.010600
O -21.894200 -11.023100 -20.877600
C -20.603300 -11.301900 -20.807800
H -20.546000 -12.598200 -22.364500
H -20.243700 -11.126100 -22.794300
C -20.059500 -11.796600 -22.117700
O -19.958900 -11.185800 -19.791900
H -18.622900 -13.516500 -23.654100
C -18.575100 -12.111100 -22.154200
H -18.425100 -12.062100 -24.204100
H -18.366200 -12.753500 -21.458300
C -18.155900 -12.679600 -23.506600
H -18.070900 -11.302500 -21.976700
C -16.658100 -12.924600 -23.614500
H -16.617600 -14.177000 -25.251400
H -16.482600 -12.665400 -25.653900
H -16.408700 -13.620300 -22.986100
C -16.200800 -13.335600 -25.010400
H -16.189400 -12.114400 -23.357000
C -14.687800 -13.484500 -25.063200
O -14.618700 -13.659700 -27.466600
H -14.426800 -14.153100 -24.410600
H -14.291400 -12.642800 -24.789900
C -14.103200 -13.868500 -26.385300
O -12.917000 -14.429600 -26.258500
H -12.528200 -14.638000 -27.063700
43
Fragment
H -20.223400 -15.846400 -29.369000
C -19.311800 -15.713400 -29.498200
H -19.251200 -16.635900 -31.295100
C -18.737900 -16.188400 -30.661200
N -18.623700 -15.073700 -28.552900
H -18.239900 -16.843900 -33.079900
N -17.389200 -16.819000 -33.121000
C -17.376900 -15.985000 -30.866900
C -17.318100 -14.872700 -28.760000
N -16.875900 -17.195000 -34.387900
H -16.828600 -14.421800 -28.108900
C -16.662400 -15.305700 -29.900500
C -16.629300 -16.449800 -32.097700
H -16.415200 -16.449800 -34.784700
H -16.273100 -17.853300 -34.283200
H -15.754100 -15.141900 -30.013900
O -15.411100 -16.468200 -32.124300
H -22.228600 -10.800100 -20.010600
O -21.894200 -11.023100 -20.877600
C -20.603300 -11.301900 -20.807800
H -20.546000 -12.598200 -22.364500
H -20.243700 -11.126100 -22.794300
C -20.059500 -11.796600 -22.117700
O -19.958900 -11.185800 -19.791900
H -18.622900 -13.516500 -23.654100
C -18.575100 -12.111100 -22.154200
H -18.425100 -12.062100 -24.204100
H -18.366200 -12.753500 -21.458300
C -18.155900 -12.679600 -23.506600
H -18.070900 -11.302500 -21.976700
C -16.658100 -12.924600 -23.614500
H -16.617600 -14.177000 -25.251400
H -16.482600 -12.665400 -25.653900
H -16.408700 -13.620300 -22.986100
C -16.200800 -13.335600 -25.010400
H -16.189400 -12.114400 -23.357000
C -14.687800 -13.484500 -25.063200
O -14.618700 -13.659700 -27.466600
H -14.426800 -14.153100 -24.410600
H -14.291400 -12.642800 -24.789900
C -14.103200 -13.868500 -26.385300
O -12.917000 -14.429600 -26.258500
H -12.528200 -14.638000 -27.063700
