32
Fragment
H -17.534400 5.243800 -9.549300
O -17.434100 2.857500 -9.468400
O -16.686200 4.894900 -9.951400
C -16.609500 3.580400 -9.981900
H -15.947800 1.216900 -11.306400
H -15.397100 3.471500 -11.604700
C -15.381500 3.103600 -10.706900
C -15.204000 1.597700 -10.813400
H -15.200300 1.207700 -9.925700
H -14.603100 3.469100 -10.257700
H -14.330600 -0.606700 -12.248100
H -13.903700 1.681800 -12.400900
C -13.894500 1.263200 -11.525200
H -13.659300 -0.653300 -10.832600
C -13.627300 -0.222400 -11.701100
H -13.161800 1.652100 -11.022600
H -12.740600 -2.392100 -13.031100
C -12.275100 -0.517700 -12.352500
H -12.243100 -0.086700 -13.221100
C -12.007800 -2.003200 -12.528500
H -11.998700 -2.421800 -11.652800
H -11.571800 -0.133400 -11.805500
H -11.299200 -4.209100 -13.796000
H -10.702100 -1.947800 -14.127900
C -10.698400 -2.337700 -13.240200
C -10.520800 -3.843700 -13.346800
H -10.505200 -4.211600 -12.449000
H -9.954600 -1.956900 -12.747200
C -9.292900 -4.320400 -14.071700
O -9.216200 -5.634900 -14.102300
O -8.468300 -3.597500 -14.585300
H -8.368000 -5.983800 -14.504300
32
Fragment
H -18.166300 12.316000 -9.549300
O -18.066000 9.929700 -9.468400
O -17.318200 11.967100 -9.951400
C -17.241400 10.652600 -9.981900
H -16.579700 8.289100 -11.306400
H -16.029100 10.543700 -11.604700
C -16.013500 10.175800 -10.706900
C -15.835900 8.669900 -10.813400
H -15.832200 8.279900 -9.925700
H -15.235100 10.541300 -10.257700
H -14.962600 6.465500 -12.248100
H -14.535700 8.754000 -12.400900
C -14.526500 8.335400 -11.525200
H -14.291200 6.418900 -10.832600
C -14.259200 6.849900 -11.701100
H -13.793700 8.724300 -11.022600
H -13.372500 4.680100 -13.031100
C -12.907000 6.554600 -12.352500
H -12.875000 6.985500 -13.221100
C -12.639800 5.069000 -12.528500
H -12.630600 4.650400 -11.652800
H -12.203700 6.938900 -11.805500
H -11.931200 2.863100 -13.796000
H -11.334000 5.124500 -14.127900
C -11.330300 4.734500 -13.240200
C -11.152800 3.228600 -13.346800
H -11.137200 2.860700 -12.449000
H -10.586500 5.115300 -12.747200
C -9.924800 2.751800 -14.071700
O -9.848100 1.437300 -14.102300
O -9.100200 3.474700 -14.585300
H -8.999900 1.088400 -14.504300
64
Fragment
H -17.534400 5.243800 -9.549300
O -17.434100 2.857500 -9.468400
O -16.686200 4.894900 -9.951400
C -16.609500 3.580400 -9.981900
H -15.947800 1.216900 -11.306400
H -15.397100 3.471500 -11.604700
C -15.381500 3.103600 -10.706900
C -15.204000 1.597700 -10.813400
H -15.200300 1.207700 -9.925700
H -14.603100 3.469100 -10.257700
H -14.330600 -0.606700 -12.248100
H -13.903700 1.681800 -12.400900
C -13.894500 1.263200 -11.525200
H -13.659300 -0.653300 -10.832600
C -13.627300 -0.222400 -11.701100
H -13.161800 1.652100 -11.022600
H -12.740600 -2.392100 -13.031100
C -12.275100 -0.517700 -12.352500
H -12.243100 -0.086700 -13.221100
C -12.007800 -2.003200 -12.528500
H -11.998700 -2.421800 -11.652800
H -11.571800 -0.133400 -11.805500
H -11.299200 -4.209100 -13.796000
H -10.702100 -1.947800 -14.127900
C -10.698400 -2.337700 -13.240200
C -10.520800 -3.843700 -13.346800
H -10.505200 -4.211600 -12.449000
H -9.954600 -1.956900 -12.747200
C -9.292900 -4.320400 -14.071700
O -9.216200 -5.634900 -14.102300
O -8.468300 -3.597500 -14.585300
H -8.368000 -5.983800 -14.504300
H -18.166300 12.316000 -9.549300
O -18.066000 9.929700 -9.468400
O -17.318200 11.967100 -9.951400
C -17.241400 10.652600 -9.981900
H -16.579700 8.289100 -11.306400
H -16.029100 10.543700 -11.604700
C -16.013500 10.175800 -10.706900
C -15.835900 8.669900 -10.813400
H -15.832200 8.279900 -9.925700
H -15.235100 10.541300 -10.257700
H -14.962600 6.465500 -12.248100
H -14.535700 8.754000 -12.400900
C -14.526500 8.335400 -11.525200
H -14.291200 6.418900 -10.832600
C -14.259200 6.849900 -11.701100
H -13.793700 8.724300 -11.022600
H -13.372500 4.680100 -13.031100
C -12.907000 6.554600 -12.352500
H -12.875000 6.985500 -13.221100
C -12.639800 5.069000 -12.528500
H -12.630600 4.650400 -11.652800
H -12.203700 6.938900 -11.805500
H -11.931200 2.863100 -13.796000
H -11.334000 5.124500 -14.127900
C -11.330300 4.734500 -13.240200
C -11.152800 3.228600 -13.346800
H -11.137200 2.860700 -12.449000
H -10.586500 5.115300 -12.747200
C -9.924800 2.751800 -14.071700
O -9.848100 1.437300 -14.102300
O -9.100200 3.474700 -14.585300
H -8.999900 1.088400 -14.504300
