15
Fragment
O -44.944000 -8.108800 -7.659400
H -44.730800 -9.091300 -10.006500
C -43.960400 -8.026000 -8.377200
O -43.947500 -8.472700 -9.621600
H -43.256400 -6.980900 -6.071700
C -42.677400 -7.407400 -7.958500
C -42.546700 -6.909400 -6.668200
H -41.676000 -7.635600 -9.696400
C -41.602800 -7.305600 -8.829600
C -41.367900 -6.308300 -6.264800
H -41.288900 -5.961500 -5.406000
C -40.432400 -6.716900 -8.414600
C -40.310900 -6.227400 -7.146900
H -39.715600 -6.652000 -9.004300
H -39.512200 -5.836700 -6.876600
15
Fragment
O -44.774400 -8.108800 -1.529400
H -44.561300 -9.091300 -3.876600
C -43.790800 -8.026000 -2.247200
O -43.778000 -8.472700 -3.491600
H -43.086900 -6.980900 0.058200
C -42.507900 -7.407400 -1.828600
C -42.377200 -6.909400 -0.538200
H -41.506500 -7.635600 -3.566400
C -41.433200 -7.305600 -2.699600
C -41.198400 -6.308300 -0.134900
H -41.119400 -5.961500 0.723900
C -40.262900 -6.716900 -2.284600
C -40.141400 -6.227400 -1.017000
H -39.546100 -6.652000 -2.874300
H -39.342700 -5.836700 -0.746600
30
Fragment
O -44.944000 -8.108800 -7.659400
H -44.730800 -9.091300 -10.006500
C -43.960400 -8.026000 -8.377200
O -43.947500 -8.472700 -9.621600
H -43.256400 -6.980900 -6.071700
C -42.677400 -7.407400 -7.958500
C -42.546700 -6.909400 -6.668200
H -41.676000 -7.635600 -9.696400
C -41.602800 -7.305600 -8.829600
C -41.367900 -6.308300 -6.264800
H -41.288900 -5.961500 -5.406000
C -40.432400 -6.716900 -8.414600
C -40.310900 -6.227400 -7.146900
H -39.715600 -6.652000 -9.004300
H -39.512200 -5.836700 -6.876600
O -44.774400 -8.108800 -1.529400
H -44.561300 -9.091300 -3.876600
C -43.790800 -8.026000 -2.247200
O -43.778000 -8.472700 -3.491600
H -43.086900 -6.980900 0.058200
C -42.507900 -7.407400 -1.828600
C -42.377200 -6.909400 -0.538200
H -41.506500 -7.635600 -3.566400
C -41.433200 -7.305600 -2.699600
C -41.198400 -6.308300 -0.134900
H -41.119400 -5.961500 0.723900
C -40.262900 -6.716900 -2.284600
C -40.141400 -6.227400 -1.017000
H -39.546100 -6.652000 -2.874300
H -39.342700 -5.836700 -0.746600
