32
Fragment
H -17.534400 5.243800 -9.549300
O -17.434100 2.857500 -9.468400
O -16.686200 4.894900 -9.951400
C -16.609500 3.580400 -9.981900
H -15.947800 1.216900 -11.306400
H -15.397100 3.471500 -11.604700
C -15.381500 3.103600 -10.706900
C -15.204000 1.597700 -10.813400
H -15.200300 1.207700 -9.925700
H -14.603100 3.469100 -10.257700
H -14.330600 -0.606700 -12.248100
H -13.903700 1.681800 -12.400900
C -13.894500 1.263200 -11.525200
H -13.659300 -0.653300 -10.832600
C -13.627300 -0.222400 -11.701100
H -13.161800 1.652100 -11.022600
H -12.740600 -2.392100 -13.031100
C -12.275100 -0.517700 -12.352500
H -12.243100 -0.086700 -13.221100
C -12.007800 -2.003200 -12.528500
H -11.998700 -2.421800 -11.652800
H -11.571800 -0.133400 -11.805500
H -11.299200 -4.209100 -13.796000
H -10.702100 -1.947800 -14.127900
C -10.698400 -2.337700 -13.240200
C -10.520800 -3.843700 -13.346800
H -10.505200 -4.211600 -12.449000
H -9.954600 -1.956900 -12.747200
C -9.292900 -4.320400 -14.071700
O -9.216200 -5.634900 -14.102300
O -8.468300 -3.597500 -14.585300
H -8.368000 -5.983800 -14.504300
17
Fragment
H -18.063300 7.277500 -6.026600
N -17.551800 6.728300 -5.632800
H -17.341400 7.226200 -4.834800
N -16.384100 6.370000 -6.356400
H -16.321700 5.447900 -6.429500
O -15.731200 8.462400 -6.833500
C -15.553100 7.256700 -6.895800
H -14.719200 4.694500 -7.427800
C -14.339600 6.679400 -7.590700
C -14.103000 5.319800 -7.734600
H -13.528600 8.478500 -7.999000
C -13.397300 7.561300 -8.077000
C -12.927200 4.916100 -8.344800
H -12.768700 4.004000 -8.434400
C -12.250800 7.067100 -8.684600
N -12.013300 5.760400 -8.809400
H -11.624700 7.669300 -9.016500
49
Fragment
H -17.534400 5.243800 -9.549300
O -17.434100 2.857500 -9.468400
O -16.686200 4.894900 -9.951400
C -16.609500 3.580400 -9.981900
H -15.947800 1.216900 -11.306400
H -15.397100 3.471500 -11.604700
C -15.381500 3.103600 -10.706900
C -15.204000 1.597700 -10.813400
H -15.200300 1.207700 -9.925700
H -14.603100 3.469100 -10.257700
H -14.330600 -0.606700 -12.248100
H -13.903700 1.681800 -12.400900
C -13.894500 1.263200 -11.525200
H -13.659300 -0.653300 -10.832600
C -13.627300 -0.222400 -11.701100
H -13.161800 1.652100 -11.022600
H -12.740600 -2.392100 -13.031100
C -12.275100 -0.517700 -12.352500
H -12.243100 -0.086700 -13.221100
C -12.007800 -2.003200 -12.528500
H -11.998700 -2.421800 -11.652800
H -11.571800 -0.133400 -11.805500
H -11.299200 -4.209100 -13.796000
H -10.702100 -1.947800 -14.127900
C -10.698400 -2.337700 -13.240200
C -10.520800 -3.843700 -13.346800
H -10.505200 -4.211600 -12.449000
H -9.954600 -1.956900 -12.747200
C -9.292900 -4.320400 -14.071700
O -9.216200 -5.634900 -14.102300
O -8.468300 -3.597500 -14.585300
H -8.368000 -5.983800 -14.504300
H -18.063300 7.277500 -6.026600
N -17.551800 6.728300 -5.632800
H -17.341400 7.226200 -4.834800
N -16.384100 6.370000 -6.356400
H -16.321700 5.447900 -6.429500
O -15.731200 8.462400 -6.833500
C -15.553100 7.256700 -6.895800
H -14.719200 4.694500 -7.427800
C -14.339600 6.679400 -7.590700
C -14.103000 5.319800 -7.734600
H -13.528600 8.478500 -7.999000
C -13.397300 7.561300 -8.077000
C -12.927200 4.916100 -8.344800
H -12.768700 4.004000 -8.434400
C -12.250800 7.067100 -8.684600
N -12.013300 5.760400 -8.809400
H -11.624700 7.669300 -9.016500
