17
Fragment
H -20.223400 -15.846400 -29.369000
C -19.311800 -15.713400 -29.498200
H -19.251200 -16.635900 -31.295100
C -18.737900 -16.188400 -30.661200
N -18.623700 -15.073700 -28.552900
H -18.239900 -16.843900 -33.079900
N -17.389200 -16.819000 -33.121000
C -17.376900 -15.985000 -30.866900
C -17.318100 -14.872700 -28.760000
N -16.875900 -17.195000 -34.387900
H -16.828600 -14.421800 -28.108900
C -16.662400 -15.305700 -29.900500
C -16.629300 -16.449800 -32.097700
H -16.415200 -16.449800 -34.784700
H -16.273100 -17.853300 -34.283200
H -15.754100 -15.141900 -30.013900
O -15.411100 -16.468200 -32.124300
17
Fragment
H -13.324500 -15.846400 -29.369000
C -12.412900 -15.713400 -29.498200
H -12.352300 -16.635900 -31.295100
C -11.839000 -16.188400 -30.661200
N -11.724800 -15.073700 -28.552900
H -11.341000 -16.843900 -33.079900
N -10.490300 -16.819000 -33.121000
C -10.478000 -15.985000 -30.866900
C -10.419200 -14.872700 -28.760000
N -9.977000 -17.195000 -34.387900
H -9.929700 -14.421800 -28.108900
C -9.763500 -15.305700 -29.900500
C -9.730400 -16.449800 -32.097700
H -9.516300 -16.449800 -34.784700
H -9.374200 -17.853300 -34.283200
H -8.855200 -15.141900 -30.013900
O -8.512200 -16.468200 -32.124300
34
Fragment
H -20.223400 -15.846400 -29.369000
C -19.311800 -15.713400 -29.498200
H -19.251200 -16.635900 -31.295100
C -18.737900 -16.188400 -30.661200
N -18.623700 -15.073700 -28.552900
H -18.239900 -16.843900 -33.079900
N -17.389200 -16.819000 -33.121000
C -17.376900 -15.985000 -30.866900
C -17.318100 -14.872700 -28.760000
N -16.875900 -17.195000 -34.387900
H -16.828600 -14.421800 -28.108900
C -16.662400 -15.305700 -29.900500
C -16.629300 -16.449800 -32.097700
H -16.415200 -16.449800 -34.784700
H -16.273100 -17.853300 -34.283200
H -15.754100 -15.141900 -30.013900
O -15.411100 -16.468200 -32.124300
H -13.324500 -15.846400 -29.369000
C -12.412900 -15.713400 -29.498200
H -12.352300 -16.635900 -31.295100
C -11.839000 -16.188400 -30.661200
N -11.724800 -15.073700 -28.552900
H -11.341000 -16.843900 -33.079900
N -10.490300 -16.819000 -33.121000
C -10.478000 -15.985000 -30.866900
C -10.419200 -14.872700 -28.760000
N -9.977000 -17.195000 -34.387900
H -9.929700 -14.421800 -28.108900
C -9.763500 -15.305700 -29.900500
C -9.730400 -16.449800 -32.097700
H -9.516300 -16.449800 -34.784700
H -9.374200 -17.853300 -34.283200
H -8.855200 -15.141900 -30.013900
O -8.512200 -16.468200 -32.124300
