17
Fragment
H -20.223400 -15.846400 -29.369000
C -19.311800 -15.713400 -29.498200
H -19.251200 -16.635900 -31.295100
C -18.737900 -16.188400 -30.661200
N -18.623700 -15.073700 -28.552900
H -18.239900 -16.843900 -33.079900
N -17.389200 -16.819000 -33.121000
C -17.376900 -15.985000 -30.866900
C -17.318100 -14.872700 -28.760000
N -16.875900 -17.195000 -34.387900
H -16.828600 -14.421800 -28.108900
C -16.662400 -15.305700 -29.900500
C -16.629300 -16.449800 -32.097700
H -16.415200 -16.449800 -34.784700
H -16.273100 -17.853300 -34.283200
H -15.754100 -15.141900 -30.013900
O -15.411100 -16.468200 -32.124300
17
Fragment
O -14.772600 -18.921500 -35.564200
H -14.738800 -19.308000 -38.088900
H -13.845800 -19.912000 -40.120300
H -13.823500 -16.864200 -33.986100
C -13.818500 -19.402400 -38.185000
H -13.703200 -18.167300 -33.330700
C -13.594000 -18.705100 -35.816900
C -13.274800 -19.778900 -39.399600
N -13.249700 -17.486000 -33.774500
C -12.971800 -19.170000 -37.113200
N -12.780900 -18.042500 -34.989300
N -11.965900 -19.957400 -39.579800
H -11.829500 -17.816900 -35.111300
C -11.607700 -19.358300 -37.293600
C -11.157500 -19.766000 -38.536300
H -11.011300 -19.213900 -36.594900
H -10.245900 -19.914500 -38.649400
34
Fragment
H -20.223400 -15.846400 -29.369000
C -19.311800 -15.713400 -29.498200
H -19.251200 -16.635900 -31.295100
C -18.737900 -16.188400 -30.661200
N -18.623700 -15.073700 -28.552900
H -18.239900 -16.843900 -33.079900
N -17.389200 -16.819000 -33.121000
C -17.376900 -15.985000 -30.866900
C -17.318100 -14.872700 -28.760000
N -16.875900 -17.195000 -34.387900
H -16.828600 -14.421800 -28.108900
C -16.662400 -15.305700 -29.900500
C -16.629300 -16.449800 -32.097700
H -16.415200 -16.449800 -34.784700
H -16.273100 -17.853300 -34.283200
H -15.754100 -15.141900 -30.013900
O -15.411100 -16.468200 -32.124300
O -14.772600 -18.921500 -35.564200
H -14.738800 -19.308000 -38.088900
H -13.845800 -19.912000 -40.120300
H -13.823500 -16.864200 -33.986100
C -13.818500 -19.402400 -38.185000
H -13.703200 -18.167300 -33.330700
C -13.594000 -18.705100 -35.816900
C -13.274800 -19.778900 -39.399600
N -13.249700 -17.486000 -33.774500
C -12.971800 -19.170000 -37.113200
N -12.780900 -18.042500 -34.989300
N -11.965900 -19.957400 -39.579800
H -11.829500 -17.816900 -35.111300
C -11.607700 -19.358300 -37.293600
C -11.157500 -19.766000 -38.536300
H -11.011300 -19.213900 -36.594900
H -10.245900 -19.914500 -38.649400
