15
Fragment
O -44.944000 -8.108800 -7.659400
H -44.730800 -9.091300 -10.006500
C -43.960400 -8.026000 -8.377200
O -43.947500 -8.472700 -9.621600
H -43.256400 -6.980900 -6.071700
C -42.677400 -7.407400 -7.958500
C -42.546700 -6.909400 -6.668200
H -41.676000 -7.635600 -9.696400
C -41.602800 -7.305600 -8.829600
C -41.367900 -6.308300 -6.264800
H -41.288900 -5.961500 -5.406000
C -40.432400 -6.716900 -8.414600
C -40.310900 -6.227400 -7.146900
H -39.715600 -6.652000 -9.004300
H -39.512200 -5.836700 -6.876600
17
Fragment
H -52.582600 -11.495300 -4.919300
N -52.064100 -12.110700 -4.456500
H -51.839700 -12.926800 -5.033900
H -50.827700 -10.943600 -3.259300
N -50.815600 -11.444300 -4.229700
O -49.950100 -12.127400 -6.204100
C -49.813800 -11.546600 -5.121000
H -48.862800 -10.495700 -2.780500
C -48.516900 -10.900000 -4.732300
C -48.235200 -10.419800 -3.461000
H -47.676300 -11.108400 -6.550500
C -47.534600 -10.777900 -5.692300
C -47.015500 -9.830800 -3.219500
H -46.837700 -9.515500 -2.362500
C -46.344200 -10.162800 -5.373500
N -46.074400 -9.691200 -4.157300
H -45.700200 -10.073000 -6.037400
32
Fragment
O -44.944000 -8.108800 -7.659400
H -44.730800 -9.091300 -10.006500
C -43.960400 -8.026000 -8.377200
O -43.947500 -8.472700 -9.621600
H -43.256400 -6.980900 -6.071700
C -42.677400 -7.407400 -7.958500
C -42.546700 -6.909400 -6.668200
H -41.676000 -7.635600 -9.696400
C -41.602800 -7.305600 -8.829600
C -41.367900 -6.308300 -6.264800
H -41.288900 -5.961500 -5.406000
C -40.432400 -6.716900 -8.414600
C -40.310900 -6.227400 -7.146900
H -39.715600 -6.652000 -9.004300
H -39.512200 -5.836700 -6.876600
H -52.582600 -11.495300 -4.919300
N -52.064100 -12.110700 -4.456500
H -51.839700 -12.926800 -5.033900
H -50.827700 -10.943600 -3.259300
N -50.815600 -11.444300 -4.229700
O -49.950100 -12.127400 -6.204100
C -49.813800 -11.546600 -5.121000
H -48.862800 -10.495700 -2.780500
C -48.516900 -10.900000 -4.732300
C -48.235200 -10.419800 -3.461000
H -47.676300 -11.108400 -6.550500
C -47.534600 -10.777900 -5.692300
C -47.015500 -9.830800 -3.219500
H -46.837700 -9.515500 -2.362500
C -46.344200 -10.162800 -5.373500
N -46.074400 -9.691200 -4.157300
H -45.700200 -10.073000 -6.037400
