15
Fragment
O -44.944000 -8.108800 -7.659400
H -44.730800 -9.091300 -10.006500
C -43.960400 -8.026000 -8.377200
O -43.947500 -8.472700 -9.621600
H -43.256400 -6.980900 -6.071700
C -42.677400 -7.407400 -7.958500
C -42.546700 -6.909400 -6.668200
H -41.676000 -7.635600 -9.696400
C -41.602800 -7.305600 -8.829600
C -41.367900 -6.308300 -6.264800
H -41.288900 -5.961500 -5.406000
C -40.432400 -6.716900 -8.414600
C -40.310900 -6.227400 -7.146900
H -39.715600 -6.652000 -9.004300
H -39.512200 -5.836700 -6.876600
17
Fragment
H -52.752100 -7.607300 -11.049200
N -52.233600 -8.222700 -10.586400
H -52.009200 -9.038800 -11.163900
H -50.997200 -7.055600 -9.389300
N -50.985100 -7.556300 -10.359600
O -50.119600 -8.239400 -12.334100
C -49.983300 -7.658600 -11.250900
H -49.032300 -6.607700 -8.910500
C -48.686400 -7.012000 -10.862300
C -48.404700 -6.531800 -9.590900
H -47.845800 -7.220400 -12.680400
C -47.704100 -6.889900 -11.822200
C -47.185000 -5.942800 -9.349400
H -47.007200 -5.627500 -8.492400
C -46.513700 -6.274800 -11.503500
N -46.243900 -5.803200 -10.287300
H -45.869700 -6.185000 -12.167400
32
Fragment
O -44.944000 -8.108800 -7.659400
H -44.730800 -9.091300 -10.006500
C -43.960400 -8.026000 -8.377200
O -43.947500 -8.472700 -9.621600
H -43.256400 -6.980900 -6.071700
C -42.677400 -7.407400 -7.958500
C -42.546700 -6.909400 -6.668200
H -41.676000 -7.635600 -9.696400
C -41.602800 -7.305600 -8.829600
C -41.367900 -6.308300 -6.264800
H -41.288900 -5.961500 -5.406000
C -40.432400 -6.716900 -8.414600
C -40.310900 -6.227400 -7.146900
H -39.715600 -6.652000 -9.004300
H -39.512200 -5.836700 -6.876600
H -52.752100 -7.607300 -11.049200
N -52.233600 -8.222700 -10.586400
H -52.009200 -9.038800 -11.163900
H -50.997200 -7.055600 -9.389300
N -50.985100 -7.556300 -10.359600
O -50.119600 -8.239400 -12.334100
C -49.983300 -7.658600 -11.250900
H -49.032300 -6.607700 -8.910500
C -48.686400 -7.012000 -10.862300
C -48.404700 -6.531800 -9.590900
H -47.845800 -7.220400 -12.680400
C -47.704100 -6.889900 -11.822200
C -47.185000 -5.942800 -9.349400
H -47.007200 -5.627500 -8.492400
C -46.513700 -6.274800 -11.503500
N -46.243900 -5.803200 -10.287300
H -45.869700 -6.185000 -12.167400
