15
Fragment
O -44.944000 -8.108800 -7.659400
H -44.730800 -9.091300 -10.006500
C -43.960400 -8.026000 -8.377200
O -43.947500 -8.472700 -9.621600
H -43.256400 -6.980900 -6.071700
C -42.677400 -7.407400 -7.958500
C -42.546700 -6.909400 -6.668200
H -41.676000 -7.635600 -9.696400
C -41.602800 -7.305600 -8.829600
C -41.367900 -6.308300 -6.264800
H -41.288900 -5.961500 -5.406000
C -40.432400 -6.716900 -8.414600
C -40.310900 -6.227400 -7.146900
H -39.715600 -6.652000 -9.004300
H -39.512200 -5.836700 -6.876600
15
Fragment
O -45.113500 -8.108800 -13.789300
H -44.900300 -9.091300 -16.136500
C -44.129900 -8.026000 -14.507200
O -44.117000 -8.472700 -15.751500
H -43.425900 -6.980900 -12.201700
C -42.846900 -7.407400 -14.088500
C -42.716200 -6.909400 -12.798100
H -41.845500 -7.635600 -15.826300
C -41.772300 -7.305600 -14.959500
C -41.537400 -6.308300 -12.394800
H -41.458400 -5.961500 -11.536000
C -40.601900 -6.716900 -14.544500
C -40.480400 -6.227400 -13.276900
H -39.885100 -6.652000 -15.134300
H -39.681700 -5.836700 -13.006500
30
Fragment
O -44.944000 -8.108800 -7.659400
H -44.730800 -9.091300 -10.006500
C -43.960400 -8.026000 -8.377200
O -43.947500 -8.472700 -9.621600
H -43.256400 -6.980900 -6.071700
C -42.677400 -7.407400 -7.958500
C -42.546700 -6.909400 -6.668200
H -41.676000 -7.635600 -9.696400
C -41.602800 -7.305600 -8.829600
C -41.367900 -6.308300 -6.264800
H -41.288900 -5.961500 -5.406000
C -40.432400 -6.716900 -8.414600
C -40.310900 -6.227400 -7.146900
H -39.715600 -6.652000 -9.004300
H -39.512200 -5.836700 -6.876600
O -45.113500 -8.108800 -13.789300
H -44.900300 -9.091300 -16.136500
C -44.129900 -8.026000 -14.507200
O -44.117000 -8.472700 -15.751500
H -43.425900 -6.980900 -12.201700
C -42.846900 -7.407400 -14.088500
C -42.716200 -6.909400 -12.798100
H -41.845500 -7.635600 -15.826300
C -41.772300 -7.305600 -14.959500
C -41.537400 -6.308300 -12.394800
H -41.458400 -5.961500 -11.536000
C -40.601900 -6.716900 -14.544500
C -40.480400 -6.227400 -13.276900
H -39.885100 -6.652000 -15.134300
H -39.681700 -5.836700 -13.006500
