17
Fragment
H -20.223400 -15.846400 -29.369000
C -19.311800 -15.713400 -29.498200
H -19.251200 -16.635900 -31.295100
C -18.737900 -16.188400 -30.661200
N -18.623700 -15.073700 -28.552900
H -18.239900 -16.843900 -33.079900
N -17.389200 -16.819000 -33.121000
C -17.376900 -15.985000 -30.866900
C -17.318100 -14.872700 -28.760000
N -16.875900 -17.195000 -34.387900
H -16.828600 -14.421800 -28.108900
C -16.662400 -15.305700 -29.900500
C -16.629300 -16.449800 -32.097700
H -16.415200 -16.449800 -34.784700
H -16.273100 -17.853300 -34.283200
H -15.754100 -15.141900 -30.013900
O -15.411100 -16.468200 -32.124300
17
Fragment
H -27.122300 -15.846400 -29.369000
C -26.210700 -15.713400 -29.498200
H -26.150100 -16.635900 -31.295100
C -25.636800 -16.188400 -30.661200
N -25.522600 -15.073700 -28.552900
H -25.138800 -16.843900 -33.079900
N -24.288100 -16.819000 -33.121000
C -24.275800 -15.985000 -30.866900
C -24.217000 -14.872700 -28.760000
N -23.774800 -17.195000 -34.387900
H -23.727500 -14.421800 -28.108900
C -23.561300 -15.305700 -29.900500
C -23.528200 -16.449800 -32.097700
H -23.314100 -16.449800 -34.784700
H -23.172000 -17.853300 -34.283200
H -22.653000 -15.141900 -30.013900
O -22.310000 -16.468200 -32.124300
34
Fragment
H -20.223400 -15.846400 -29.369000
C -19.311800 -15.713400 -29.498200
H -19.251200 -16.635900 -31.295100
C -18.737900 -16.188400 -30.661200
N -18.623700 -15.073700 -28.552900
H -18.239900 -16.843900 -33.079900
N -17.389200 -16.819000 -33.121000
C -17.376900 -15.985000 -30.866900
C -17.318100 -14.872700 -28.760000
N -16.875900 -17.195000 -34.387900
H -16.828600 -14.421800 -28.108900
C -16.662400 -15.305700 -29.900500
C -16.629300 -16.449800 -32.097700
H -16.415200 -16.449800 -34.784700
H -16.273100 -17.853300 -34.283200
H -15.754100 -15.141900 -30.013900
O -15.411100 -16.468200 -32.124300
H -27.122300 -15.846400 -29.369000
C -26.210700 -15.713400 -29.498200
H -26.150100 -16.635900 -31.295100
C -25.636800 -16.188400 -30.661200
N -25.522600 -15.073700 -28.552900
H -25.138800 -16.843900 -33.079900
N -24.288100 -16.819000 -33.121000
C -24.275800 -15.985000 -30.866900
C -24.217000 -14.872700 -28.760000
N -23.774800 -17.195000 -34.387900
H -23.727500 -14.421800 -28.108900
C -23.561300 -15.305700 -29.900500
C -23.528200 -16.449800 -32.097700
H -23.314100 -16.449800 -34.784700
H -23.172000 -17.853300 -34.283200
H -22.653000 -15.141900 -30.013900
O -22.310000 -16.468200 -32.124300
