15
Fragment
O -44.944000 -8.108800 -7.659400
H -44.730800 -9.091300 -10.006500
C -43.960400 -8.026000 -8.377200
O -43.947500 -8.472700 -9.621600
H -43.256400 -6.980900 -6.071700
C -42.677400 -7.407400 -7.958500
C -42.546700 -6.909400 -6.668200
H -41.676000 -7.635600 -9.696400
C -41.602800 -7.305600 -8.829600
C -41.367900 -6.308300 -6.264800
H -41.288900 -5.961500 -5.406000
C -40.432400 -6.716900 -8.414600
C -40.310900 -6.227400 -7.146900
H -39.715600 -6.652000 -9.004300
H -39.512200 -5.836700 -6.876600
15
Fragment
O -44.944000 -4.220800 -7.659400
H -44.730800 -5.203300 -10.006500
C -43.960400 -4.138000 -8.377200
O -43.947500 -4.584700 -9.621600
H -43.256400 -3.092900 -6.071700
C -42.677400 -3.519400 -7.958500
C -42.546700 -3.021400 -6.668200
H -41.676000 -3.747600 -9.696400
C -41.602800 -3.417600 -8.829600
C -41.367900 -2.420300 -6.264800
H -41.288900 -2.073500 -5.406000
C -40.432400 -2.828900 -8.414600
C -40.310900 -2.339400 -7.146900
H -39.715600 -2.764000 -9.004300
H -39.512200 -1.948700 -6.876600
30
Fragment
O -44.944000 -8.108800 -7.659400
H -44.730800 -9.091300 -10.006500
C -43.960400 -8.026000 -8.377200
O -43.947500 -8.472700 -9.621600
H -43.256400 -6.980900 -6.071700
C -42.677400 -7.407400 -7.958500
C -42.546700 -6.909400 -6.668200
H -41.676000 -7.635600 -9.696400
C -41.602800 -7.305600 -8.829600
C -41.367900 -6.308300 -6.264800
H -41.288900 -5.961500 -5.406000
C -40.432400 -6.716900 -8.414600
C -40.310900 -6.227400 -7.146900
H -39.715600 -6.652000 -9.004300
H -39.512200 -5.836700 -6.876600
O -44.944000 -4.220800 -7.659400
H -44.730800 -5.203300 -10.006500
C -43.960400 -4.138000 -8.377200
O -43.947500 -4.584700 -9.621600
H -43.256400 -3.092900 -6.071700
C -42.677400 -3.519400 -7.958500
C -42.546700 -3.021400 -6.668200
H -41.676000 -3.747600 -9.696400
C -41.602800 -3.417600 -8.829600
C -41.367900 -2.420300 -6.264800
H -41.288900 -2.073500 -5.406000
C -40.432400 -2.828900 -8.414600
C -40.310900 -2.339400 -7.146900
H -39.715600 -2.764000 -9.004300
H -39.512200 -1.948700 -6.876600
