32
Fragment
H -17.534400 5.243800 -9.549300
O -17.434100 2.857500 -9.468400
O -16.686200 4.894900 -9.951400
C -16.609500 3.580400 -9.981900
H -15.947800 1.216900 -11.306400
H -15.397100 3.471500 -11.604700
C -15.381500 3.103600 -10.706900
C -15.204000 1.597700 -10.813400
H -15.200300 1.207700 -9.925700
H -14.603100 3.469100 -10.257700
H -14.330600 -0.606700 -12.248100
H -13.903700 1.681800 -12.400900
C -13.894500 1.263200 -11.525200
H -13.659300 -0.653300 -10.832600
C -13.627300 -0.222400 -11.701100
H -13.161800 1.652100 -11.022600
H -12.740600 -2.392100 -13.031100
C -12.275100 -0.517700 -12.352500
H -12.243100 -0.086700 -13.221100
C -12.007800 -2.003200 -12.528500
H -11.998700 -2.421800 -11.652800
H -11.571800 -0.133400 -11.805500
H -11.299200 -4.209100 -13.796000
H -10.702100 -1.947800 -14.127900
C -10.698400 -2.337700 -13.240200
C -10.520800 -3.843700 -13.346800
H -10.505200 -4.211600 -12.449000
H -9.954600 -1.956900 -12.747200
C -9.292900 -4.320400 -14.071700
O -9.216200 -5.634900 -14.102300
O -8.468300 -3.597500 -14.585300
H -8.368000 -5.983800 -14.504300
17
Fragment
H -22.957000 2.569000 -3.010300
N -22.568400 4.477900 -3.217400
C -22.330900 3.171300 -3.342300
H -21.813000 6.234300 -3.592400
C -21.654500 5.322300 -3.682000
C -21.184400 2.677000 -3.949800
H -21.053100 1.759800 -4.027800
C -20.478700 4.918500 -4.292300
C -20.242100 3.558900 -4.436100
H -19.862500 5.543900 -4.599100
C -19.028500 2.981600 -5.131000
O -18.850500 1.775900 -5.193300
H -18.260000 4.790400 -5.597300
N -18.197500 3.868300 -5.670400
H -17.240200 3.012100 -7.192000
N -17.029900 3.510000 -6.394100
H -16.518400 2.960800 -6.000200
49
Fragment
H -17.534400 5.243800 -9.549300
O -17.434100 2.857500 -9.468400
O -16.686200 4.894900 -9.951400
C -16.609500 3.580400 -9.981900
H -15.947800 1.216900 -11.306400
H -15.397100 3.471500 -11.604700
C -15.381500 3.103600 -10.706900
C -15.204000 1.597700 -10.813400
H -15.200300 1.207700 -9.925700
H -14.603100 3.469100 -10.257700
H -14.330600 -0.606700 -12.248100
H -13.903700 1.681800 -12.400900
C -13.894500 1.263200 -11.525200
H -13.659300 -0.653300 -10.832600
C -13.627300 -0.222400 -11.701100
H -13.161800 1.652100 -11.022600
H -12.740600 -2.392100 -13.031100
C -12.275100 -0.517700 -12.352500
H -12.243100 -0.086700 -13.221100
C -12.007800 -2.003200 -12.528500
H -11.998700 -2.421800 -11.652800
H -11.571800 -0.133400 -11.805500
H -11.299200 -4.209100 -13.796000
H -10.702100 -1.947800 -14.127900
C -10.698400 -2.337700 -13.240200
C -10.520800 -3.843700 -13.346800
H -10.505200 -4.211600 -12.449000
H -9.954600 -1.956900 -12.747200
C -9.292900 -4.320400 -14.071700
O -9.216200 -5.634900 -14.102300
O -8.468300 -3.597500 -14.585300
H -8.368000 -5.983800 -14.504300
H -22.957000 2.569000 -3.010300
N -22.568400 4.477900 -3.217400
C -22.330900 3.171300 -3.342300
H -21.813000 6.234300 -3.592400
C -21.654500 5.322300 -3.682000
C -21.184400 2.677000 -3.949800
H -21.053100 1.759800 -4.027800
C -20.478700 4.918500 -4.292300
C -20.242100 3.558900 -4.436100
H -19.862500 5.543900 -4.599100
C -19.028500 2.981600 -5.131000
O -18.850500 1.775900 -5.193300
H -18.260000 4.790400 -5.597300
N -18.197500 3.868300 -5.670400
H -17.240200 3.012100 -7.192000
N -17.029900 3.510000 -6.394100
H -16.518400 2.960800 -6.000200
