17
Fragment
H -20.223400 -15.846400 -29.369000
C -19.311800 -15.713400 -29.498200
H -19.251200 -16.635900 -31.295100
C -18.737900 -16.188400 -30.661200
N -18.623700 -15.073700 -28.552900
H -18.239900 -16.843900 -33.079900
N -17.389200 -16.819000 -33.121000
C -17.376900 -15.985000 -30.866900
C -17.318100 -14.872700 -28.760000
N -16.875900 -17.195000 -34.387900
H -16.828600 -14.421800 -28.108900
C -16.662400 -15.305700 -29.900500
C -16.629300 -16.449800 -32.097700
H -16.415200 -16.449800 -34.784700
H -16.273100 -17.853300 -34.283200
H -15.754100 -15.141900 -30.013900
O -15.411100 -16.468200 -32.124300
17
Fragment
O -20.768400 -19.978800 -31.093800
H -20.425400 -21.305100 -33.204300
H -19.906400 -18.593800 -28.934900
H -19.764300 -19.997200 -28.433400
C -19.550200 -19.997300 -31.120400
C -19.517100 -21.141400 -33.317600
H -19.350800 -22.025200 -35.109200
N -19.303600 -19.252100 -28.830200
C -18.861400 -21.574400 -34.458100
C -18.802600 -20.462100 -32.351200
N -18.790300 -19.628000 -30.097100
H -17.939600 -19.603100 -30.138200
N -17.555800 -21.373400 -34.665200
C -17.441600 -20.258700 -32.556900
H -16.928200 -19.811100 -31.923000
C -16.867700 -20.733600 -33.719900
H -15.956000 -20.600600 -33.849100
34
Fragment
H -20.223400 -15.846400 -29.369000
C -19.311800 -15.713400 -29.498200
H -19.251200 -16.635900 -31.295100
C -18.737900 -16.188400 -30.661200
N -18.623700 -15.073700 -28.552900
H -18.239900 -16.843900 -33.079900
N -17.389200 -16.819000 -33.121000
C -17.376900 -15.985000 -30.866900
C -17.318100 -14.872700 -28.760000
N -16.875900 -17.195000 -34.387900
H -16.828600 -14.421800 -28.108900
C -16.662400 -15.305700 -29.900500
C -16.629300 -16.449800 -32.097700
H -16.415200 -16.449800 -34.784700
H -16.273100 -17.853300 -34.283200
H -15.754100 -15.141900 -30.013900
O -15.411100 -16.468200 -32.124300
O -20.768400 -19.978800 -31.093800
H -20.425400 -21.305100 -33.204300
H -19.906400 -18.593800 -28.934900
H -19.764300 -19.997200 -28.433400
C -19.550200 -19.997300 -31.120400
C -19.517100 -21.141400 -33.317600
H -19.350800 -22.025200 -35.109200
N -19.303600 -19.252100 -28.830200
C -18.861400 -21.574400 -34.458100
C -18.802600 -20.462100 -32.351200
N -18.790300 -19.628000 -30.097100
H -17.939600 -19.603100 -30.138200
N -17.555800 -21.373400 -34.665200
C -17.441600 -20.258700 -32.556900
H -16.928200 -19.811100 -31.923000
C -16.867700 -20.733600 -33.719900
H -15.956000 -20.600600 -33.849100
