17
Fragment
H -6.728700 -18.183000 -11.661000
N -6.186400 -17.942600 -11.017100
H -5.978600 -16.072900 -10.374300
N -5.817200 -16.582300 -11.152000
H -5.487100 -14.079200 -10.486400
H -5.417800 -18.484900 -11.123900
C -5.260000 -16.131500 -12.291200
C -5.124700 -13.780500 -11.289800
O -5.052900 -16.868000 -13.244700
H -4.958100 -11.861300 -10.754500
C -4.905500 -14.668800 -12.336800
C -4.799000 -12.449200 -11.457500
C -4.337000 -14.174200 -13.507000
N -4.262700 -11.964300 -12.587100
H -4.162300 -14.740900 -14.223600
C -4.034900 -12.825600 -13.586900
H -3.655200 -12.502500 -14.371800
19
Fragment
O -10.563300 -18.631700 -10.776300
H -9.879900 -16.142000 -10.658900
C -9.790200 -18.079700 -11.553500
C -9.500000 -16.638800 -11.461800
H -9.365300 -19.701200 -12.510000
O -9.162800 -18.725500 -12.516400
H -9.136300 -14.022600 -10.574100
C -8.861900 -15.970100 -12.422700
C -8.777300 -13.685200 -11.362200
H -8.628100 -11.773700 -10.734000
H -8.618000 -16.452200 -13.259600
C -8.550200 -14.541900 -12.445200
C -8.470200 -12.337300 -11.457000
C -8.001100 -14.005900 -13.612700
C -7.927600 -11.824300 -12.627300
H -7.844000 -14.560500 -14.342500
H -7.725700 -10.918600 -12.688400
C -7.688300 -12.657200 -13.699000
H -7.316600 -12.315600 -14.480000
36
Fragment
H -6.728700 -18.183000 -11.661000
N -6.186400 -17.942600 -11.017100
H -5.978600 -16.072900 -10.374300
N -5.817200 -16.582300 -11.152000
H -5.487100 -14.079200 -10.486400
H -5.417800 -18.484900 -11.123900
C -5.260000 -16.131500 -12.291200
C -5.124700 -13.780500 -11.289800
O -5.052900 -16.868000 -13.244700
H -4.958100 -11.861300 -10.754500
C -4.905500 -14.668800 -12.336800
C -4.799000 -12.449200 -11.457500
C -4.337000 -14.174200 -13.507000
N -4.262700 -11.964300 -12.587100
H -4.162300 -14.740900 -14.223600
C -4.034900 -12.825600 -13.586900
H -3.655200 -12.502500 -14.371800
O -10.563300 -18.631700 -10.776300
H -9.879900 -16.142000 -10.658900
C -9.790200 -18.079700 -11.553500
C -9.500000 -16.638800 -11.461800
H -9.365300 -19.701200 -12.510000
O -9.162800 -18.725500 -12.516400
H -9.136300 -14.022600 -10.574100
C -8.861900 -15.970100 -12.422700
C -8.777300 -13.685200 -11.362200
H -8.628100 -11.773700 -10.734000
H -8.618000 -16.452200 -13.259600
C -8.550200 -14.541900 -12.445200
C -8.470200 -12.337300 -11.457000
C -8.001100 -14.005900 -13.612700
C -7.927600 -11.824300 -12.627300
H -7.844000 -14.560500 -14.342500
H -7.725700 -10.918600 -12.688400
C -7.688300 -12.657200 -13.699000
H -7.316600 -12.315600 -14.480000
