17
Fragment
H -6.728700 -18.183000 -11.661000
N -6.186400 -17.942600 -11.017100
H -5.978600 -16.072900 -10.374300
N -5.817200 -16.582300 -11.152000
H -5.487100 -14.079200 -10.486400
H -5.417800 -18.484900 -11.123900
C -5.260000 -16.131500 -12.291200
C -5.124700 -13.780500 -11.289800
O -5.052900 -16.868000 -13.244700
H -4.958100 -11.861300 -10.754500
C -4.905500 -14.668800 -12.336800
C -4.799000 -12.449200 -11.457500
C -4.337000 -14.174200 -13.507000
N -4.262700 -11.964300 -12.587100
H -4.162300 -14.740900 -14.223600
C -4.034900 -12.825600 -13.586900
H -3.655200 -12.502500 -14.371800
19
Fragment
H -2.144000 -10.380800 -14.762600
C -1.772300 -10.039200 -15.543600
H -1.734900 -11.777900 -16.554200
H -1.616600 -8.136000 -14.900100
C -1.533000 -10.872100 -16.615400
C -1.459500 -8.690600 -15.629900
C -0.990300 -10.359200 -17.785600
C -0.910400 -8.154600 -16.797400
H -0.842500 -6.244200 -15.983000
H -0.832400 -10.922700 -18.508600
C -0.683200 -9.011300 -17.880400
C -0.598700 -6.726300 -16.820000
H -0.324300 -8.673900 -18.668500
O -0.297700 -3.970900 -16.726200
H -0.095300 -2.995200 -16.732600
C 0.039400 -6.057700 -17.780800
C 0.329600 -4.616800 -17.689100
H 0.419300 -6.554400 -18.583700
O 1.102700 -4.064800 -18.466300
36
Fragment
H -6.728700 -18.183000 -11.661000
N -6.186400 -17.942600 -11.017100
H -5.978600 -16.072900 -10.374300
N -5.817200 -16.582300 -11.152000
H -5.487100 -14.079200 -10.486400
H -5.417800 -18.484900 -11.123900
C -5.260000 -16.131500 -12.291200
C -5.124700 -13.780500 -11.289800
O -5.052900 -16.868000 -13.244700
H -4.958100 -11.861300 -10.754500
C -4.905500 -14.668800 -12.336800
C -4.799000 -12.449200 -11.457500
C -4.337000 -14.174200 -13.507000
N -4.262700 -11.964300 -12.587100
H -4.162300 -14.740900 -14.223600
C -4.034900 -12.825600 -13.586900
H -3.655200 -12.502500 -14.371800
H -2.144000 -10.380800 -14.762600
C -1.772300 -10.039200 -15.543600
H -1.734900 -11.777900 -16.554200
H -1.616600 -8.136000 -14.900100
C -1.533000 -10.872100 -16.615400
C -1.459500 -8.690600 -15.629900
C -0.990300 -10.359200 -17.785600
C -0.910400 -8.154600 -16.797400
H -0.842500 -6.244200 -15.983000
H -0.832400 -10.922700 -18.508600
C -0.683200 -9.011300 -17.880400
C -0.598700 -6.726300 -16.820000
H -0.324300 -8.673900 -18.668500
O -0.297700 -3.970900 -16.726200
H -0.095300 -2.995200 -16.732600
C 0.039400 -6.057700 -17.780800
C 0.329600 -4.616800 -17.689100
H 0.419300 -6.554400 -18.583700
O 1.102700 -4.064800 -18.466300
