17
Fragment
H -6.728700 -18.183000 -11.661000
N -6.186400 -17.942600 -11.017100
H -5.978600 -16.072900 -10.374300
N -5.817200 -16.582300 -11.152000
H -5.487100 -14.079200 -10.486400
H -5.417800 -18.484900 -11.123900
C -5.260000 -16.131500 -12.291200
C -5.124700 -13.780500 -11.289800
O -5.052900 -16.868000 -13.244700
H -4.958100 -11.861300 -10.754500
C -4.905500 -14.668800 -12.336800
C -4.799000 -12.449200 -11.457500
C -4.337000 -14.174200 -13.507000
N -4.262700 -11.964300 -12.587100
H -4.162300 -14.740900 -14.223600
C -4.034900 -12.825600 -13.586900
H -3.655200 -12.502500 -14.371800
19
Fragment
H -9.966000 -21.434000 -5.015100
C -9.594300 -21.092400 -5.796100
H -9.556900 -22.831100 -6.806700
H -9.438600 -19.189200 -5.152500
C -9.355000 -21.925300 -6.867800
C -9.281400 -19.743800 -5.882300
C -8.812300 -21.412400 -8.038100
C -8.732400 -19.207800 -7.049900
H -8.664500 -17.297400 -6.235500
H -8.654400 -21.975900 -8.761100
C -8.505200 -20.064500 -8.132900
C -8.420700 -17.779500 -7.072400
H -8.146300 -19.727100 -8.920900
O -8.119700 -15.024100 -6.978700
H -7.917300 -14.048400 -6.985100
C -7.782600 -17.110900 -8.033200
C -7.492400 -15.670000 -7.941600
H -7.402600 -17.607600 -8.836100
O -6.719300 -15.118000 -8.718800
36
Fragment
H -6.728700 -18.183000 -11.661000
N -6.186400 -17.942600 -11.017100
H -5.978600 -16.072900 -10.374300
N -5.817200 -16.582300 -11.152000
H -5.487100 -14.079200 -10.486400
H -5.417800 -18.484900 -11.123900
C -5.260000 -16.131500 -12.291200
C -5.124700 -13.780500 -11.289800
O -5.052900 -16.868000 -13.244700
H -4.958100 -11.861300 -10.754500
C -4.905500 -14.668800 -12.336800
C -4.799000 -12.449200 -11.457500
C -4.337000 -14.174200 -13.507000
N -4.262700 -11.964300 -12.587100
H -4.162300 -14.740900 -14.223600
C -4.034900 -12.825600 -13.586900
H -3.655200 -12.502500 -14.371800
H -9.966000 -21.434000 -5.015100
C -9.594300 -21.092400 -5.796100
H -9.556900 -22.831100 -6.806700
H -9.438600 -19.189200 -5.152500
C -9.355000 -21.925300 -6.867800
C -9.281400 -19.743800 -5.882300
C -8.812300 -21.412400 -8.038100
C -8.732400 -19.207800 -7.049900
H -8.664500 -17.297400 -6.235500
H -8.654400 -21.975900 -8.761100
C -8.505200 -20.064500 -8.132900
C -8.420700 -17.779500 -7.072400
H -8.146300 -19.727100 -8.920900
O -8.119700 -15.024100 -6.978700
H -7.917300 -14.048400 -6.985100
C -7.782600 -17.110900 -8.033200
C -7.492400 -15.670000 -7.941600
H -7.402600 -17.607600 -8.836100
O -6.719300 -15.118000 -8.718800
