23
Fragment
O -25.841800 -17.721700 -17.545300
O -25.637300 -19.146000 -15.928300
N -25.202900 -18.229000 -16.640700
H -24.134900 -19.734400 -14.538700
C -23.863300 -17.753400 -16.359800
N -23.480900 -16.741800 -17.137300
N -23.350400 -19.336500 -14.512900
C -23.088100 -18.358900 -15.334700
H -22.743000 -19.598600 -13.932700
N -22.294900 -16.185800 -17.046100
N -21.861100 -17.751900 -15.279100
C -21.473800 -16.718200 -16.097900
N -20.845900 -18.107900 -14.445300
N -20.226200 -16.369900 -15.813500
C -19.904600 -17.233100 -14.820300
C -18.612100 -17.208200 -14.157400
N -18.279800 -17.966100 -13.147900
H -17.607200 -15.703000 -15.133100
N -17.604000 -16.359400 -14.519500
N -16.999200 -17.574600 -12.855200
H -16.576600 -17.946200 -12.150200
C -16.557200 -16.585300 -13.659800
O -15.444700 -16.029800 -13.642300
23
Fragment
O -26.341000 -14.251700 -16.186300
C -25.228500 -13.696200 -16.168800
H -25.209100 -12.335300 -17.678400
N -24.786500 -12.706900 -16.973500
N -24.181700 -13.922100 -15.309200
H -24.178500 -14.578500 -14.695600
N -23.505900 -12.315300 -16.680800
C -23.173600 -13.073300 -15.671300
C -21.881200 -13.048400 -15.008400
N -21.559500 -13.911500 -14.015200
N -20.939900 -12.173600 -15.383300
C -20.311900 -13.563200 -13.730700
N -19.924600 -12.529600 -14.549500
N -19.490800 -14.095700 -12.782600
H -19.042700 -10.682800 -15.896000
C -18.697600 -11.922600 -14.493900
N -18.435300 -10.945000 -15.315700
N -18.304800 -13.539600 -12.691300
C -17.922400 -12.528100 -13.468800
H -17.650800 -10.547000 -15.290000
N -16.582800 -12.052500 -13.187900
O -16.148500 -11.135500 -13.900300
O -15.943900 -12.559800 -12.283300
46
Fragment
O -25.841800 -17.721700 -17.545300
O -25.637300 -19.146000 -15.928300
N -25.202900 -18.229000 -16.640700
H -24.134900 -19.734400 -14.538700
C -23.863300 -17.753400 -16.359800
N -23.480900 -16.741800 -17.137300
N -23.350400 -19.336500 -14.512900
C -23.088100 -18.358900 -15.334700
H -22.743000 -19.598600 -13.932700
N -22.294900 -16.185800 -17.046100
N -21.861100 -17.751900 -15.279100
C -21.473800 -16.718200 -16.097900
N -20.845900 -18.107900 -14.445300
N -20.226200 -16.369900 -15.813500
C -19.904600 -17.233100 -14.820300
C -18.612100 -17.208200 -14.157400
N -18.279800 -17.966100 -13.147900
H -17.607200 -15.703000 -15.133100
N -17.604000 -16.359400 -14.519500
N -16.999200 -17.574600 -12.855200
H -16.576600 -17.946200 -12.150200
C -16.557200 -16.585300 -13.659800
O -15.444700 -16.029800 -13.642300
O -26.341000 -14.251700 -16.186300
C -25.228500 -13.696200 -16.168800
H -25.209100 -12.335300 -17.678400
N -24.786500 -12.706900 -16.973500
N -24.181700 -13.922100 -15.309200
H -24.178500 -14.578500 -14.695600
N -23.505900 -12.315300 -16.680800
C -23.173600 -13.073300 -15.671300
C -21.881200 -13.048400 -15.008400
N -21.559500 -13.911500 -14.015200
N -20.939900 -12.173600 -15.383300
C -20.311900 -13.563200 -13.730700
N -19.924600 -12.529600 -14.549500
N -19.490800 -14.095700 -12.782600
H -19.042700 -10.682800 -15.896000
C -18.697600 -11.922600 -14.493900
N -18.435300 -10.945000 -15.315700
N -18.304800 -13.539600 -12.691300
C -17.922400 -12.528100 -13.468800
H -17.650800 -10.547000 -15.290000
N -16.582800 -12.052500 -13.187900
O -16.148500 -11.135500 -13.900300
O -15.943900 -12.559800 -12.283300
