23
Fragment
O -25.841800 -17.721700 -17.545300
O -25.637300 -19.146000 -15.928300
N -25.202900 -18.229000 -16.640700
H -24.134900 -19.734400 -14.538700
C -23.863300 -17.753400 -16.359800
N -23.480900 -16.741800 -17.137300
N -23.350400 -19.336500 -14.512900
C -23.088100 -18.358900 -15.334700
H -22.743000 -19.598600 -13.932700
N -22.294900 -16.185800 -17.046100
N -21.861100 -17.751900 -15.279100
C -21.473800 -16.718200 -16.097900
N -20.845900 -18.107900 -14.445300
N -20.226200 -16.369900 -15.813500
C -19.904600 -17.233100 -14.820300
C -18.612100 -17.208200 -14.157400
N -18.279800 -17.966100 -13.147900
H -17.607200 -15.703000 -15.133100
N -17.604000 -16.359400 -14.519500
N -16.999200 -17.574600 -12.855200
H -16.576600 -17.946200 -12.150200
C -16.557200 -16.585300 -13.659800
O -15.444700 -16.029800 -13.642300
12
Fragment
H -19.635600 -15.638000 -9.695700
H -19.434700 -17.056000 -8.981700
C -19.028000 -16.399200 -9.584900
H -18.864200 -16.815200 -10.457400
H -17.812400 -17.092100 -7.451000
N -17.773000 -15.939300 -9.025000
H -17.580800 -14.245500 -10.065900
C -17.288900 -16.439500 -7.900600
C -17.009400 -14.999800 -9.812600
H -16.677700 -15.444600 -10.620300
H -16.250700 -14.672700 -9.285100
O -16.209200 -16.123700 -7.386600
35
Fragment
O -25.841800 -17.721700 -17.545300
O -25.637300 -19.146000 -15.928300
N -25.202900 -18.229000 -16.640700
H -24.134900 -19.734400 -14.538700
C -23.863300 -17.753400 -16.359800
N -23.480900 -16.741800 -17.137300
N -23.350400 -19.336500 -14.512900
C -23.088100 -18.358900 -15.334700
H -22.743000 -19.598600 -13.932700
N -22.294900 -16.185800 -17.046100
N -21.861100 -17.751900 -15.279100
C -21.473800 -16.718200 -16.097900
N -20.845900 -18.107900 -14.445300
N -20.226200 -16.369900 -15.813500
C -19.904600 -17.233100 -14.820300
C -18.612100 -17.208200 -14.157400
N -18.279800 -17.966100 -13.147900
H -17.607200 -15.703000 -15.133100
N -17.604000 -16.359400 -14.519500
N -16.999200 -17.574600 -12.855200
H -16.576600 -17.946200 -12.150200
C -16.557200 -16.585300 -13.659800
O -15.444700 -16.029800 -13.642300
H -19.635600 -15.638000 -9.695700
H -19.434700 -17.056000 -8.981700
C -19.028000 -16.399200 -9.584900
H -18.864200 -16.815200 -10.457400
H -17.812400 -17.092100 -7.451000
N -17.773000 -15.939300 -9.025000
H -17.580800 -14.245500 -10.065900
C -17.288900 -16.439500 -7.900600
C -17.009400 -14.999800 -9.812600
H -16.677700 -15.444600 -10.620300
H -16.250700 -14.672700 -9.285100
O -16.209200 -16.123700 -7.386600
