34
Fragment
Cl -19.905600 -17.050800 -18.827500
O -19.655700 -17.717900 -15.927200
N -18.511300 -17.305200 -15.838100
C -18.288800 -17.036600 -18.343700
O -18.034100 -16.719500 -21.186700
O -17.942800 -17.143500 -14.785800
C -17.787200 -17.109700 -17.058700
C -17.122500 -16.951000 -19.109700
N -16.999800 -16.818300 -20.545000
N -16.420300 -17.045500 -17.121100
H -16.257800 -16.302100 -13.618300
N -16.012200 -16.967700 -18.385300
O -15.877200 -16.823400 -21.028100
H -15.618700 -17.858300 -15.447400
H -15.508400 -14.888900 -13.590400
C -15.422700 -15.834500 -13.871600
C -15.391700 -17.120400 -16.067300
N -15.268000 -15.888700 -15.309400
H -14.518700 -17.331900 -16.483200
N -14.482300 -14.897000 -15.889400
N -14.290700 -16.449300 -13.155000
N -14.285400 -17.780000 -13.080800
O -14.256700 -15.012500 -17.074600
O -14.106800 -13.986700 -15.162700
O -13.914400 -13.756200 -12.404200
O -13.780300 -20.278900 -12.350100
C -13.185700 -15.920300 -12.571500
C -13.162100 -18.082000 -12.440800
N -12.948400 -14.505200 -12.457500
N -12.874500 -19.478400 -12.194500
C -12.408100 -16.956600 -12.091800
O -11.780500 -14.153500 -12.393000
O -11.734900 -19.758600 -11.846300
Cl -10.934500 -16.857700 -11.260300
34
Fragment
Cl -21.485500 -13.486700 -12.770700
O -21.235600 -12.819600 -9.870300
N -20.091200 -13.232300 -9.781200
C -19.868800 -13.500900 -12.286900
O -19.614000 -13.818000 -15.129800
O -19.522800 -13.394000 -8.728900
C -19.367200 -13.427800 -11.001800
C -18.702400 -13.586500 -13.052800
N -18.579800 -13.719200 -14.488200
N -18.000200 -13.492000 -11.064200
H -17.837700 -14.235400 -7.561400
N -17.592100 -13.569800 -12.328400
O -17.457200 -13.714100 -14.971300
H -17.198700 -12.679200 -9.390600
H -17.088300 -15.648600 -7.533500
C -17.002700 -14.703000 -7.814700
C -16.971600 -13.417100 -10.010400
N -16.847900 -14.648800 -9.252500
H -16.098700 -13.205600 -10.426300
N -16.062300 -15.640500 -9.832500
N -15.870700 -14.088200 -7.098200
N -15.865400 -12.757500 -7.023900
O -15.836600 -15.525000 -11.017700
O -15.686700 -16.550800 -9.105800
O -15.494300 -16.781300 -6.347400
O -15.360200 -10.258600 -6.293200
C -14.765600 -14.617200 -6.514700
C -14.742000 -12.455500 -6.383900
N -14.528400 -16.032300 -6.400700
N -14.454400 -11.059100 -6.137700
C -13.988000 -13.580900 -6.034900
O -13.360400 -16.384000 -6.336100
O -13.314800 -10.778900 -5.789400
Cl -12.514500 -13.679800 -5.203500
68
Fragment
Cl -19.905600 -17.050800 -18.827500
O -19.655700 -17.717900 -15.927200
N -18.511300 -17.305200 -15.838100
C -18.288800 -17.036600 -18.343700
O -18.034100 -16.719500 -21.186700
O -17.942800 -17.143500 -14.785800
C -17.787200 -17.109700 -17.058700
C -17.122500 -16.951000 -19.109700
N -16.999800 -16.818300 -20.545000
N -16.420300 -17.045500 -17.121100
H -16.257800 -16.302100 -13.618300
N -16.012200 -16.967700 -18.385300
O -15.877200 -16.823400 -21.028100
H -15.618700 -17.858300 -15.447400
H -15.508400 -14.888900 -13.590400
C -15.422700 -15.834500 -13.871600
C -15.391700 -17.120400 -16.067300
N -15.268000 -15.888700 -15.309400
H -14.518700 -17.331900 -16.483200
N -14.482300 -14.897000 -15.889400
N -14.290700 -16.449300 -13.155000
N -14.285400 -17.780000 -13.080800
O -14.256700 -15.012500 -17.074600
O -14.106800 -13.986700 -15.162700
O -13.914400 -13.756200 -12.404200
O -13.780300 -20.278900 -12.350100
C -13.185700 -15.920300 -12.571500
C -13.162100 -18.082000 -12.440800
N -12.948400 -14.505200 -12.457500
N -12.874500 -19.478400 -12.194500
C -12.408100 -16.956600 -12.091800
O -11.780500 -14.153500 -12.393000
O -11.734900 -19.758600 -11.846300
Cl -10.934500 -16.857700 -11.260300
Cl -21.485500 -13.486700 -12.770700
O -21.235600 -12.819600 -9.870300
N -20.091200 -13.232300 -9.781200
C -19.868800 -13.500900 -12.286900
O -19.614000 -13.818000 -15.129800
O -19.522800 -13.394000 -8.728900
C -19.367200 -13.427800 -11.001800
C -18.702400 -13.586500 -13.052800
N -18.579800 -13.719200 -14.488200
N -18.000200 -13.492000 -11.064200
H -17.837700 -14.235400 -7.561400
N -17.592100 -13.569800 -12.328400
O -17.457200 -13.714100 -14.971300
H -17.198700 -12.679200 -9.390600
H -17.088300 -15.648600 -7.533500
C -17.002700 -14.703000 -7.814700
C -16.971600 -13.417100 -10.010400
N -16.847900 -14.648800 -9.252500
H -16.098700 -13.205600 -10.426300
N -16.062300 -15.640500 -9.832500
N -15.870700 -14.088200 -7.098200
N -15.865400 -12.757500 -7.023900
O -15.836600 -15.525000 -11.017700
O -15.686700 -16.550800 -9.105800
O -15.494300 -16.781300 -6.347400
O -15.360200 -10.258600 -6.293200
C -14.765600 -14.617200 -6.514700
C -14.742000 -12.455500 -6.383900
N -14.528400 -16.032300 -6.400700
N -14.454400 -11.059100 -6.137700
C -13.988000 -13.580900 -6.034900
O -13.360400 -16.384000 -6.336100
O -13.314800 -10.778900 -5.789400
Cl -12.514500 -13.679800 -5.203500
