34
Fragment
Cl -19.905600 -17.050800 -18.827500
O -19.655700 -17.717900 -15.927200
N -18.511300 -17.305200 -15.838100
C -18.288800 -17.036600 -18.343700
O -18.034100 -16.719500 -21.186700
O -17.942800 -17.143500 -14.785800
C -17.787200 -17.109700 -17.058700
C -17.122500 -16.951000 -19.109700
N -16.999800 -16.818300 -20.545000
N -16.420300 -17.045500 -17.121100
H -16.257800 -16.302100 -13.618300
N -16.012200 -16.967700 -18.385300
O -15.877200 -16.823400 -21.028100
H -15.618700 -17.858300 -15.447400
H -15.508400 -14.888900 -13.590400
C -15.422700 -15.834500 -13.871600
C -15.391700 -17.120400 -16.067300
N -15.268000 -15.888700 -15.309400
H -14.518700 -17.331900 -16.483200
N -14.482300 -14.897000 -15.889400
N -14.290700 -16.449300 -13.155000
N -14.285400 -17.780000 -13.080800
O -14.256700 -15.012500 -17.074600
O -14.106800 -13.986700 -15.162700
O -13.914400 -13.756200 -12.404200
O -13.780300 -20.278900 -12.350100
C -13.185700 -15.920300 -12.571500
C -13.162100 -18.082000 -12.440800
N -12.948400 -14.505200 -12.457500
N -12.874500 -19.478400 -12.194500
C -12.408100 -16.956600 -12.091800
O -11.780500 -14.153500 -12.393000
O -11.734900 -19.758600 -11.846300
Cl -10.934500 -16.857700 -11.260300
6
Fragment
N -13.692000 -13.935400 -9.373600
C -12.576500 -13.954700 -9.166000
C -11.144600 -13.949500 -8.901200
H -10.909100 -13.143300 -8.396000
H -10.906200 -14.743500 -8.377900
H -10.654800 -13.958100 -9.750400
40
Fragment
Cl -19.905600 -17.050800 -18.827500
O -19.655700 -17.717900 -15.927200
N -18.511300 -17.305200 -15.838100
C -18.288800 -17.036600 -18.343700
O -18.034100 -16.719500 -21.186700
O -17.942800 -17.143500 -14.785800
C -17.787200 -17.109700 -17.058700
C -17.122500 -16.951000 -19.109700
N -16.999800 -16.818300 -20.545000
N -16.420300 -17.045500 -17.121100
H -16.257800 -16.302100 -13.618300
N -16.012200 -16.967700 -18.385300
O -15.877200 -16.823400 -21.028100
H -15.618700 -17.858300 -15.447400
H -15.508400 -14.888900 -13.590400
C -15.422700 -15.834500 -13.871600
C -15.391700 -17.120400 -16.067300
N -15.268000 -15.888700 -15.309400
H -14.518700 -17.331900 -16.483200
N -14.482300 -14.897000 -15.889400
N -14.290700 -16.449300 -13.155000
N -14.285400 -17.780000 -13.080800
O -14.256700 -15.012500 -17.074600
O -14.106800 -13.986700 -15.162700
O -13.914400 -13.756200 -12.404200
O -13.780300 -20.278900 -12.350100
C -13.185700 -15.920300 -12.571500
C -13.162100 -18.082000 -12.440800
N -12.948400 -14.505200 -12.457500
N -12.874500 -19.478400 -12.194500
C -12.408100 -16.956600 -12.091800
O -11.780500 -14.153500 -12.393000
O -11.734900 -19.758600 -11.846300
Cl -10.934500 -16.857700 -11.260300
N -13.692000 -13.935400 -9.373600
C -12.576500 -13.954700 -9.166000
C -11.144600 -13.949500 -8.901200
H -10.909100 -13.143300 -8.396000
H -10.906200 -14.743500 -8.377900
H -10.654800 -13.958100 -9.750400
