34
Fragment
Cl -19.905600 -17.050800 -18.827500
O -19.655700 -17.717900 -15.927200
N -18.511300 -17.305200 -15.838100
C -18.288800 -17.036600 -18.343700
O -18.034100 -16.719500 -21.186700
O -17.942800 -17.143500 -14.785800
C -17.787200 -17.109700 -17.058700
C -17.122500 -16.951000 -19.109700
N -16.999800 -16.818300 -20.545000
N -16.420300 -17.045500 -17.121100
H -16.257800 -16.302100 -13.618300
N -16.012200 -16.967700 -18.385300
O -15.877200 -16.823400 -21.028100
H -15.618700 -17.858300 -15.447400
H -15.508400 -14.888900 -13.590400
C -15.422700 -15.834500 -13.871600
C -15.391700 -17.120400 -16.067300
N -15.268000 -15.888700 -15.309400
H -14.518700 -17.331900 -16.483200
N -14.482300 -14.897000 -15.889400
N -14.290700 -16.449300 -13.155000
N -14.285400 -17.780000 -13.080800
O -14.256700 -15.012500 -17.074600
O -14.106800 -13.986700 -15.162700
O -13.914400 -13.756200 -12.404200
O -13.780300 -20.278900 -12.350100
C -13.185700 -15.920300 -12.571500
C -13.162100 -18.082000 -12.440800
N -12.948400 -14.505200 -12.457500
N -12.874500 -19.478400 -12.194500
C -12.408100 -16.956600 -12.091800
O -11.780500 -14.153500 -12.393000
O -11.734900 -19.758600 -11.846300
Cl -10.934500 -16.857700 -11.260300
34
Fragment
Cl -10.219300 -17.050800 -6.713800
O -9.969400 -17.717900 -3.813400
N -8.825000 -17.305200 -3.724400
C -8.602500 -17.036600 -6.230000
O -8.347800 -16.719500 -9.073000
O -8.256500 -17.143500 -2.672100
C -8.100900 -17.109700 -4.945000
C -7.436200 -16.951000 -6.995900
N -7.313500 -16.818300 -8.431300
N -6.734000 -17.045500 -5.007300
H -6.571500 -16.302100 -1.504500
N -6.325900 -16.967700 -6.271500
O -6.190900 -16.823400 -8.914400
H -5.932500 -17.858300 -3.333700
H -5.822100 -14.888900 -1.476700
C -5.736400 -15.834500 -1.757800
C -5.705400 -17.120400 -3.953600
N -5.581700 -15.888700 -3.195600
H -4.832400 -17.331900 -4.369400
N -4.796000 -14.897000 -3.775600
N -4.604400 -16.449300 -1.041300
N -4.599100 -17.780000 -0.967000
O -4.570400 -15.012500 -4.960800
O -4.420500 -13.986700 -3.048900
O -4.228100 -13.756200 -0.290500
O -4.094000 -20.278900 -0.236300
C -3.499400 -15.920300 -0.457800
C -3.475800 -18.082000 -0.327100
N -3.262200 -14.505200 -0.343800
N -3.188200 -19.478400 -0.080800
C -2.721800 -16.956600 0.021900
O -2.094200 -14.153500 -0.279200
O -2.048600 -19.758600 0.267500
Cl -1.248300 -16.857700 0.853400
68
Fragment
Cl -19.905600 -17.050800 -18.827500
O -19.655700 -17.717900 -15.927200
N -18.511300 -17.305200 -15.838100
C -18.288800 -17.036600 -18.343700
O -18.034100 -16.719500 -21.186700
O -17.942800 -17.143500 -14.785800
C -17.787200 -17.109700 -17.058700
C -17.122500 -16.951000 -19.109700
N -16.999800 -16.818300 -20.545000
N -16.420300 -17.045500 -17.121100
H -16.257800 -16.302100 -13.618300
N -16.012200 -16.967700 -18.385300
O -15.877200 -16.823400 -21.028100
H -15.618700 -17.858300 -15.447400
H -15.508400 -14.888900 -13.590400
C -15.422700 -15.834500 -13.871600
C -15.391700 -17.120400 -16.067300
N -15.268000 -15.888700 -15.309400
H -14.518700 -17.331900 -16.483200
N -14.482300 -14.897000 -15.889400
N -14.290700 -16.449300 -13.155000
N -14.285400 -17.780000 -13.080800
O -14.256700 -15.012500 -17.074600
O -14.106800 -13.986700 -15.162700
O -13.914400 -13.756200 -12.404200
O -13.780300 -20.278900 -12.350100
C -13.185700 -15.920300 -12.571500
C -13.162100 -18.082000 -12.440800
N -12.948400 -14.505200 -12.457500
N -12.874500 -19.478400 -12.194500
C -12.408100 -16.956600 -12.091800
O -11.780500 -14.153500 -12.393000
O -11.734900 -19.758600 -11.846300
Cl -10.934500 -16.857700 -11.260300
Cl -10.219300 -17.050800 -6.713800
O -9.969400 -17.717900 -3.813400
N -8.825000 -17.305200 -3.724400
C -8.602500 -17.036600 -6.230000
O -8.347800 -16.719500 -9.073000
O -8.256500 -17.143500 -2.672100
C -8.100900 -17.109700 -4.945000
C -7.436200 -16.951000 -6.995900
N -7.313500 -16.818300 -8.431300
N -6.734000 -17.045500 -5.007300
H -6.571500 -16.302100 -1.504500
N -6.325900 -16.967700 -6.271500
O -6.190900 -16.823400 -8.914400
H -5.932500 -17.858300 -3.333700
H -5.822100 -14.888900 -1.476700
C -5.736400 -15.834500 -1.757800
C -5.705400 -17.120400 -3.953600
N -5.581700 -15.888700 -3.195600
H -4.832400 -17.331900 -4.369400
N -4.796000 -14.897000 -3.775600
N -4.604400 -16.449300 -1.041300
N -4.599100 -17.780000 -0.967000
O -4.570400 -15.012500 -4.960800
O -4.420500 -13.986700 -3.048900
O -4.228100 -13.756200 -0.290500
O -4.094000 -20.278900 -0.236300
C -3.499400 -15.920300 -0.457800
C -3.475800 -18.082000 -0.327100
N -3.262200 -14.505200 -0.343800
N -3.188200 -19.478400 -0.080800
C -2.721800 -16.956600 0.021900
O -2.094200 -14.153500 -0.279200
O -2.048600 -19.758600 0.267500
Cl -1.248300 -16.857700 0.853400
