34
Fragment
Cl -19.905600 -17.050800 -18.827500
O -19.655700 -17.717900 -15.927200
N -18.511300 -17.305200 -15.838100
C -18.288800 -17.036600 -18.343700
O -18.034100 -16.719500 -21.186700
O -17.942800 -17.143500 -14.785800
C -17.787200 -17.109700 -17.058700
C -17.122500 -16.951000 -19.109700
N -16.999800 -16.818300 -20.545000
N -16.420300 -17.045500 -17.121100
H -16.257800 -16.302100 -13.618300
N -16.012200 -16.967700 -18.385300
O -15.877200 -16.823400 -21.028100
H -15.618700 -17.858300 -15.447400
H -15.508400 -14.888900 -13.590400
C -15.422700 -15.834500 -13.871600
C -15.391700 -17.120400 -16.067300
N -15.268000 -15.888700 -15.309400
H -14.518700 -17.331900 -16.483200
N -14.482300 -14.897000 -15.889400
N -14.290700 -16.449300 -13.155000
N -14.285400 -17.780000 -13.080800
O -14.256700 -15.012500 -17.074600
O -14.106800 -13.986700 -15.162700
O -13.914400 -13.756200 -12.404200
O -13.780300 -20.278900 -12.350100
C -13.185700 -15.920300 -12.571500
C -13.162100 -18.082000 -12.440800
N -12.948400 -14.505200 -12.457500
N -12.874500 -19.478400 -12.194500
C -12.408100 -16.956600 -12.091800
O -11.780500 -14.153500 -12.393000
O -11.734900 -19.758600 -11.846300
Cl -10.934500 -16.857700 -11.260300
34
Fragment
Cl -29.591900 -17.050800 -30.941300
O -29.341900 -17.717900 -28.040900
N -28.197600 -17.305200 -27.951900
C -27.975100 -17.036600 -30.457500
O -27.720400 -16.719500 -33.300400
O -27.629100 -17.143500 -26.899500
C -27.473500 -17.109700 -29.172400
C -26.808800 -16.951000 -31.223400
N -26.686100 -16.818300 -32.658800
N -26.106600 -17.045500 -29.234800
H -25.944000 -16.302100 -25.732000
N -25.698400 -16.967700 -30.499000
O -25.563500 -16.823400 -33.141900
H -25.305000 -17.858300 -27.561200
H -25.194700 -14.888900 -25.704200
C -25.109000 -15.834500 -25.985300
C -25.078000 -17.120400 -28.181100
N -24.954300 -15.888700 -27.423100
H -24.205000 -17.331900 -28.596900
N -24.168600 -14.897000 -28.003100
N -23.977000 -16.449300 -25.268800
N -23.971700 -17.780000 -25.194500
O -23.943000 -15.012500 -29.188300
O -23.793100 -13.986700 -27.276400
O -23.600700 -13.756200 -24.518000
O -23.466500 -20.278900 -24.463800
C -22.871900 -15.920300 -24.685300
C -22.848400 -18.082000 -24.554600
N -22.634700 -14.505200 -24.571300
N -22.560700 -19.478400 -24.308300
C -22.094400 -16.956600 -24.205600
O -21.466800 -14.153500 -24.506700
O -21.421200 -19.758600 -23.960000
Cl -20.620800 -16.857700 -23.374100
68
Fragment
Cl -19.905600 -17.050800 -18.827500
O -19.655700 -17.717900 -15.927200
N -18.511300 -17.305200 -15.838100
C -18.288800 -17.036600 -18.343700
O -18.034100 -16.719500 -21.186700
O -17.942800 -17.143500 -14.785800
C -17.787200 -17.109700 -17.058700
C -17.122500 -16.951000 -19.109700
N -16.999800 -16.818300 -20.545000
N -16.420300 -17.045500 -17.121100
H -16.257800 -16.302100 -13.618300
N -16.012200 -16.967700 -18.385300
O -15.877200 -16.823400 -21.028100
H -15.618700 -17.858300 -15.447400
H -15.508400 -14.888900 -13.590400
C -15.422700 -15.834500 -13.871600
C -15.391700 -17.120400 -16.067300
N -15.268000 -15.888700 -15.309400
H -14.518700 -17.331900 -16.483200
N -14.482300 -14.897000 -15.889400
N -14.290700 -16.449300 -13.155000
N -14.285400 -17.780000 -13.080800
O -14.256700 -15.012500 -17.074600
O -14.106800 -13.986700 -15.162700
O -13.914400 -13.756200 -12.404200
O -13.780300 -20.278900 -12.350100
C -13.185700 -15.920300 -12.571500
C -13.162100 -18.082000 -12.440800
N -12.948400 -14.505200 -12.457500
N -12.874500 -19.478400 -12.194500
C -12.408100 -16.956600 -12.091800
O -11.780500 -14.153500 -12.393000
O -11.734900 -19.758600 -11.846300
Cl -10.934500 -16.857700 -11.260300
Cl -29.591900 -17.050800 -30.941300
O -29.341900 -17.717900 -28.040900
N -28.197600 -17.305200 -27.951900
C -27.975100 -17.036600 -30.457500
O -27.720400 -16.719500 -33.300400
O -27.629100 -17.143500 -26.899500
C -27.473500 -17.109700 -29.172400
C -26.808800 -16.951000 -31.223400
N -26.686100 -16.818300 -32.658800
N -26.106600 -17.045500 -29.234800
H -25.944000 -16.302100 -25.732000
N -25.698400 -16.967700 -30.499000
O -25.563500 -16.823400 -33.141900
H -25.305000 -17.858300 -27.561200
H -25.194700 -14.888900 -25.704200
C -25.109000 -15.834500 -25.985300
C -25.078000 -17.120400 -28.181100
N -24.954300 -15.888700 -27.423100
H -24.205000 -17.331900 -28.596900
N -24.168600 -14.897000 -28.003100
N -23.977000 -16.449300 -25.268800
N -23.971700 -17.780000 -25.194500
O -23.943000 -15.012500 -29.188300
O -23.793100 -13.986700 -27.276400
O -23.600700 -13.756200 -24.518000
O -23.466500 -20.278900 -24.463800
C -22.871900 -15.920300 -24.685300
C -22.848400 -18.082000 -24.554600
N -22.634700 -14.505200 -24.571300
N -22.560700 -19.478400 -24.308300
C -22.094400 -16.956600 -24.205600
O -21.466800 -14.153500 -24.506700
O -21.421200 -19.758600 -23.960000
Cl -20.620800 -16.857700 -23.374100
