15
Fragment
H -28.743400 -7.181700 -27.293200
H -28.392300 -7.444700 -24.969900
N -28.133100 -6.552200 -27.401100
H -27.807000 -6.346000 -28.207800
C -27.574600 -6.892400 -25.098000
C -27.310400 -6.324000 -26.343700
O -26.738600 -7.128300 -22.886400
C -26.691700 -6.647600 -24.051600
N -26.272000 -5.489600 -26.588900
N -25.645000 -5.788600 -24.342500
C -25.462700 -5.239300 -25.568100
H -25.014600 -5.595200 -23.652800
N -24.419300 -4.422700 -25.720000
H -24.312300 -4.017200 -26.524800
H -23.927800 -4.263200 -25.024800
15
Fragment
H -34.595700 -2.142200 -25.024800
H -34.211200 -1.896200 -26.524800
N -34.104200 -2.301700 -25.720000
H -33.508900 -3.474200 -23.652800
C -33.060800 -3.118300 -25.568100
N -32.878500 -3.667600 -24.342500
N -32.251500 -3.368600 -26.588900
C -31.831800 -4.526600 -24.051600
O -31.784900 -5.007300 -22.886400
C -31.213100 -4.203000 -26.343700
C -30.948900 -4.771400 -25.098000
H -30.716500 -4.225000 -28.207800
N -30.390400 -4.431200 -27.401100
H -30.131200 -5.323700 -24.969900
H -29.780100 -5.060700 -27.293200
30
Fragment
H -28.743400 -7.181700 -27.293200
H -28.392300 -7.444700 -24.969900
N -28.133100 -6.552200 -27.401100
H -27.807000 -6.346000 -28.207800
C -27.574600 -6.892400 -25.098000
C -27.310400 -6.324000 -26.343700
O -26.738600 -7.128300 -22.886400
C -26.691700 -6.647600 -24.051600
N -26.272000 -5.489600 -26.588900
N -25.645000 -5.788600 -24.342500
C -25.462700 -5.239300 -25.568100
H -25.014600 -5.595200 -23.652800
N -24.419300 -4.422700 -25.720000
H -24.312300 -4.017200 -26.524800
H -23.927800 -4.263200 -25.024800
H -34.595700 -2.142200 -25.024800
H -34.211200 -1.896200 -26.524800
N -34.104200 -2.301700 -25.720000
H -33.508900 -3.474200 -23.652800
C -33.060800 -3.118300 -25.568100
N -32.878500 -3.667600 -24.342500
N -32.251500 -3.368600 -26.588900
C -31.831800 -4.526600 -24.051600
O -31.784900 -5.007300 -22.886400
C -31.213100 -4.203000 -26.343700
C -30.948900 -4.771400 -25.098000
H -30.716500 -4.225000 -28.207800
N -30.390400 -4.431200 -27.401100
H -30.131200 -5.323700 -24.969900
H -29.780100 -5.060700 -27.293200
