15
Fragment
H -28.743400 -7.181700 -27.293200
H -28.392300 -7.444700 -24.969900
N -28.133100 -6.552200 -27.401100
H -27.807000 -6.346000 -28.207800
C -27.574600 -6.892400 -25.098000
C -27.310400 -6.324000 -26.343700
O -26.738600 -7.128300 -22.886400
C -26.691700 -6.647600 -24.051600
N -26.272000 -5.489600 -26.588900
N -25.645000 -5.788600 -24.342500
C -25.462700 -5.239300 -25.568100
H -25.014600 -5.595200 -23.652800
N -24.419300 -4.422700 -25.720000
H -24.312300 -4.017200 -26.524800
H -23.927800 -4.263200 -25.024800
15
Fragment
H -26.235200 -6.384200 -20.707700
H -25.850700 -6.138200 -19.207600
N -25.743700 -6.543700 -20.012500
H -25.148400 -7.716200 -22.079700
C -24.700300 -7.360300 -20.164400
N -24.518000 -7.909600 -21.390000
N -23.891000 -7.610600 -19.143600
C -23.471300 -8.768600 -21.680900
O -23.424400 -9.249300 -22.846100
C -22.852600 -8.445000 -19.388800
C -22.588400 -9.013400 -20.634500
H -22.356000 -8.467000 -17.524700
N -22.029900 -8.673200 -18.331400
H -21.770700 -9.565700 -20.762600
H -21.419600 -9.302700 -18.439300
30
Fragment
H -28.743400 -7.181700 -27.293200
H -28.392300 -7.444700 -24.969900
N -28.133100 -6.552200 -27.401100
H -27.807000 -6.346000 -28.207800
C -27.574600 -6.892400 -25.098000
C -27.310400 -6.324000 -26.343700
O -26.738600 -7.128300 -22.886400
C -26.691700 -6.647600 -24.051600
N -26.272000 -5.489600 -26.588900
N -25.645000 -5.788600 -24.342500
C -25.462700 -5.239300 -25.568100
H -25.014600 -5.595200 -23.652800
N -24.419300 -4.422700 -25.720000
H -24.312300 -4.017200 -26.524800
H -23.927800 -4.263200 -25.024800
H -26.235200 -6.384200 -20.707700
H -25.850700 -6.138200 -19.207600
N -25.743700 -6.543700 -20.012500
H -25.148400 -7.716200 -22.079700
C -24.700300 -7.360300 -20.164400
N -24.518000 -7.909600 -21.390000
N -23.891000 -7.610600 -19.143600
C -23.471300 -8.768600 -21.680900
O -23.424400 -9.249300 -22.846100
C -22.852600 -8.445000 -19.388800
C -22.588400 -9.013400 -20.634500
H -22.356000 -8.467000 -17.524700
N -22.029900 -8.673200 -18.331400
H -21.770700 -9.565700 -20.762600
H -21.419600 -9.302700 -18.439300
