15
Fragment
H -28.743400 -7.181700 -27.293200
H -28.392300 -7.444700 -24.969900
N -28.133100 -6.552200 -27.401100
H -27.807000 -6.346000 -28.207800
C -27.574600 -6.892400 -25.098000
C -27.310400 -6.324000 -26.343700
O -26.738600 -7.128300 -22.886400
C -26.691700 -6.647600 -24.051600
N -26.272000 -5.489600 -26.588900
N -25.645000 -5.788600 -24.342500
C -25.462700 -5.239300 -25.568100
H -25.014600 -5.595200 -23.652800
N -24.419300 -4.422700 -25.720000
H -24.312300 -4.017200 -26.524800
H -23.927800 -4.263200 -25.024800
15
Fragment
H -28.743400 -11.423700 -27.293200
H -28.392300 -11.686700 -24.969900
N -28.133100 -10.794200 -27.401100
H -27.807000 -10.588000 -28.207800
C -27.574600 -11.134400 -25.098000
C -27.310400 -10.566000 -26.343700
O -26.738600 -11.370300 -22.886400
C -26.691700 -10.889600 -24.051600
N -26.272000 -9.731600 -26.588900
N -25.645000 -10.030600 -24.342500
C -25.462700 -9.481300 -25.568100
H -25.014600 -9.837200 -23.652800
N -24.419300 -8.664700 -25.720000
H -24.312300 -8.259200 -26.524800
H -23.927800 -8.505200 -25.024800
30
Fragment
H -28.743400 -7.181700 -27.293200
H -28.392300 -7.444700 -24.969900
N -28.133100 -6.552200 -27.401100
H -27.807000 -6.346000 -28.207800
C -27.574600 -6.892400 -25.098000
C -27.310400 -6.324000 -26.343700
O -26.738600 -7.128300 -22.886400
C -26.691700 -6.647600 -24.051600
N -26.272000 -5.489600 -26.588900
N -25.645000 -5.788600 -24.342500
C -25.462700 -5.239300 -25.568100
H -25.014600 -5.595200 -23.652800
N -24.419300 -4.422700 -25.720000
H -24.312300 -4.017200 -26.524800
H -23.927800 -4.263200 -25.024800
H -28.743400 -11.423700 -27.293200
H -28.392300 -11.686700 -24.969900
N -28.133100 -10.794200 -27.401100
H -27.807000 -10.588000 -28.207800
C -27.574600 -11.134400 -25.098000
C -27.310400 -10.566000 -26.343700
O -26.738600 -11.370300 -22.886400
C -26.691700 -10.889600 -24.051600
N -26.272000 -9.731600 -26.588900
N -25.645000 -10.030600 -24.342500
C -25.462700 -9.481300 -25.568100
H -25.014600 -9.837200 -23.652800
N -24.419300 -8.664700 -25.720000
H -24.312300 -8.259200 -26.524800
H -23.927800 -8.505200 -25.024800
