31
Fragment
H -9.200400 -8.538000 -14.962200
H -8.971400 -3.535300 -12.283800
N -8.453800 -8.604100 -14.557400
H -8.227100 -7.901600 -13.966100
C -8.214600 -3.823700 -11.827100
H -8.106200 -5.601100 -12.725600
H -7.996600 -2.158200 -10.701200
O -7.995900 -10.689300 -15.287000
C -7.694000 -5.054100 -12.096600
C -7.688400 -9.678500 -14.644600
C -7.630800 -2.995100 -10.878200
H -7.282500 -1.468900 -8.650000
C -6.545700 -5.498100 -11.437500
C -6.512300 -3.413200 -10.204000
N -6.457000 -7.529100 -12.683000
C -6.406900 -9.637300 -13.918600
H -6.398100 -0.844400 -9.783700
C -6.387400 -1.375900 -8.983600
C -5.953100 -4.677900 -10.481600
C -5.947600 -6.790500 -11.772800
O -5.852200 -2.665400 -9.276900
H -5.841900 -0.945400 -8.321600
C -5.840400 -8.722000 -13.051600
H -5.552600 -11.413400 -14.542800
N -5.494600 -10.646500 -14.039200
H -5.140200 -7.075400 -11.271400
O -4.861200 -5.129100 -9.837800
N -4.593200 -9.159100 -12.659000
C -4.445900 -10.319900 -13.288700
H -4.387300 -4.461600 -9.394600
H -3.732700 -10.841400 -13.116800
31
Fragment
H -14.253300 7.879900 -7.853300
H -13.598600 1.500100 -11.575500
C -13.540000 7.358300 -7.681300
N -13.392700 6.197500 -8.311100
O -13.124700 2.167600 -11.132300
H -12.845700 4.113800 -9.698700
N -12.491300 7.685000 -6.930900
H -12.433300 8.451800 -6.427300
C -12.145500 5.760500 -7.918500
H -12.144000 -2.016200 -12.648500
O -12.133700 -0.296100 -11.693200
C -12.038300 3.829000 -9.197300
C -12.032800 1.716400 -10.488500
C -11.598500 -1.585700 -11.986500
H -11.587800 -2.117100 -11.186400
C -11.579000 6.675700 -7.051500
N -11.528900 4.567500 -8.287100
C -11.473600 0.451600 -10.766000
C -11.440200 2.536600 -9.532600
H -10.703400 -1.492700 -12.320100
C -10.355100 0.033500 -10.091900
C -10.297500 6.716900 -6.325500
C -10.292000 2.092500 -8.873500
O -9.990100 7.727700 -5.683100
H -9.989300 -0.803300 -10.268800
H -9.879700 2.639500 -8.244500
C -9.771300 0.862100 -9.143000
H -9.758800 4.940100 -7.004000
N -9.532200 5.642500 -6.412700
H -9.014500 0.573800 -8.686300
H -8.785500 5.576500 -6.007900
62
Fragment
H -9.200400 -8.538000 -14.962200
H -8.971400 -3.535300 -12.283800
N -8.453800 -8.604100 -14.557400
H -8.227100 -7.901600 -13.966100
C -8.214600 -3.823700 -11.827100
H -8.106200 -5.601100 -12.725600
H -7.996600 -2.158200 -10.701200
O -7.995900 -10.689300 -15.287000
C -7.694000 -5.054100 -12.096600
C -7.688400 -9.678500 -14.644600
C -7.630800 -2.995100 -10.878200
H -7.282500 -1.468900 -8.650000
C -6.545700 -5.498100 -11.437500
C -6.512300 -3.413200 -10.204000
N -6.457000 -7.529100 -12.683000
C -6.406900 -9.637300 -13.918600
H -6.398100 -0.844400 -9.783700
C -6.387400 -1.375900 -8.983600
C -5.953100 -4.677900 -10.481600
C -5.947600 -6.790500 -11.772800
O -5.852200 -2.665400 -9.276900
H -5.841900 -0.945400 -8.321600
C -5.840400 -8.722000 -13.051600
H -5.552600 -11.413400 -14.542800
N -5.494600 -10.646500 -14.039200
H -5.140200 -7.075400 -11.271400
O -4.861200 -5.129100 -9.837800
N -4.593200 -9.159100 -12.659000
C -4.445900 -10.319900 -13.288700
H -4.387300 -4.461600 -9.394600
H -3.732700 -10.841400 -13.116800
H -14.253300 7.879900 -7.853300
H -13.598600 1.500100 -11.575500
C -13.540000 7.358300 -7.681300
N -13.392700 6.197500 -8.311100
O -13.124700 2.167600 -11.132300
H -12.845700 4.113800 -9.698700
N -12.491300 7.685000 -6.930900
H -12.433300 8.451800 -6.427300
C -12.145500 5.760500 -7.918500
H -12.144000 -2.016200 -12.648500
O -12.133700 -0.296100 -11.693200
C -12.038300 3.829000 -9.197300
C -12.032800 1.716400 -10.488500
C -11.598500 -1.585700 -11.986500
H -11.587800 -2.117100 -11.186400
C -11.579000 6.675700 -7.051500
N -11.528900 4.567500 -8.287100
C -11.473600 0.451600 -10.766000
C -11.440200 2.536600 -9.532600
H -10.703400 -1.492700 -12.320100
C -10.355100 0.033500 -10.091900
C -10.297500 6.716900 -6.325500
C -10.292000 2.092500 -8.873500
O -9.990100 7.727700 -5.683100
H -9.989300 -0.803300 -10.268800
H -9.879700 2.639500 -8.244500
C -9.771300 0.862100 -9.143000
H -9.758800 4.940100 -7.004000
N -9.532200 5.642500 -6.412700
H -9.014500 0.573800 -8.686300
H -8.785500 5.576500 -6.007900
