31
Fragment
H -9.200400 -8.538000 -14.962200
H -8.971400 -3.535300 -12.283800
N -8.453800 -8.604100 -14.557400
H -8.227100 -7.901600 -13.966100
C -8.214600 -3.823700 -11.827100
H -8.106200 -5.601100 -12.725600
H -7.996600 -2.158200 -10.701200
O -7.995900 -10.689300 -15.287000
C -7.694000 -5.054100 -12.096600
C -7.688400 -9.678500 -14.644600
C -7.630800 -2.995100 -10.878200
H -7.282500 -1.468900 -8.650000
C -6.545700 -5.498100 -11.437500
C -6.512300 -3.413200 -10.204000
N -6.457000 -7.529100 -12.683000
C -6.406900 -9.637300 -13.918600
H -6.398100 -0.844400 -9.783700
C -6.387400 -1.375900 -8.983600
C -5.953100 -4.677900 -10.481600
C -5.947600 -6.790500 -11.772800
O -5.852200 -2.665400 -9.276900
H -5.841900 -0.945400 -8.321600
C -5.840400 -8.722000 -13.051600
H -5.552600 -11.413400 -14.542800
N -5.494600 -10.646500 -14.039200
H -5.140200 -7.075400 -11.271400
O -4.861200 -5.129100 -9.837800
N -4.593200 -9.159100 -12.659000
C -4.445900 -10.319900 -13.288700
H -4.387300 -4.461600 -9.394600
H -3.732700 -10.841400 -13.116800
31
Fragment
H -12.064800 1.477500 -14.962200
H -11.835800 6.480200 -12.283800
N -11.318100 1.411500 -14.557400
H -11.091500 2.114000 -13.966100
C -11.079000 6.191900 -11.827100
H -10.970600 4.414500 -12.725600
H -10.861000 7.857300 -10.701200
O -10.860200 -0.673700 -15.287000
C -10.558300 4.961500 -12.096600
C -10.552700 0.337100 -14.644600
C -10.495100 7.020500 -10.878200
H -10.146900 8.546700 -8.650000
C -9.410000 4.517400 -11.437500
C -9.376700 6.602400 -10.204000
N -9.321300 2.486500 -12.683000
C -9.271300 0.378300 -13.918600
H -9.262400 9.171100 -9.783700
C -9.251700 8.639700 -8.983600
C -8.817500 5.337700 -10.481600
C -8.811900 3.225100 -11.772800
O -8.716600 7.350200 -9.276900
H -8.706200 9.070200 -8.321600
C -8.704800 1.293500 -13.051600
H -8.417000 -1.397800 -14.542800
N -8.358900 -0.631000 -14.039200
H -8.004500 2.940200 -11.271400
O -7.725600 4.886400 -9.837800
N -7.457500 0.856500 -12.659000
C -7.310200 -0.304300 -13.288700
H -7.251700 5.553900 -9.394600
H -6.597000 -0.825900 -13.116800
62
Fragment
H -9.200400 -8.538000 -14.962200
H -8.971400 -3.535300 -12.283800
N -8.453800 -8.604100 -14.557400
H -8.227100 -7.901600 -13.966100
C -8.214600 -3.823700 -11.827100
H -8.106200 -5.601100 -12.725600
H -7.996600 -2.158200 -10.701200
O -7.995900 -10.689300 -15.287000
C -7.694000 -5.054100 -12.096600
C -7.688400 -9.678500 -14.644600
C -7.630800 -2.995100 -10.878200
H -7.282500 -1.468900 -8.650000
C -6.545700 -5.498100 -11.437500
C -6.512300 -3.413200 -10.204000
N -6.457000 -7.529100 -12.683000
C -6.406900 -9.637300 -13.918600
H -6.398100 -0.844400 -9.783700
C -6.387400 -1.375900 -8.983600
C -5.953100 -4.677900 -10.481600
C -5.947600 -6.790500 -11.772800
O -5.852200 -2.665400 -9.276900
H -5.841900 -0.945400 -8.321600
C -5.840400 -8.722000 -13.051600
H -5.552600 -11.413400 -14.542800
N -5.494600 -10.646500 -14.039200
H -5.140200 -7.075400 -11.271400
O -4.861200 -5.129100 -9.837800
N -4.593200 -9.159100 -12.659000
C -4.445900 -10.319900 -13.288700
H -4.387300 -4.461600 -9.394600
H -3.732700 -10.841400 -13.116800
H -12.064800 1.477500 -14.962200
H -11.835800 6.480200 -12.283800
N -11.318100 1.411500 -14.557400
H -11.091500 2.114000 -13.966100
C -11.079000 6.191900 -11.827100
H -10.970600 4.414500 -12.725600
H -10.861000 7.857300 -10.701200
O -10.860200 -0.673700 -15.287000
C -10.558300 4.961500 -12.096600
C -10.552700 0.337100 -14.644600
C -10.495100 7.020500 -10.878200
H -10.146900 8.546700 -8.650000
C -9.410000 4.517400 -11.437500
C -9.376700 6.602400 -10.204000
N -9.321300 2.486500 -12.683000
C -9.271300 0.378300 -13.918600
H -9.262400 9.171100 -9.783700
C -9.251700 8.639700 -8.983600
C -8.817500 5.337700 -10.481600
C -8.811900 3.225100 -11.772800
O -8.716600 7.350200 -9.276900
H -8.706200 9.070200 -8.321600
C -8.704800 1.293500 -13.051600
H -8.417000 -1.397800 -14.542800
N -8.358900 -0.631000 -14.039200
H -8.004500 2.940200 -11.271400
O -7.725600 4.886400 -9.837800
N -7.457500 0.856500 -12.659000
C -7.310200 -0.304300 -13.288700
H -7.251700 5.553900 -9.394600
H -6.597000 -0.825900 -13.116800
