31
Fragment
H -9.200400 -8.538000 -14.962200
H -8.971400 -3.535300 -12.283800
N -8.453800 -8.604100 -14.557400
H -8.227100 -7.901600 -13.966100
C -8.214600 -3.823700 -11.827100
H -8.106200 -5.601100 -12.725600
H -7.996600 -2.158200 -10.701200
O -7.995900 -10.689300 -15.287000
C -7.694000 -5.054100 -12.096600
C -7.688400 -9.678500 -14.644600
C -7.630800 -2.995100 -10.878200
H -7.282500 -1.468900 -8.650000
C -6.545700 -5.498100 -11.437500
C -6.512300 -3.413200 -10.204000
N -6.457000 -7.529100 -12.683000
C -6.406900 -9.637300 -13.918600
H -6.398100 -0.844400 -9.783700
C -6.387400 -1.375900 -8.983600
C -5.953100 -4.677900 -10.481600
C -5.947600 -6.790500 -11.772800
O -5.852200 -2.665400 -9.276900
H -5.841900 -0.945400 -8.321600
C -5.840400 -8.722000 -13.051600
H -5.552600 -11.413400 -14.542800
N -5.494600 -10.646500 -14.039200
H -5.140200 -7.075400 -11.271400
O -4.861200 -5.129100 -9.837800
N -4.593200 -9.159100 -12.659000
C -4.445900 -10.319900 -13.288700
H -4.387300 -4.461600 -9.394600
H -3.732700 -10.841400 -13.116800
31
Fragment
H -6.336100 -18.553600 -14.962200
H -6.107100 -13.550900 -12.283800
N -5.589400 -18.619600 -14.557400
H -5.362800 -17.917200 -13.966100
C -5.350300 -13.839200 -11.827100
H -5.241900 -15.616600 -12.725600
H -5.132300 -12.173800 -10.701200
O -5.131500 -20.704900 -15.287000
C -4.829600 -15.069600 -12.096600
C -4.824000 -19.694000 -14.644600
C -4.766400 -13.010600 -10.878200
H -4.418200 -11.484500 -8.650000
C -3.681300 -15.513700 -11.437500
C -3.648000 -13.428700 -10.204000
N -3.592600 -17.544600 -12.683000
C -3.542600 -19.652800 -13.918600
H -3.533700 -10.860000 -9.783700
C -3.523000 -11.391500 -8.983600
C -3.088800 -14.693500 -10.481600
C -3.083200 -16.806100 -11.772800
O -2.987900 -12.681000 -9.276900
H -2.977500 -10.960900 -8.321600
C -2.976100 -18.737600 -13.051600
H -2.688300 -21.428900 -14.542800
N -2.630200 -20.662100 -14.039200
H -2.275800 -17.090900 -11.271400
O -1.996900 -15.144700 -9.837800
N -1.728800 -19.174600 -12.659000
C -1.581500 -20.335400 -13.288700
H -1.523000 -14.477200 -9.394600
H -0.868300 -20.857000 -13.116800
62
Fragment
H -9.200400 -8.538000 -14.962200
H -8.971400 -3.535300 -12.283800
N -8.453800 -8.604100 -14.557400
H -8.227100 -7.901600 -13.966100
C -8.214600 -3.823700 -11.827100
H -8.106200 -5.601100 -12.725600
H -7.996600 -2.158200 -10.701200
O -7.995900 -10.689300 -15.287000
C -7.694000 -5.054100 -12.096600
C -7.688400 -9.678500 -14.644600
C -7.630800 -2.995100 -10.878200
H -7.282500 -1.468900 -8.650000
C -6.545700 -5.498100 -11.437500
C -6.512300 -3.413200 -10.204000
N -6.457000 -7.529100 -12.683000
C -6.406900 -9.637300 -13.918600
H -6.398100 -0.844400 -9.783700
C -6.387400 -1.375900 -8.983600
C -5.953100 -4.677900 -10.481600
C -5.947600 -6.790500 -11.772800
O -5.852200 -2.665400 -9.276900
H -5.841900 -0.945400 -8.321600
C -5.840400 -8.722000 -13.051600
H -5.552600 -11.413400 -14.542800
N -5.494600 -10.646500 -14.039200
H -5.140200 -7.075400 -11.271400
O -4.861200 -5.129100 -9.837800
N -4.593200 -9.159100 -12.659000
C -4.445900 -10.319900 -13.288700
H -4.387300 -4.461600 -9.394600
H -3.732700 -10.841400 -13.116800
H -6.336100 -18.553600 -14.962200
H -6.107100 -13.550900 -12.283800
N -5.589400 -18.619600 -14.557400
H -5.362800 -17.917200 -13.966100
C -5.350300 -13.839200 -11.827100
H -5.241900 -15.616600 -12.725600
H -5.132300 -12.173800 -10.701200
O -5.131500 -20.704900 -15.287000
C -4.829600 -15.069600 -12.096600
C -4.824000 -19.694000 -14.644600
C -4.766400 -13.010600 -10.878200
H -4.418200 -11.484500 -8.650000
C -3.681300 -15.513700 -11.437500
C -3.648000 -13.428700 -10.204000
N -3.592600 -17.544600 -12.683000
C -3.542600 -19.652800 -13.918600
H -3.533700 -10.860000 -9.783700
C -3.523000 -11.391500 -8.983600
C -3.088800 -14.693500 -10.481600
C -3.083200 -16.806100 -11.772800
O -2.987900 -12.681000 -9.276900
H -2.977500 -10.960900 -8.321600
C -2.976100 -18.737600 -13.051600
H -2.688300 -21.428900 -14.542800
N -2.630200 -20.662100 -14.039200
H -2.275800 -17.090900 -11.271400
O -1.996900 -15.144700 -9.837800
N -1.728800 -19.174600 -12.659000
C -1.581500 -20.335400 -13.288700
H -1.523000 -14.477200 -9.394600
H -0.868300 -20.857000 -13.116800
