31
Fragment
H -9.200400 -8.538000 -14.962200
H -8.971400 -3.535300 -12.283800
N -8.453800 -8.604100 -14.557400
H -8.227100 -7.901600 -13.966100
C -8.214600 -3.823700 -11.827100
H -8.106200 -5.601100 -12.725600
H -7.996600 -2.158200 -10.701200
O -7.995900 -10.689300 -15.287000
C -7.694000 -5.054100 -12.096600
C -7.688400 -9.678500 -14.644600
C -7.630800 -2.995100 -10.878200
H -7.282500 -1.468900 -8.650000
C -6.545700 -5.498100 -11.437500
C -6.512300 -3.413200 -10.204000
N -6.457000 -7.529100 -12.683000
C -6.406900 -9.637300 -13.918600
H -6.398100 -0.844400 -9.783700
C -6.387400 -1.375900 -8.983600
C -5.953100 -4.677900 -10.481600
C -5.947600 -6.790500 -11.772800
O -5.852200 -2.665400 -9.276900
H -5.841900 -0.945400 -8.321600
C -5.840400 -8.722000 -13.051600
H -5.552600 -11.413400 -14.542800
N -5.494600 -10.646500 -14.039200
H -5.140200 -7.075400 -11.271400
O -4.861200 -5.129100 -9.837800
N -4.593200 -9.159100 -12.659000
C -4.445900 -10.319900 -13.288700
H -4.387300 -4.461600 -9.394600
H -3.732700 -10.841400 -13.116800
12
Fragment
H -7.678300 2.351000 -7.063100
H -6.886200 1.186600 -7.751900
C -6.828900 2.086800 -7.424500
H -6.590900 2.675300 -8.144800
H -6.119700 4.065300 -6.070800
N -5.825600 2.160100 -6.393500
C -5.557200 3.307200 -5.779400
H -5.436300 0.224400 -6.600400
H -5.247500 0.740000 -5.132100
C -5.110800 0.947600 -6.059300
O -4.726600 3.447200 -4.883900
H -4.172900 1.072900 -6.224000
43
Fragment
H -9.200400 -8.538000 -14.962200
H -8.971400 -3.535300 -12.283800
N -8.453800 -8.604100 -14.557400
H -8.227100 -7.901600 -13.966100
C -8.214600 -3.823700 -11.827100
H -8.106200 -5.601100 -12.725600
H -7.996600 -2.158200 -10.701200
O -7.995900 -10.689300 -15.287000
C -7.694000 -5.054100 -12.096600
C -7.688400 -9.678500 -14.644600
C -7.630800 -2.995100 -10.878200
H -7.282500 -1.468900 -8.650000
C -6.545700 -5.498100 -11.437500
C -6.512300 -3.413200 -10.204000
N -6.457000 -7.529100 -12.683000
C -6.406900 -9.637300 -13.918600
H -6.398100 -0.844400 -9.783700
C -6.387400 -1.375900 -8.983600
C -5.953100 -4.677900 -10.481600
C -5.947600 -6.790500 -11.772800
O -5.852200 -2.665400 -9.276900
H -5.841900 -0.945400 -8.321600
C -5.840400 -8.722000 -13.051600
H -5.552600 -11.413400 -14.542800
N -5.494600 -10.646500 -14.039200
H -5.140200 -7.075400 -11.271400
O -4.861200 -5.129100 -9.837800
N -4.593200 -9.159100 -12.659000
C -4.445900 -10.319900 -13.288700
H -4.387300 -4.461600 -9.394600
H -3.732700 -10.841400 -13.116800
H -7.678300 2.351000 -7.063100
H -6.886200 1.186600 -7.751900
C -6.828900 2.086800 -7.424500
H -6.590900 2.675300 -8.144800
H -6.119700 4.065300 -6.070800
N -5.825600 2.160100 -6.393500
C -5.557200 3.307200 -5.779400
H -5.436300 0.224400 -6.600400
H -5.247500 0.740000 -5.132100
C -5.110800 0.947600 -6.059300
O -4.726600 3.447200 -4.883900
H -4.172900 1.072900 -6.224000
