31
Fragment
H -9.200400 -8.538000 -14.962200
H -8.971400 -3.535300 -12.283800
N -8.453800 -8.604100 -14.557400
H -8.227100 -7.901600 -13.966100
C -8.214600 -3.823700 -11.827100
H -8.106200 -5.601100 -12.725600
H -7.996600 -2.158200 -10.701200
O -7.995900 -10.689300 -15.287000
C -7.694000 -5.054100 -12.096600
C -7.688400 -9.678500 -14.644600
C -7.630800 -2.995100 -10.878200
H -7.282500 -1.468900 -8.650000
C -6.545700 -5.498100 -11.437500
C -6.512300 -3.413200 -10.204000
N -6.457000 -7.529100 -12.683000
C -6.406900 -9.637300 -13.918600
H -6.398100 -0.844400 -9.783700
C -6.387400 -1.375900 -8.983600
C -5.953100 -4.677900 -10.481600
C -5.947600 -6.790500 -11.772800
O -5.852200 -2.665400 -9.276900
H -5.841900 -0.945400 -8.321600
C -5.840400 -8.722000 -13.051600
H -5.552600 -11.413400 -14.542800
N -5.494600 -10.646500 -14.039200
H -5.140200 -7.075400 -11.271400
O -4.861200 -5.129100 -9.837800
N -4.593200 -9.159100 -12.659000
C -4.445900 -10.319900 -13.288700
H -4.387300 -4.461600 -9.394600
H -3.732700 -10.841400 -13.116800
31
Fragment
H -7.612500 -8.624200 -18.338300
H -6.957900 -15.004000 -22.060500
C -6.899300 -9.145800 -18.166400
N -6.752000 -10.306600 -18.796100
O -6.484000 -14.336500 -21.617300
H -6.205000 -12.390300 -20.183700
N -5.850600 -8.819100 -17.416000
H -5.792600 -8.052300 -16.912400
C -5.504800 -10.743600 -18.403600
H -5.503300 -18.520300 -23.133600
O -5.492900 -16.800300 -22.178300
C -5.397600 -12.675200 -19.682300
C -5.392000 -14.787800 -20.973600
C -4.957800 -18.089800 -22.471600
H -4.947100 -18.621200 -21.671400
C -4.938200 -9.828400 -17.536600
N -4.888200 -11.936600 -18.772100
C -4.832900 -16.052500 -21.251100
C -4.799500 -13.967500 -20.017600
H -4.062700 -17.996800 -22.805200
C -3.714400 -16.470600 -20.576900
C -3.656800 -9.787200 -16.810600
C -3.651200 -14.411600 -19.358500
O -3.349300 -8.776400 -16.168200
H -3.348600 -17.307500 -20.753900
H -3.239000 -13.864600 -18.729500
C -3.130600 -15.642000 -19.628000
H -3.118100 -11.564100 -17.489100
N -2.891400 -10.861600 -16.897700
H -2.373800 -15.930300 -19.171400
H -2.144800 -10.927600 -16.493000
62
Fragment
H -9.200400 -8.538000 -14.962200
H -8.971400 -3.535300 -12.283800
N -8.453800 -8.604100 -14.557400
H -8.227100 -7.901600 -13.966100
C -8.214600 -3.823700 -11.827100
H -8.106200 -5.601100 -12.725600
H -7.996600 -2.158200 -10.701200
O -7.995900 -10.689300 -15.287000
C -7.694000 -5.054100 -12.096600
C -7.688400 -9.678500 -14.644600
C -7.630800 -2.995100 -10.878200
H -7.282500 -1.468900 -8.650000
C -6.545700 -5.498100 -11.437500
C -6.512300 -3.413200 -10.204000
N -6.457000 -7.529100 -12.683000
C -6.406900 -9.637300 -13.918600
H -6.398100 -0.844400 -9.783700
C -6.387400 -1.375900 -8.983600
C -5.953100 -4.677900 -10.481600
C -5.947600 -6.790500 -11.772800
O -5.852200 -2.665400 -9.276900
H -5.841900 -0.945400 -8.321600
C -5.840400 -8.722000 -13.051600
H -5.552600 -11.413400 -14.542800
N -5.494600 -10.646500 -14.039200
H -5.140200 -7.075400 -11.271400
O -4.861200 -5.129100 -9.837800
N -4.593200 -9.159100 -12.659000
C -4.445900 -10.319900 -13.288700
H -4.387300 -4.461600 -9.394600
H -3.732700 -10.841400 -13.116800
H -7.612500 -8.624200 -18.338300
H -6.957900 -15.004000 -22.060500
C -6.899300 -9.145800 -18.166400
N -6.752000 -10.306600 -18.796100
O -6.484000 -14.336500 -21.617300
H -6.205000 -12.390300 -20.183700
N -5.850600 -8.819100 -17.416000
H -5.792600 -8.052300 -16.912400
C -5.504800 -10.743600 -18.403600
H -5.503300 -18.520300 -23.133600
O -5.492900 -16.800300 -22.178300
C -5.397600 -12.675200 -19.682300
C -5.392000 -14.787800 -20.973600
C -4.957800 -18.089800 -22.471600
H -4.947100 -18.621200 -21.671400
C -4.938200 -9.828400 -17.536600
N -4.888200 -11.936600 -18.772100
C -4.832900 -16.052500 -21.251100
C -4.799500 -13.967500 -20.017600
H -4.062700 -17.996800 -22.805200
C -3.714400 -16.470600 -20.576900
C -3.656800 -9.787200 -16.810600
C -3.651200 -14.411600 -19.358500
O -3.349300 -8.776400 -16.168200
H -3.348600 -17.307500 -20.753900
H -3.239000 -13.864600 -18.729500
C -3.130600 -15.642000 -19.628000
H -3.118100 -11.564100 -17.489100
N -2.891400 -10.861600 -16.897700
H -2.373800 -15.930300 -19.171400
H -2.144800 -10.927600 -16.493000
