30
Fragment
H -8.958100 -3.271500 -20.488000
H -8.277400 -9.744700 -21.282800
C -8.097500 -3.584300 -20.199500
H -8.033200 -3.508400 -19.244600
H -8.016100 -3.474400 -22.746600
H -7.965500 -9.304600 -22.754700
C -7.937000 -4.367600 -22.993300
C -7.925900 -5.030100 -20.602500
H -7.907300 -4.013800 -24.959100
C -7.884100 -5.371200 -21.971000
C -7.874700 -4.686800 -24.318000
H -7.832200 -4.877500 -17.952100
C -7.823400 -6.052400 -19.637700
C -7.786900 -5.762900 -18.232800
C -7.779300 -6.752400 -22.381500
C -7.760300 -6.041000 -24.720200
C -7.739600 -7.435700 -20.048700
C -7.737600 -7.779000 -21.415600
C -7.718700 -7.032800 -23.787600
H -7.713500 -6.253300 -25.624500
C -7.688600 -9.229100 -21.838700
C -7.688000 -6.749200 -17.299800
H -7.658500 -6.531500 -16.396100
C -7.653000 -8.436100 -19.023300
H -7.649100 -7.916200 -24.069800
C -7.629500 -8.108100 -17.702500
H -7.611800 -9.332500 -19.267800
H -7.574700 -8.778600 -17.060500
H -7.410300 -3.054000 -20.609700
H -6.791700 -9.558800 -21.747200
20
Fragment
N -6.585000 -8.069800 -14.141500
C -6.344800 -9.182500 -14.315400
C -6.085900 -10.577400 -14.541900
H -6.062500 -10.138300 -11.931400
C -6.037000 -10.982900 -15.919800
N -6.008000 -11.290900 -17.024100
C -5.983900 -11.044100 -12.126700
C -5.953900 -11.479200 -13.509200
H -5.901700 -11.637200 -10.241700
C -5.899100 -11.937000 -11.122000
N -5.890200 -13.566600 -7.887100
C -5.841700 -13.882500 -8.989300
C -5.803900 -13.357200 -11.391800
C -5.794900 -12.892800 -13.774700
C -5.785500 -14.277700 -10.368600
C -5.741500 -15.694700 -10.618300
C -5.739100 -13.787900 -12.773300
N -5.731100 -16.827300 -10.808800
H -5.730100 -13.187500 -14.654400
H -5.658000 -14.693300 -12.969600
50
Fragment
H -8.958100 -3.271500 -20.488000
H -8.277400 -9.744700 -21.282800
C -8.097500 -3.584300 -20.199500
H -8.033200 -3.508400 -19.244600
H -8.016100 -3.474400 -22.746600
H -7.965500 -9.304600 -22.754700
C -7.937000 -4.367600 -22.993300
C -7.925900 -5.030100 -20.602500
H -7.907300 -4.013800 -24.959100
C -7.884100 -5.371200 -21.971000
C -7.874700 -4.686800 -24.318000
H -7.832200 -4.877500 -17.952100
C -7.823400 -6.052400 -19.637700
C -7.786900 -5.762900 -18.232800
C -7.779300 -6.752400 -22.381500
C -7.760300 -6.041000 -24.720200
C -7.739600 -7.435700 -20.048700
C -7.737600 -7.779000 -21.415600
C -7.718700 -7.032800 -23.787600
H -7.713500 -6.253300 -25.624500
C -7.688600 -9.229100 -21.838700
C -7.688000 -6.749200 -17.299800
H -7.658500 -6.531500 -16.396100
C -7.653000 -8.436100 -19.023300
H -7.649100 -7.916200 -24.069800
C -7.629500 -8.108100 -17.702500
H -7.611800 -9.332500 -19.267800
H -7.574700 -8.778600 -17.060500
H -7.410300 -3.054000 -20.609700
H -6.791700 -9.558800 -21.747200
N -6.585000 -8.069800 -14.141500
C -6.344800 -9.182500 -14.315400
C -6.085900 -10.577400 -14.541900
H -6.062500 -10.138300 -11.931400
C -6.037000 -10.982900 -15.919800
N -6.008000 -11.290900 -17.024100
C -5.983900 -11.044100 -12.126700
C -5.953900 -11.479200 -13.509200
H -5.901700 -11.637200 -10.241700
C -5.899100 -11.937000 -11.122000
N -5.890200 -13.566600 -7.887100
C -5.841700 -13.882500 -8.989300
C -5.803900 -13.357200 -11.391800
C -5.794900 -12.892800 -13.774700
C -5.785500 -14.277700 -10.368600
C -5.741500 -15.694700 -10.618300
C -5.739100 -13.787900 -12.773300
N -5.731100 -16.827300 -10.808800
H -5.730100 -13.187500 -14.654400
H -5.658000 -14.693300 -12.969600
