30
Fragment
H -8.958100 -3.271500 -20.488000
H -8.277400 -9.744700 -21.282800
C -8.097500 -3.584300 -20.199500
H -8.033200 -3.508400 -19.244600
H -8.016100 -3.474400 -22.746600
H -7.965500 -9.304600 -22.754700
C -7.937000 -4.367600 -22.993300
C -7.925900 -5.030100 -20.602500
H -7.907300 -4.013800 -24.959100
C -7.884100 -5.371200 -21.971000
C -7.874700 -4.686800 -24.318000
H -7.832200 -4.877500 -17.952100
C -7.823400 -6.052400 -19.637700
C -7.786900 -5.762900 -18.232800
C -7.779300 -6.752400 -22.381500
C -7.760300 -6.041000 -24.720200
C -7.739600 -7.435700 -20.048700
C -7.737600 -7.779000 -21.415600
C -7.718700 -7.032800 -23.787600
H -7.713500 -6.253300 -25.624500
C -7.688600 -9.229100 -21.838700
C -7.688000 -6.749200 -17.299800
H -7.658500 -6.531500 -16.396100
C -7.653000 -8.436100 -19.023300
H -7.649100 -7.916200 -24.069800
C -7.629500 -8.108100 -17.702500
H -7.611800 -9.332500 -19.267800
H -7.574700 -8.778600 -17.060500
H -7.410300 -3.054000 -20.609700
H -6.791700 -9.558800 -21.747200
20
Fragment
H -4.617700 -4.730400 -20.915300
H -4.545700 -6.236200 -19.230500
N -4.544700 -2.596400 -23.076100
C -4.536600 -5.635900 -21.111700
C -4.534200 -3.729000 -23.266600
C -4.490200 -5.146100 -23.516300
C -4.480800 -6.530900 -20.110200
C -4.471800 -6.066600 -22.493100
C -4.434000 -5.541300 -24.895600
N -4.385500 -5.857200 -25.997900
C -4.376600 -7.486800 -22.762900
H -4.374000 -7.786600 -23.643200
C -4.321800 -7.944600 -20.375700
C -4.291800 -8.379600 -21.758200
N -4.267700 -8.132900 -16.860800
C -4.238700 -8.440800 -17.965100
H -4.213200 -9.285500 -21.953500
C -4.189800 -8.846300 -19.343000
C -3.930900 -10.241200 -19.569600
N -3.690700 -11.354000 -19.743400
50
Fragment
H -8.958100 -3.271500 -20.488000
H -8.277400 -9.744700 -21.282800
C -8.097500 -3.584300 -20.199500
H -8.033200 -3.508400 -19.244600
H -8.016100 -3.474400 -22.746600
H -7.965500 -9.304600 -22.754700
C -7.937000 -4.367600 -22.993300
C -7.925900 -5.030100 -20.602500
H -7.907300 -4.013800 -24.959100
C -7.884100 -5.371200 -21.971000
C -7.874700 -4.686800 -24.318000
H -7.832200 -4.877500 -17.952100
C -7.823400 -6.052400 -19.637700
C -7.786900 -5.762900 -18.232800
C -7.779300 -6.752400 -22.381500
C -7.760300 -6.041000 -24.720200
C -7.739600 -7.435700 -20.048700
C -7.737600 -7.779000 -21.415600
C -7.718700 -7.032800 -23.787600
H -7.713500 -6.253300 -25.624500
C -7.688600 -9.229100 -21.838700
C -7.688000 -6.749200 -17.299800
H -7.658500 -6.531500 -16.396100
C -7.653000 -8.436100 -19.023300
H -7.649100 -7.916200 -24.069800
C -7.629500 -8.108100 -17.702500
H -7.611800 -9.332500 -19.267800
H -7.574700 -8.778600 -17.060500
H -7.410300 -3.054000 -20.609700
H -6.791700 -9.558800 -21.747200
H -4.617700 -4.730400 -20.915300
H -4.545700 -6.236200 -19.230500
N -4.544700 -2.596400 -23.076100
C -4.536600 -5.635900 -21.111700
C -4.534200 -3.729000 -23.266600
C -4.490200 -5.146100 -23.516300
C -4.480800 -6.530900 -20.110200
C -4.471800 -6.066600 -22.493100
C -4.434000 -5.541300 -24.895600
N -4.385500 -5.857200 -25.997900
C -4.376600 -7.486800 -22.762900
H -4.374000 -7.786600 -23.643200
C -4.321800 -7.944600 -20.375700
C -4.291800 -8.379600 -21.758200
N -4.267700 -8.132900 -16.860800
C -4.238700 -8.440800 -17.965100
H -4.213200 -9.285500 -21.953500
C -4.189800 -8.846300 -19.343000
C -3.930900 -10.241200 -19.569600
N -3.690700 -11.354000 -19.743400
