30
Fragment
H -8.958100 -3.271500 -20.488000
H -8.277400 -9.744700 -21.282800
C -8.097500 -3.584300 -20.199500
H -8.033200 -3.508400 -19.244600
H -8.016100 -3.474400 -22.746600
H -7.965500 -9.304600 -22.754700
C -7.937000 -4.367600 -22.993300
C -7.925900 -5.030100 -20.602500
H -7.907300 -4.013800 -24.959100
C -7.884100 -5.371200 -21.971000
C -7.874700 -4.686800 -24.318000
H -7.832200 -4.877500 -17.952100
C -7.823400 -6.052400 -19.637700
C -7.786900 -5.762900 -18.232800
C -7.779300 -6.752400 -22.381500
C -7.760300 -6.041000 -24.720200
C -7.739600 -7.435700 -20.048700
C -7.737600 -7.779000 -21.415600
C -7.718700 -7.032800 -23.787600
H -7.713500 -6.253300 -25.624500
C -7.688600 -9.229100 -21.838700
C -7.688000 -6.749200 -17.299800
H -7.658500 -6.531500 -16.396100
C -7.653000 -8.436100 -19.023300
H -7.649100 -7.916200 -24.069800
C -7.629500 -8.108100 -17.702500
H -7.611800 -9.332500 -19.267800
H -7.574700 -8.778600 -17.060500
H -7.410300 -3.054000 -20.609700
H -6.791700 -9.558800 -21.747200
20
Fragment
H -10.325000 -13.639900 -20.915300
H -10.252900 -15.145800 -19.230500
N -10.251900 -11.506000 -23.076100
C -10.243900 -14.545400 -21.111700
C -10.241500 -12.638600 -23.266600
C -10.197500 -14.055600 -23.516300
C -10.188100 -15.440400 -20.110200
C -10.179100 -14.976100 -22.493100
C -10.141300 -14.450800 -24.895600
N -10.092800 -14.766700 -25.997900
C -10.083900 -16.396300 -22.762900
H -10.081300 -16.696100 -23.643200
C -10.029100 -16.854100 -20.375700
C -9.999100 -17.289100 -21.758200
N -9.975000 -17.042400 -16.860800
C -9.946000 -17.350300 -17.965100
H -9.920500 -18.195000 -21.953500
C -9.897100 -17.755900 -19.343000
C -9.638200 -19.150700 -19.569600
N -9.398000 -20.263500 -19.743400
50
Fragment
H -8.958100 -3.271500 -20.488000
H -8.277400 -9.744700 -21.282800
C -8.097500 -3.584300 -20.199500
H -8.033200 -3.508400 -19.244600
H -8.016100 -3.474400 -22.746600
H -7.965500 -9.304600 -22.754700
C -7.937000 -4.367600 -22.993300
C -7.925900 -5.030100 -20.602500
H -7.907300 -4.013800 -24.959100
C -7.884100 -5.371200 -21.971000
C -7.874700 -4.686800 -24.318000
H -7.832200 -4.877500 -17.952100
C -7.823400 -6.052400 -19.637700
C -7.786900 -5.762900 -18.232800
C -7.779300 -6.752400 -22.381500
C -7.760300 -6.041000 -24.720200
C -7.739600 -7.435700 -20.048700
C -7.737600 -7.779000 -21.415600
C -7.718700 -7.032800 -23.787600
H -7.713500 -6.253300 -25.624500
C -7.688600 -9.229100 -21.838700
C -7.688000 -6.749200 -17.299800
H -7.658500 -6.531500 -16.396100
C -7.653000 -8.436100 -19.023300
H -7.649100 -7.916200 -24.069800
C -7.629500 -8.108100 -17.702500
H -7.611800 -9.332500 -19.267800
H -7.574700 -8.778600 -17.060500
H -7.410300 -3.054000 -20.609700
H -6.791700 -9.558800 -21.747200
H -10.325000 -13.639900 -20.915300
H -10.252900 -15.145800 -19.230500
N -10.251900 -11.506000 -23.076100
C -10.243900 -14.545400 -21.111700
C -10.241500 -12.638600 -23.266600
C -10.197500 -14.055600 -23.516300
C -10.188100 -15.440400 -20.110200
C -10.179100 -14.976100 -22.493100
C -10.141300 -14.450800 -24.895600
N -10.092800 -14.766700 -25.997900
C -10.083900 -16.396300 -22.762900
H -10.081300 -16.696100 -23.643200
C -10.029100 -16.854100 -20.375700
C -9.999100 -17.289100 -21.758200
N -9.975000 -17.042400 -16.860800
C -9.946000 -17.350300 -17.965100
H -9.920500 -18.195000 -21.953500
C -9.897100 -17.755900 -19.343000
C -9.638200 -19.150700 -19.569600
N -9.398000 -20.263500 -19.743400
