30
Fragment
H -8.958100 -3.271500 -20.488000
H -8.277400 -9.744700 -21.282800
C -8.097500 -3.584300 -20.199500
H -8.033200 -3.508400 -19.244600
H -8.016100 -3.474400 -22.746600
H -7.965500 -9.304600 -22.754700
C -7.937000 -4.367600 -22.993300
C -7.925900 -5.030100 -20.602500
H -7.907300 -4.013800 -24.959100
C -7.884100 -5.371200 -21.971000
C -7.874700 -4.686800 -24.318000
H -7.832200 -4.877500 -17.952100
C -7.823400 -6.052400 -19.637700
C -7.786900 -5.762900 -18.232800
C -7.779300 -6.752400 -22.381500
C -7.760300 -6.041000 -24.720200
C -7.739600 -7.435700 -20.048700
C -7.737600 -7.779000 -21.415600
C -7.718700 -7.032800 -23.787600
H -7.713500 -6.253300 -25.624500
C -7.688600 -9.229100 -21.838700
C -7.688000 -6.749200 -17.299800
H -7.658500 -6.531500 -16.396100
C -7.653000 -8.436100 -19.023300
H -7.649100 -7.916200 -24.069800
C -7.629500 -8.108100 -17.702500
H -7.611800 -9.332500 -19.267800
H -7.574700 -8.778600 -17.060500
H -7.410300 -3.054000 -20.609700
H -6.791700 -9.558800 -21.747200
20
Fragment
N -7.671200 0.839800 -14.141500
C -7.431000 -0.273000 -14.315400
C -7.172100 -1.667900 -14.541900
H -7.148700 -1.228700 -11.931400
C -7.123300 -2.073400 -15.919800
N -7.094200 -2.381300 -17.024100
C -7.070100 -2.134600 -12.126700
C -7.040100 -2.569600 -13.509200
H -6.987900 -2.727600 -10.241700
C -6.985300 -3.027400 -11.122000
N -6.976400 -4.657000 -7.887100
C -6.928000 -4.973000 -8.989300
C -6.890100 -4.447600 -11.391800
C -6.881100 -3.983300 -13.774700
C -6.871700 -5.368100 -10.368600
C -6.827700 -6.785200 -10.618300
C -6.825300 -4.878400 -12.773300
N -6.817300 -7.917800 -10.808800
H -6.816300 -4.278000 -14.654400
H -6.744300 -5.783800 -12.969600
50
Fragment
H -8.958100 -3.271500 -20.488000
H -8.277400 -9.744700 -21.282800
C -8.097500 -3.584300 -20.199500
H -8.033200 -3.508400 -19.244600
H -8.016100 -3.474400 -22.746600
H -7.965500 -9.304600 -22.754700
C -7.937000 -4.367600 -22.993300
C -7.925900 -5.030100 -20.602500
H -7.907300 -4.013800 -24.959100
C -7.884100 -5.371200 -21.971000
C -7.874700 -4.686800 -24.318000
H -7.832200 -4.877500 -17.952100
C -7.823400 -6.052400 -19.637700
C -7.786900 -5.762900 -18.232800
C -7.779300 -6.752400 -22.381500
C -7.760300 -6.041000 -24.720200
C -7.739600 -7.435700 -20.048700
C -7.737600 -7.779000 -21.415600
C -7.718700 -7.032800 -23.787600
H -7.713500 -6.253300 -25.624500
C -7.688600 -9.229100 -21.838700
C -7.688000 -6.749200 -17.299800
H -7.658500 -6.531500 -16.396100
C -7.653000 -8.436100 -19.023300
H -7.649100 -7.916200 -24.069800
C -7.629500 -8.108100 -17.702500
H -7.611800 -9.332500 -19.267800
H -7.574700 -8.778600 -17.060500
H -7.410300 -3.054000 -20.609700
H -6.791700 -9.558800 -21.747200
N -7.671200 0.839800 -14.141500
C -7.431000 -0.273000 -14.315400
C -7.172100 -1.667900 -14.541900
H -7.148700 -1.228700 -11.931400
C -7.123300 -2.073400 -15.919800
N -7.094200 -2.381300 -17.024100
C -7.070100 -2.134600 -12.126700
C -7.040100 -2.569600 -13.509200
H -6.987900 -2.727600 -10.241700
C -6.985300 -3.027400 -11.122000
N -6.976400 -4.657000 -7.887100
C -6.928000 -4.973000 -8.989300
C -6.890100 -4.447600 -11.391800
C -6.881100 -3.983300 -13.774700
C -6.871700 -5.368100 -10.368600
C -6.827700 -6.785200 -10.618300
C -6.825300 -4.878400 -12.773300
N -6.817300 -7.917800 -10.808800
H -6.816300 -4.278000 -14.654400
H -6.744300 -5.783800 -12.969600
