30
Fragment
H -8.958100 -3.271500 -20.488000
H -8.277400 -9.744700 -21.282800
C -8.097500 -3.584300 -20.199500
H -8.033200 -3.508400 -19.244600
H -8.016100 -3.474400 -22.746600
H -7.965500 -9.304600 -22.754700
C -7.937000 -4.367600 -22.993300
C -7.925900 -5.030100 -20.602500
H -7.907300 -4.013800 -24.959100
C -7.884100 -5.371200 -21.971000
C -7.874700 -4.686800 -24.318000
H -7.832200 -4.877500 -17.952100
C -7.823400 -6.052400 -19.637700
C -7.786900 -5.762900 -18.232800
C -7.779300 -6.752400 -22.381500
C -7.760300 -6.041000 -24.720200
C -7.739600 -7.435700 -20.048700
C -7.737600 -7.779000 -21.415600
C -7.718700 -7.032800 -23.787600
H -7.713500 -6.253300 -25.624500
C -7.688600 -9.229100 -21.838700
C -7.688000 -6.749200 -17.299800
H -7.658500 -6.531500 -16.396100
C -7.653000 -8.436100 -19.023300
H -7.649100 -7.916200 -24.069800
C -7.629500 -8.108100 -17.702500
H -7.611800 -9.332500 -19.267800
H -7.574700 -8.778600 -17.060500
H -7.410300 -3.054000 -20.609700
H -6.791700 -9.558800 -21.747200
20
Fragment
N -6.558700 -4.417300 -31.084000
C -6.318500 -5.530100 -31.257800
C -6.059600 -6.925000 -31.484300
H -6.036200 -6.485800 -28.873800
C -6.010700 -7.330500 -32.862300
N -5.981700 -7.638400 -33.966600
C -5.957600 -7.391700 -29.069200
C -5.927600 -7.826700 -30.451700
H -5.875400 -7.984700 -27.184200
C -5.872800 -8.284500 -28.064500
N -5.863900 -9.914100 -24.829500
C -5.815400 -10.230100 -25.931800
C -5.777600 -9.704700 -28.334200
C -5.768600 -9.240400 -30.717200
C -5.759100 -10.625200 -27.311100
C -5.715200 -12.042300 -27.560800
C -5.712800 -10.135500 -29.715700
N -5.704700 -13.174900 -27.751200
H -5.703700 -9.535100 -31.596800
H -5.631700 -11.040900 -29.912100
50
Fragment
H -8.958100 -3.271500 -20.488000
H -8.277400 -9.744700 -21.282800
C -8.097500 -3.584300 -20.199500
H -8.033200 -3.508400 -19.244600
H -8.016100 -3.474400 -22.746600
H -7.965500 -9.304600 -22.754700
C -7.937000 -4.367600 -22.993300
C -7.925900 -5.030100 -20.602500
H -7.907300 -4.013800 -24.959100
C -7.884100 -5.371200 -21.971000
C -7.874700 -4.686800 -24.318000
H -7.832200 -4.877500 -17.952100
C -7.823400 -6.052400 -19.637700
C -7.786900 -5.762900 -18.232800
C -7.779300 -6.752400 -22.381500
C -7.760300 -6.041000 -24.720200
C -7.739600 -7.435700 -20.048700
C -7.737600 -7.779000 -21.415600
C -7.718700 -7.032800 -23.787600
H -7.713500 -6.253300 -25.624500
C -7.688600 -9.229100 -21.838700
C -7.688000 -6.749200 -17.299800
H -7.658500 -6.531500 -16.396100
C -7.653000 -8.436100 -19.023300
H -7.649100 -7.916200 -24.069800
C -7.629500 -8.108100 -17.702500
H -7.611800 -9.332500 -19.267800
H -7.574700 -8.778600 -17.060500
H -7.410300 -3.054000 -20.609700
H -6.791700 -9.558800 -21.747200
N -6.558700 -4.417300 -31.084000
C -6.318500 -5.530100 -31.257800
C -6.059600 -6.925000 -31.484300
H -6.036200 -6.485800 -28.873800
C -6.010700 -7.330500 -32.862300
N -5.981700 -7.638400 -33.966600
C -5.957600 -7.391700 -29.069200
C -5.927600 -7.826700 -30.451700
H -5.875400 -7.984700 -27.184200
C -5.872800 -8.284500 -28.064500
N -5.863900 -9.914100 -24.829500
C -5.815400 -10.230100 -25.931800
C -5.777600 -9.704700 -28.334200
C -5.768600 -9.240400 -30.717200
C -5.759100 -10.625200 -27.311100
C -5.715200 -12.042300 -27.560800
C -5.712800 -10.135500 -29.715700
N -5.704700 -13.174900 -27.751200
H -5.703700 -9.535100 -31.596800
H -5.631700 -11.040900 -29.912100
