30
Fragment
H -8.958100 -3.271500 -20.488000
H -8.277400 -9.744700 -21.282800
C -8.097500 -3.584300 -20.199500
H -8.033200 -3.508400 -19.244600
H -8.016100 -3.474400 -22.746600
H -7.965500 -9.304600 -22.754700
C -7.937000 -4.367600 -22.993300
C -7.925900 -5.030100 -20.602500
H -7.907300 -4.013800 -24.959100
C -7.884100 -5.371200 -21.971000
C -7.874700 -4.686800 -24.318000
H -7.832200 -4.877500 -17.952100
C -7.823400 -6.052400 -19.637700
C -7.786900 -5.762900 -18.232800
C -7.779300 -6.752400 -22.381500
C -7.760300 -6.041000 -24.720200
C -7.739600 -7.435700 -20.048700
C -7.737600 -7.779000 -21.415600
C -7.718700 -7.032800 -23.787600
H -7.713500 -6.253300 -25.624500
C -7.688600 -9.229100 -21.838700
C -7.688000 -6.749200 -17.299800
H -7.658500 -6.531500 -16.396100
C -7.653000 -8.436100 -19.023300
H -7.649100 -7.916200 -24.069800
C -7.629500 -8.108100 -17.702500
H -7.611800 -9.332500 -19.267800
H -7.574700 -8.778600 -17.060500
H -7.410300 -3.054000 -20.609700
H -6.791700 -9.558800 -21.747200
30
Fragment
H -10.277500 -9.864900 -12.137700
H -9.658900 -16.369700 -13.275300
H -9.494500 -10.645100 -16.824400
H -9.457400 -10.091300 -14.617100
C -9.439700 -11.315700 -16.182400
H -9.420100 -11.507500 -9.815100
C -9.416200 -10.987600 -14.861600
H -9.410700 -12.892200 -17.488900
C -9.381300 -12.674500 -16.585100
C -9.380600 -10.194700 -12.046300
H -9.355700 -13.170500 -8.260500
C -9.350500 -12.390900 -10.097400
C -9.331600 -11.644700 -12.469300
C -9.329600 -11.988100 -13.836200
C -9.308900 -13.382700 -9.164700
C -9.289900 -12.671300 -11.503400
C -9.282300 -13.660900 -15.652100
C -9.245800 -13.371300 -14.247300
H -9.237000 -14.546300 -15.932900
C -9.194500 -14.736900 -9.566900
C -9.185100 -14.052500 -11.913900
H -9.161900 -15.409900 -8.925800
C -9.143300 -14.393700 -13.282400
C -9.132200 -15.056100 -10.891600
H -9.103700 -10.119100 -11.130200
H -9.053100 -15.949300 -11.138300
H -9.036000 -15.915300 -14.640300
C -8.971700 -15.839500 -13.685400
H -8.791800 -9.679100 -12.602100
H -8.111200 -16.152200 -13.396900
60
Fragment
H -8.958100 -3.271500 -20.488000
H -8.277400 -9.744700 -21.282800
C -8.097500 -3.584300 -20.199500
H -8.033200 -3.508400 -19.244600
H -8.016100 -3.474400 -22.746600
H -7.965500 -9.304600 -22.754700
C -7.937000 -4.367600 -22.993300
C -7.925900 -5.030100 -20.602500
H -7.907300 -4.013800 -24.959100
C -7.884100 -5.371200 -21.971000
C -7.874700 -4.686800 -24.318000
H -7.832200 -4.877500 -17.952100
C -7.823400 -6.052400 -19.637700
C -7.786900 -5.762900 -18.232800
C -7.779300 -6.752400 -22.381500
C -7.760300 -6.041000 -24.720200
C -7.739600 -7.435700 -20.048700
C -7.737600 -7.779000 -21.415600
C -7.718700 -7.032800 -23.787600
H -7.713500 -6.253300 -25.624500
C -7.688600 -9.229100 -21.838700
C -7.688000 -6.749200 -17.299800
H -7.658500 -6.531500 -16.396100
C -7.653000 -8.436100 -19.023300
H -7.649100 -7.916200 -24.069800
C -7.629500 -8.108100 -17.702500
H -7.611800 -9.332500 -19.267800
H -7.574700 -8.778600 -17.060500
H -7.410300 -3.054000 -20.609700
H -6.791700 -9.558800 -21.747200
H -10.277500 -9.864900 -12.137700
H -9.658900 -16.369700 -13.275300
H -9.494500 -10.645100 -16.824400
H -9.457400 -10.091300 -14.617100
C -9.439700 -11.315700 -16.182400
H -9.420100 -11.507500 -9.815100
C -9.416200 -10.987600 -14.861600
H -9.410700 -12.892200 -17.488900
C -9.381300 -12.674500 -16.585100
C -9.380600 -10.194700 -12.046300
H -9.355700 -13.170500 -8.260500
C -9.350500 -12.390900 -10.097400
C -9.331600 -11.644700 -12.469300
C -9.329600 -11.988100 -13.836200
C -9.308900 -13.382700 -9.164700
C -9.289900 -12.671300 -11.503400
C -9.282300 -13.660900 -15.652100
C -9.245800 -13.371300 -14.247300
H -9.237000 -14.546300 -15.932900
C -9.194500 -14.736900 -9.566900
C -9.185100 -14.052500 -11.913900
H -9.161900 -15.409900 -8.925800
C -9.143300 -14.393700 -13.282400
C -9.132200 -15.056100 -10.891600
H -9.103700 -10.119100 -11.130200
H -9.053100 -15.949300 -11.138300
H -9.036000 -15.915300 -14.640300
C -8.971700 -15.839500 -13.685400
H -8.791800 -9.679100 -12.602100
H -8.111200 -16.152200 -13.396900
