20
Fragment
N -21.932500 -19.948400 -6.580000
N -21.676000 -16.759400 -3.816500
C -21.542400 -18.880300 -6.437000
C -21.394100 -17.053300 -4.890600
C -21.068300 -17.546600 -6.198100
C -20.331100 -16.866900 -7.136700
H -20.301900 -18.337700 -8.615000
F -20.156200 -14.947500 -5.761400
C -19.995700 -17.463500 -8.404400
C -19.831000 -15.527600 -6.922300
C -19.249500 -16.782300 -9.286700
C -19.084800 -14.846400 -7.804700
F -18.924300 -17.362400 -10.447600
H -18.778600 -13.972100 -7.594000
C -18.749400 -15.443000 -9.072400
C -18.012200 -14.763200 -10.011000
C -17.686400 -15.256500 -11.318500
C -17.538100 -13.429500 -9.772000
N -17.404500 -15.550500 -12.392600
N -17.148000 -12.361500 -9.629100
30
Fragment
H -16.013800 -13.238600 -12.471200
C -15.514300 -12.745100 -13.111400
H -15.441700 -14.748500 -16.517100
H -15.420400 -14.230300 -14.453300
H -15.413800 -11.003700 -12.017200
C -15.160300 -13.332100 -14.286300
C -15.146900 -11.409200 -12.834000
C -14.517800 -14.631700 -16.821900
H -14.471300 -14.782000 -17.789100
C -14.413000 -10.702500 -13.734400
C -14.407100 -12.629700 -15.273200
H -14.166700 -9.808000 -13.531700
C -14.058800 -13.229300 -16.508700
C -14.001400 -11.275900 -14.982600
H -13.938300 -15.275000 -16.363000
H -13.350500 -8.505600 -16.055200
C -13.287500 -12.504700 -17.435500
C -13.230000 -10.551300 -15.909500
H -13.122100 -13.972600 -18.886500
C -12.881700 -11.150900 -17.144900
C -12.875900 -13.078100 -18.683800
H -12.817500 -8.998600 -14.629000
C -12.771000 -9.148900 -15.596300
C -12.141900 -12.371400 -19.584100
C -12.128500 -10.448500 -18.131900
H -11.875000 -12.776900 -20.400900
H -11.868500 -9.550300 -17.964800
H -11.847200 -9.032100 -15.901100
C -11.774600 -11.035500 -19.306700
H -11.275100 -10.542000 -19.947000
50
Fragment
N -21.932500 -19.948400 -6.580000
N -21.676000 -16.759400 -3.816500
C -21.542400 -18.880300 -6.437000
C -21.394100 -17.053300 -4.890600
C -21.068300 -17.546600 -6.198100
C -20.331100 -16.866900 -7.136700
H -20.301900 -18.337700 -8.615000
F -20.156200 -14.947500 -5.761400
C -19.995700 -17.463500 -8.404400
C -19.831000 -15.527600 -6.922300
C -19.249500 -16.782300 -9.286700
C -19.084800 -14.846400 -7.804700
F -18.924300 -17.362400 -10.447600
H -18.778600 -13.972100 -7.594000
C -18.749400 -15.443000 -9.072400
C -18.012200 -14.763200 -10.011000
C -17.686400 -15.256500 -11.318500
C -17.538100 -13.429500 -9.772000
N -17.404500 -15.550500 -12.392600
N -17.148000 -12.361500 -9.629100
H -16.013800 -13.238600 -12.471200
C -15.514300 -12.745100 -13.111400
H -15.441700 -14.748500 -16.517100
H -15.420400 -14.230300 -14.453300
H -15.413800 -11.003700 -12.017200
C -15.160300 -13.332100 -14.286300
C -15.146900 -11.409200 -12.834000
C -14.517800 -14.631700 -16.821900
H -14.471300 -14.782000 -17.789100
C -14.413000 -10.702500 -13.734400
C -14.407100 -12.629700 -15.273200
H -14.166700 -9.808000 -13.531700
C -14.058800 -13.229300 -16.508700
C -14.001400 -11.275900 -14.982600
H -13.938300 -15.275000 -16.363000
H -13.350500 -8.505600 -16.055200
C -13.287500 -12.504700 -17.435500
C -13.230000 -10.551300 -15.909500
H -13.122100 -13.972600 -18.886500
C -12.881700 -11.150900 -17.144900
C -12.875900 -13.078100 -18.683800
H -12.817500 -8.998600 -14.629000
C -12.771000 -9.148900 -15.596300
C -12.141900 -12.371400 -19.584100
C -12.128500 -10.448500 -18.131900
H -11.875000 -12.776900 -20.400900
H -11.868500 -9.550300 -17.964800
H -11.847200 -9.032100 -15.901100
C -11.774600 -11.035500 -19.306700
H -11.275100 -10.542000 -19.947000
