20
Fragment
N -21.932500 -19.948400 -6.580000
N -21.676000 -16.759400 -3.816500
C -21.542400 -18.880300 -6.437000
C -21.394100 -17.053300 -4.890600
C -21.068300 -17.546600 -6.198100
C -20.331100 -16.866900 -7.136700
H -20.301900 -18.337700 -8.615000
F -20.156200 -14.947500 -5.761400
C -19.995700 -17.463500 -8.404400
C -19.831000 -15.527600 -6.922300
C -19.249500 -16.782300 -9.286700
C -19.084800 -14.846400 -7.804700
F -18.924300 -17.362400 -10.447600
H -18.778600 -13.972100 -7.594000
C -18.749400 -15.443000 -9.072400
C -18.012200 -14.763200 -10.011000
C -17.686400 -15.256500 -11.318500
C -17.538100 -13.429500 -9.772000
N -17.404500 -15.550500 -12.392600
N -17.148000 -12.361500 -9.629100
30
Fragment
H -19.922900 -21.406500 -12.471200
C -19.423400 -20.912900 -13.111400
H -19.350800 -22.916400 -16.517100
H -19.329500 -22.398100 -14.453300
H -19.323000 -19.171500 -12.017200
C -19.069500 -21.499900 -14.286300
C -19.056100 -19.577000 -12.834000
C -18.427000 -22.799500 -16.821900
H -18.380500 -22.949800 -17.789100
C -18.322100 -18.870400 -13.734400
C -18.316300 -20.797600 -15.273200
H -18.075900 -17.975800 -13.531700
C -17.968000 -21.397100 -16.508700
C -17.910500 -19.443800 -14.982600
H -17.847400 -23.442800 -16.363000
H -17.259700 -16.673400 -16.055200
C -17.196600 -20.672500 -17.435500
C -17.139100 -18.719100 -15.909500
H -17.031300 -22.140400 -18.886500
C -16.790900 -19.318700 -17.144900
C -16.785000 -21.245900 -18.683800
H -16.726700 -17.166400 -14.629000
C -16.680200 -17.316700 -15.596300
C -16.051100 -20.539300 -19.584100
C -16.037700 -18.616300 -18.131900
H -15.784200 -20.944700 -20.400900
H -15.777600 -17.718100 -17.964800
H -15.756300 -17.199900 -15.901100
C -15.683700 -19.203300 -19.306700
H -15.184200 -18.709800 -19.947000
50
Fragment
N -21.932500 -19.948400 -6.580000
N -21.676000 -16.759400 -3.816500
C -21.542400 -18.880300 -6.437000
C -21.394100 -17.053300 -4.890600
C -21.068300 -17.546600 -6.198100
C -20.331100 -16.866900 -7.136700
H -20.301900 -18.337700 -8.615000
F -20.156200 -14.947500 -5.761400
C -19.995700 -17.463500 -8.404400
C -19.831000 -15.527600 -6.922300
C -19.249500 -16.782300 -9.286700
C -19.084800 -14.846400 -7.804700
F -18.924300 -17.362400 -10.447600
H -18.778600 -13.972100 -7.594000
C -18.749400 -15.443000 -9.072400
C -18.012200 -14.763200 -10.011000
C -17.686400 -15.256500 -11.318500
C -17.538100 -13.429500 -9.772000
N -17.404500 -15.550500 -12.392600
N -17.148000 -12.361500 -9.629100
H -19.922900 -21.406500 -12.471200
C -19.423400 -20.912900 -13.111400
H -19.350800 -22.916400 -16.517100
H -19.329500 -22.398100 -14.453300
H -19.323000 -19.171500 -12.017200
C -19.069500 -21.499900 -14.286300
C -19.056100 -19.577000 -12.834000
C -18.427000 -22.799500 -16.821900
H -18.380500 -22.949800 -17.789100
C -18.322100 -18.870400 -13.734400
C -18.316300 -20.797600 -15.273200
H -18.075900 -17.975800 -13.531700
C -17.968000 -21.397100 -16.508700
C -17.910500 -19.443800 -14.982600
H -17.847400 -23.442800 -16.363000
H -17.259700 -16.673400 -16.055200
C -17.196600 -20.672500 -17.435500
C -17.139100 -18.719100 -15.909500
H -17.031300 -22.140400 -18.886500
C -16.790900 -19.318700 -17.144900
C -16.785000 -21.245900 -18.683800
H -16.726700 -17.166400 -14.629000
C -16.680200 -17.316700 -15.596300
C -16.051100 -20.539300 -19.584100
C -16.037700 -18.616300 -18.131900
H -15.784200 -20.944700 -20.400900
H -15.777600 -17.718100 -17.964800
H -15.756300 -17.199900 -15.901100
C -15.683700 -19.203300 -19.306700
H -15.184200 -18.709800 -19.947000
