20
Fragment
N -21.932500 -19.948400 -6.580000
N -21.676000 -16.759400 -3.816500
C -21.542400 -18.880300 -6.437000
C -21.394100 -17.053300 -4.890600
C -21.068300 -17.546600 -6.198100
C -20.331100 -16.866900 -7.136700
H -20.301900 -18.337700 -8.615000
F -20.156200 -14.947500 -5.761400
C -19.995700 -17.463500 -8.404400
C -19.831000 -15.527600 -6.922300
C -19.249500 -16.782300 -9.286700
C -19.084800 -14.846400 -7.804700
F -18.924300 -17.362400 -10.447600
H -18.778600 -13.972100 -7.594000
C -18.749400 -15.443000 -9.072400
C -18.012200 -14.763200 -10.011000
C -17.686400 -15.256500 -11.318500
C -17.538100 -13.429500 -9.772000
N -17.404500 -15.550500 -12.392600
N -17.148000 -12.361500 -9.629100
20
Fragment
N -19.952400 -15.683700 -14.684500
N -19.696000 -12.494700 -11.921000
C -19.562400 -14.615700 -14.541600
C -19.414100 -12.788700 -12.995100
C -19.088300 -13.282000 -14.302600
C -18.351000 -12.602200 -15.241200
H -18.321900 -14.073100 -16.719600
F -18.176200 -10.682900 -13.866000
C -18.015700 -13.198900 -16.508900
C -17.851000 -11.263000 -15.026900
C -17.269500 -12.517700 -17.391300
C -17.104700 -10.581700 -15.909200
F -16.944300 -13.097700 -18.552200
H -16.798600 -9.707500 -15.698600
C -16.769400 -11.178400 -17.176900
C -16.032100 -10.498600 -18.115500
C -15.706400 -10.991900 -19.423000
C -15.558100 -9.164900 -17.876600
N -15.424400 -11.285900 -20.497100
N -15.168000 -8.096900 -17.733600
40
Fragment
N -21.932500 -19.948400 -6.580000
N -21.676000 -16.759400 -3.816500
C -21.542400 -18.880300 -6.437000
C -21.394100 -17.053300 -4.890600
C -21.068300 -17.546600 -6.198100
C -20.331100 -16.866900 -7.136700
H -20.301900 -18.337700 -8.615000
F -20.156200 -14.947500 -5.761400
C -19.995700 -17.463500 -8.404400
C -19.831000 -15.527600 -6.922300
C -19.249500 -16.782300 -9.286700
C -19.084800 -14.846400 -7.804700
F -18.924300 -17.362400 -10.447600
H -18.778600 -13.972100 -7.594000
C -18.749400 -15.443000 -9.072400
C -18.012200 -14.763200 -10.011000
C -17.686400 -15.256500 -11.318500
C -17.538100 -13.429500 -9.772000
N -17.404500 -15.550500 -12.392600
N -17.148000 -12.361500 -9.629100
N -19.952400 -15.683700 -14.684500
N -19.696000 -12.494700 -11.921000
C -19.562400 -14.615700 -14.541600
C -19.414100 -12.788700 -12.995100
C -19.088300 -13.282000 -14.302600
C -18.351000 -12.602200 -15.241200
H -18.321900 -14.073100 -16.719600
F -18.176200 -10.682900 -13.866000
C -18.015700 -13.198900 -16.508900
C -17.851000 -11.263000 -15.026900
C -17.269500 -12.517700 -17.391300
C -17.104700 -10.581700 -15.909200
F -16.944300 -13.097700 -18.552200
H -16.798600 -9.707500 -15.698600
C -16.769400 -11.178400 -17.176900
C -16.032100 -10.498600 -18.115500
C -15.706400 -10.991900 -19.423000
C -15.558100 -9.164900 -17.876600
N -15.424400 -11.285900 -20.497100
N -15.168000 -8.096900 -17.733600
