20
Fragment
N -21.932500 -19.948400 -6.580000
N -21.676000 -16.759400 -3.816500
C -21.542400 -18.880300 -6.437000
C -21.394100 -17.053300 -4.890600
C -21.068300 -17.546600 -6.198100
C -20.331100 -16.866900 -7.136700
H -20.301900 -18.337700 -8.615000
F -20.156200 -14.947500 -5.761400
C -19.995700 -17.463500 -8.404400
C -19.831000 -15.527600 -6.922300
C -19.249500 -16.782300 -9.286700
C -19.084800 -14.846400 -7.804700
F -18.924300 -17.362400 -10.447600
H -18.778600 -13.972100 -7.594000
C -18.749400 -15.443000 -9.072400
C -18.012200 -14.763200 -10.011000
C -17.686400 -15.256500 -11.318500
C -17.538100 -13.429500 -9.772000
N -17.404500 -15.550500 -12.392600
N -17.148000 -12.361500 -9.629100
30
Fragment
H -23.896300 -13.600100 3.737900
C -23.396800 -13.106500 3.097600
H -23.324200 -15.110000 -0.308000
H -23.302900 -14.591800 1.755800
H -23.296300 -11.365100 4.191800
C -23.042900 -13.693600 1.922800
C -23.029400 -11.770600 3.375100
C -22.400300 -14.993100 -0.612800
H -22.353900 -15.143400 -1.580100
C -22.295500 -11.064000 2.474700
C -22.289600 -12.991200 0.935800
H -22.049200 -10.169400 2.677400
C -21.941400 -13.590700 -0.299600
C -21.883900 -11.637400 1.226500
H -21.820800 -15.636400 -0.153900
H -21.233100 -8.867000 0.153900
C -21.170000 -12.866100 -1.226500
C -21.112500 -10.912700 0.299600
H -21.004600 -14.334000 -2.677400
C -20.764200 -11.512300 -0.935800
C -20.758400 -13.439500 -2.474700
H -20.700000 -9.360000 1.580100
C -20.653600 -9.510300 0.612800
C -20.024400 -12.732900 -3.375100
C -20.011000 -10.809900 -1.922800
H -19.757600 -13.138300 -4.191800
H -19.751000 -9.911700 -1.755800
H -19.729700 -9.393500 0.308000
C -19.657100 -11.397000 -3.097600
H -19.157600 -10.903400 -3.737900
50
Fragment
N -21.932500 -19.948400 -6.580000
N -21.676000 -16.759400 -3.816500
C -21.542400 -18.880300 -6.437000
C -21.394100 -17.053300 -4.890600
C -21.068300 -17.546600 -6.198100
C -20.331100 -16.866900 -7.136700
H -20.301900 -18.337700 -8.615000
F -20.156200 -14.947500 -5.761400
C -19.995700 -17.463500 -8.404400
C -19.831000 -15.527600 -6.922300
C -19.249500 -16.782300 -9.286700
C -19.084800 -14.846400 -7.804700
F -18.924300 -17.362400 -10.447600
H -18.778600 -13.972100 -7.594000
C -18.749400 -15.443000 -9.072400
C -18.012200 -14.763200 -10.011000
C -17.686400 -15.256500 -11.318500
C -17.538100 -13.429500 -9.772000
N -17.404500 -15.550500 -12.392600
N -17.148000 -12.361500 -9.629100
H -23.896300 -13.600100 3.737900
C -23.396800 -13.106500 3.097600
H -23.324200 -15.110000 -0.308000
H -23.302900 -14.591800 1.755800
H -23.296300 -11.365100 4.191800
C -23.042900 -13.693600 1.922800
C -23.029400 -11.770600 3.375100
C -22.400300 -14.993100 -0.612800
H -22.353900 -15.143400 -1.580100
C -22.295500 -11.064000 2.474700
C -22.289600 -12.991200 0.935800
H -22.049200 -10.169400 2.677400
C -21.941400 -13.590700 -0.299600
C -21.883900 -11.637400 1.226500
H -21.820800 -15.636400 -0.153900
H -21.233100 -8.867000 0.153900
C -21.170000 -12.866100 -1.226500
C -21.112500 -10.912700 0.299600
H -21.004600 -14.334000 -2.677400
C -20.764200 -11.512300 -0.935800
C -20.758400 -13.439500 -2.474700
H -20.700000 -9.360000 1.580100
C -20.653600 -9.510300 0.612800
C -20.024400 -12.732900 -3.375100
C -20.011000 -10.809900 -1.922800
H -19.757600 -13.138300 -4.191800
H -19.751000 -9.911700 -1.755800
H -19.729700 -9.393500 0.308000
C -19.657100 -11.397000 -3.097600
H -19.157600 -10.903400 -3.737900
