20
Fragment
N -21.932500 -19.948400 -6.580000
N -21.676000 -16.759400 -3.816500
C -21.542400 -18.880300 -6.437000
C -21.394100 -17.053300 -4.890600
C -21.068300 -17.546600 -6.198100
C -20.331100 -16.866900 -7.136700
H -20.301900 -18.337700 -8.615000
F -20.156200 -14.947500 -5.761400
C -19.995700 -17.463500 -8.404400
C -19.831000 -15.527600 -6.922300
C -19.249500 -16.782300 -9.286700
C -19.084800 -14.846400 -7.804700
F -18.924300 -17.362400 -10.447600
H -18.778600 -13.972100 -7.594000
C -18.749400 -15.443000 -9.072400
C -18.012200 -14.763200 -10.011000
C -17.686400 -15.256500 -11.318500
C -17.538100 -13.429500 -9.772000
N -17.404500 -15.550500 -12.392600
N -17.148000 -12.361500 -9.629100
30
Fragment
H -17.993800 -17.503300 -4.366600
C -17.494300 -17.009700 -5.006900
H -17.421700 -19.013200 -8.412500
H -17.400400 -18.495000 -6.348800
H -17.393800 -15.268300 -3.912700
C -17.140400 -17.596700 -6.181700
C -17.127000 -15.673800 -4.729500
C -16.497800 -18.896300 -8.717300
H -16.451400 -19.046600 -9.684600
C -16.393000 -14.967200 -5.629800
C -16.387200 -16.894400 -7.168700
H -16.146800 -14.072600 -5.427100
C -16.038900 -17.493900 -8.404200
C -15.981400 -15.540600 -6.878100
H -15.918300 -19.539600 -8.258400
H -15.330600 -12.770200 -7.950600
C -15.267500 -16.769300 -9.331000
C -15.210000 -14.815900 -7.804900
H -15.102200 -18.237200 -10.782000
C -14.861800 -15.415500 -9.040400
C -14.855900 -17.342700 -10.579300
H -14.797500 -13.263200 -6.524500
C -14.751100 -13.413500 -7.491800
C -14.122000 -16.636100 -11.479600
C -14.108500 -14.713100 -10.027300
H -13.855100 -17.041500 -12.296400
H -13.848500 -13.814900 -9.860300
H -13.827200 -13.296700 -7.796600
C -13.754600 -15.300200 -11.202200
H -13.255100 -14.806600 -11.842400
50
Fragment
N -21.932500 -19.948400 -6.580000
N -21.676000 -16.759400 -3.816500
C -21.542400 -18.880300 -6.437000
C -21.394100 -17.053300 -4.890600
C -21.068300 -17.546600 -6.198100
C -20.331100 -16.866900 -7.136700
H -20.301900 -18.337700 -8.615000
F -20.156200 -14.947500 -5.761400
C -19.995700 -17.463500 -8.404400
C -19.831000 -15.527600 -6.922300
C -19.249500 -16.782300 -9.286700
C -19.084800 -14.846400 -7.804700
F -18.924300 -17.362400 -10.447600
H -18.778600 -13.972100 -7.594000
C -18.749400 -15.443000 -9.072400
C -18.012200 -14.763200 -10.011000
C -17.686400 -15.256500 -11.318500
C -17.538100 -13.429500 -9.772000
N -17.404500 -15.550500 -12.392600
N -17.148000 -12.361500 -9.629100
H -17.993800 -17.503300 -4.366600
C -17.494300 -17.009700 -5.006900
H -17.421700 -19.013200 -8.412500
H -17.400400 -18.495000 -6.348800
H -17.393800 -15.268300 -3.912700
C -17.140400 -17.596700 -6.181700
C -17.127000 -15.673800 -4.729500
C -16.497800 -18.896300 -8.717300
H -16.451400 -19.046600 -9.684600
C -16.393000 -14.967200 -5.629800
C -16.387200 -16.894400 -7.168700
H -16.146800 -14.072600 -5.427100
C -16.038900 -17.493900 -8.404200
C -15.981400 -15.540600 -6.878100
H -15.918300 -19.539600 -8.258400
H -15.330600 -12.770200 -7.950600
C -15.267500 -16.769300 -9.331000
C -15.210000 -14.815900 -7.804900
H -15.102200 -18.237200 -10.782000
C -14.861800 -15.415500 -9.040400
C -14.855900 -17.342700 -10.579300
H -14.797500 -13.263200 -6.524500
C -14.751100 -13.413500 -7.491800
C -14.122000 -16.636100 -11.479600
C -14.108500 -14.713100 -10.027300
H -13.855100 -17.041500 -12.296400
H -13.848500 -13.814900 -9.860300
H -13.827200 -13.296700 -7.796600
C -13.754600 -15.300200 -11.202200
H -13.255100 -14.806600 -11.842400
