21
Fragment
O -17.864400 -14.487000 -12.360800
H -17.817600 -14.800700 -15.769600
H -17.805200 -12.147500 -15.821700
N -17.730000 -13.430200 -12.927200
O -17.705500 -12.346900 -12.385500
N -17.686600 -13.443100 -14.310600
H -17.483300 -15.429000 -14.369800
H -17.481700 -11.464500 -14.446300
C -17.297700 -14.681700 -14.959600
C -17.289400 -12.233700 -15.004900
N -15.873900 -14.664100 -15.291800
N -15.864600 -12.251000 -15.331400
H -15.762400 -13.487100 -16.902500
O -15.455800 -16.062200 -13.611400
O -15.445900 -10.759900 -13.747200
C -15.419900 -13.473000 -15.995000
N -14.991800 -15.271200 -14.402100
N -14.990200 -11.644100 -14.436100
H -14.451200 -13.477800 -16.040900
O -13.827700 -11.954200 -14.506000
O -13.813900 -15.060300 -14.560100
21
Fragment
O -16.991500 -17.037000 -17.368100
O -16.977800 -20.143100 -17.422100
H -16.354300 -18.619400 -15.887200
N -15.815300 -20.453200 -17.492100
N -15.813600 -16.826000 -17.526100
C -15.385500 -18.624300 -15.933200
O -15.359600 -21.337400 -18.181000
O -15.349700 -16.035100 -18.316800
H -15.043100 -18.610100 -15.025700
N -14.940900 -19.846200 -16.596800
N -14.931500 -17.433200 -16.636400
C -13.516000 -19.863600 -16.923300
C -13.507800 -17.415500 -16.968500
H -13.323800 -20.632800 -17.481800
H -13.322100 -16.668300 -17.558400
N -13.118800 -18.654100 -17.617500
O -13.100000 -19.750400 -19.542700
N -13.075400 -18.667100 -19.001000
H -13.000200 -19.949800 -16.106500
H -12.987800 -17.296500 -16.158500
O -12.941000 -17.610300 -19.567400
42
Fragment
O -17.864400 -14.487000 -12.360800
H -17.817600 -14.800700 -15.769600
H -17.805200 -12.147500 -15.821700
N -17.730000 -13.430200 -12.927200
O -17.705500 -12.346900 -12.385500
N -17.686600 -13.443100 -14.310600
H -17.483300 -15.429000 -14.369800
H -17.481700 -11.464500 -14.446300
C -17.297700 -14.681700 -14.959600
C -17.289400 -12.233700 -15.004900
N -15.873900 -14.664100 -15.291800
N -15.864600 -12.251000 -15.331400
H -15.762400 -13.487100 -16.902500
O -15.455800 -16.062200 -13.611400
O -15.445900 -10.759900 -13.747200
C -15.419900 -13.473000 -15.995000
N -14.991800 -15.271200 -14.402100
N -14.990200 -11.644100 -14.436100
H -14.451200 -13.477800 -16.040900
O -13.827700 -11.954200 -14.506000
O -13.813900 -15.060300 -14.560100
O -16.991500 -17.037000 -17.368100
O -16.977800 -20.143100 -17.422100
H -16.354300 -18.619400 -15.887200
N -15.815300 -20.453200 -17.492100
N -15.813600 -16.826000 -17.526100
C -15.385500 -18.624300 -15.933200
O -15.359600 -21.337400 -18.181000
O -15.349700 -16.035100 -18.316800
H -15.043100 -18.610100 -15.025700
N -14.940900 -19.846200 -16.596800
N -14.931500 -17.433200 -16.636400
C -13.516000 -19.863600 -16.923300
C -13.507800 -17.415500 -16.968500
H -13.323800 -20.632800 -17.481800
H -13.322100 -16.668300 -17.558400
N -13.118800 -18.654100 -17.617500
O -13.100000 -19.750400 -19.542700
N -13.075400 -18.667100 -19.001000
H -13.000200 -19.949800 -16.106500
H -12.987800 -17.296500 -16.158500
O -12.941000 -17.610300 -19.567400
