21
Fragment
O -17.864400 -14.487000 -12.360800
H -17.817600 -14.800700 -15.769600
H -17.805200 -12.147500 -15.821700
N -17.730000 -13.430200 -12.927200
O -17.705500 -12.346900 -12.385500
N -17.686600 -13.443100 -14.310600
H -17.483300 -15.429000 -14.369800
H -17.481700 -11.464500 -14.446300
C -17.297700 -14.681700 -14.959600
C -17.289400 -12.233700 -15.004900
N -15.873900 -14.664100 -15.291800
N -15.864600 -12.251000 -15.331400
H -15.762400 -13.487100 -16.902500
O -15.455800 -16.062200 -13.611400
O -15.445900 -10.759900 -13.747200
C -15.419900 -13.473000 -15.995000
N -14.991800 -15.271200 -14.402100
N -14.990200 -11.644100 -14.436100
H -14.451200 -13.477800 -16.040900
O -13.827700 -11.954200 -14.506000
O -13.813900 -15.060300 -14.560100
18
Fragment
H -17.241200 -14.487500 -9.092700
H -16.822900 -13.159500 -9.811400
C -16.497500 -13.886900 -9.259200
O -16.408500 -13.736700 -6.874200
C -16.023900 -13.331400 -7.955200
H -15.837900 -15.255400 -10.645200
C -15.412900 -14.643600 -10.024400
H -15.303900 -11.554400 -9.724900
O -15.095800 -12.378400 -7.935500
H -14.989600 -13.246600 -11.436200
H -14.897800 -15.172200 -9.395300
C -14.566400 -11.827900 -9.157000
C -14.479000 -13.753900 -10.786400
H -14.045300 -11.037600 -8.947100
H -13.847700 -14.306600 -11.273100
C -13.708200 -12.788500 -9.907300
H -13.182700 -13.298600 -9.271500
H -13.091700 -12.286800 -10.462900
39
Fragment
O -17.864400 -14.487000 -12.360800
H -17.817600 -14.800700 -15.769600
H -17.805200 -12.147500 -15.821700
N -17.730000 -13.430200 -12.927200
O -17.705500 -12.346900 -12.385500
N -17.686600 -13.443100 -14.310600
H -17.483300 -15.429000 -14.369800
H -17.481700 -11.464500 -14.446300
C -17.297700 -14.681700 -14.959600
C -17.289400 -12.233700 -15.004900
N -15.873900 -14.664100 -15.291800
N -15.864600 -12.251000 -15.331400
H -15.762400 -13.487100 -16.902500
O -15.455800 -16.062200 -13.611400
O -15.445900 -10.759900 -13.747200
C -15.419900 -13.473000 -15.995000
N -14.991800 -15.271200 -14.402100
N -14.990200 -11.644100 -14.436100
H -14.451200 -13.477800 -16.040900
O -13.827700 -11.954200 -14.506000
O -13.813900 -15.060300 -14.560100
H -17.241200 -14.487500 -9.092700
H -16.822900 -13.159500 -9.811400
C -16.497500 -13.886900 -9.259200
O -16.408500 -13.736700 -6.874200
C -16.023900 -13.331400 -7.955200
H -15.837900 -15.255400 -10.645200
C -15.412900 -14.643600 -10.024400
H -15.303900 -11.554400 -9.724900
O -15.095800 -12.378400 -7.935500
H -14.989600 -13.246600 -11.436200
H -14.897800 -15.172200 -9.395300
C -14.566400 -11.827900 -9.157000
C -14.479000 -13.753900 -10.786400
H -14.045300 -11.037600 -8.947100
H -13.847700 -14.306600 -11.273100
C -13.708200 -12.788500 -9.907300
H -13.182700 -13.298600 -9.271500
H -13.091700 -12.286800 -10.462900
