21
Fragment
Cl -15.447800 -7.816200 -25.751400
H -14.699300 -9.153000 -28.080100
C -14.012100 -7.831800 -26.731500
C -13.967200 -8.627600 -27.850300
H -12.963700 -6.527700 -25.614700
C -12.926700 -7.064700 -26.372900
C -12.823800 -8.643100 -28.637300
H -12.799200 -9.175500 -29.399500
C -11.789600 -7.095700 -27.140300
C -11.715100 -7.873700 -28.302200
H -11.052200 -6.589700 -26.883900
H -10.872400 -10.506000 -29.681300
C -10.494100 -7.842700 -29.116200
N -10.162100 -10.171200 -30.032600
C -9.877300 -8.864700 -29.861900
H -9.810000 -5.909300 -28.906800
C -9.665100 -6.744600 -29.289300
H -9.633800 -10.670200 -30.493400
N -8.765500 -8.355600 -30.415300
N -8.635600 -7.047600 -30.073800
H -8.216500 -8.793500 -30.913000
21
Fragment
H -23.686900 -4.919000 -21.276700
N -23.267800 -3.173200 -22.115900
N -23.138000 -4.481200 -21.774400
H -22.269600 -6.795800 -21.696300
C -22.238300 -2.870200 -22.900400
H -22.093400 -2.034900 -23.282800
C -22.026100 -4.990300 -22.327800
N -21.741300 -6.296800 -22.157000
C -21.409300 -3.968200 -23.073500
H -21.031000 -6.631500 -22.508400
H -20.851200 -2.715200 -25.305700
C -20.188300 -3.999200 -23.887400
C -20.113800 -3.221200 -25.049400
H -19.104200 -5.301000 -22.790200
C -19.079600 -4.768700 -23.552400
C -18.976700 -3.190200 -25.816800
H -18.939700 -2.653200 -26.575000
C -17.936200 -4.753200 -24.339400
C -17.891300 -3.957400 -25.458100
H -17.204100 -5.278600 -24.109500
Cl -16.455600 -3.941700 -26.438200
42
Fragment
Cl -15.447800 -7.816200 -25.751400
H -14.699300 -9.153000 -28.080100
C -14.012100 -7.831800 -26.731500
C -13.967200 -8.627600 -27.850300
H -12.963700 -6.527700 -25.614700
C -12.926700 -7.064700 -26.372900
C -12.823800 -8.643100 -28.637300
H -12.799200 -9.175500 -29.399500
C -11.789600 -7.095700 -27.140300
C -11.715100 -7.873700 -28.302200
H -11.052200 -6.589700 -26.883900
H -10.872400 -10.506000 -29.681300
C -10.494100 -7.842700 -29.116200
N -10.162100 -10.171200 -30.032600
C -9.877300 -8.864700 -29.861900
H -9.810000 -5.909300 -28.906800
C -9.665100 -6.744600 -29.289300
H -9.633800 -10.670200 -30.493400
N -8.765500 -8.355600 -30.415300
N -8.635600 -7.047600 -30.073800
H -8.216500 -8.793500 -30.913000
H -23.686900 -4.919000 -21.276700
N -23.267800 -3.173200 -22.115900
N -23.138000 -4.481200 -21.774400
H -22.269600 -6.795800 -21.696300
C -22.238300 -2.870200 -22.900400
H -22.093400 -2.034900 -23.282800
C -22.026100 -4.990300 -22.327800
N -21.741300 -6.296800 -22.157000
C -21.409300 -3.968200 -23.073500
H -21.031000 -6.631500 -22.508400
H -20.851200 -2.715200 -25.305700
C -20.188300 -3.999200 -23.887400
C -20.113800 -3.221200 -25.049400
H -19.104200 -5.301000 -22.790200
C -19.079600 -4.768700 -23.552400
C -18.976700 -3.190200 -25.816800
H -18.939700 -2.653200 -26.575000
C -17.936200 -4.753200 -24.339400
C -17.891300 -3.957400 -25.458100
H -17.204100 -5.278600 -24.109500
Cl -16.455600 -3.941700 -26.438200
