21
Fragment
Cl -15.447800 -7.816200 -25.751400
H -14.699300 -9.153000 -28.080100
C -14.012100 -7.831800 -26.731500
C -13.967200 -8.627600 -27.850300
H -12.963700 -6.527700 -25.614700
C -12.926700 -7.064700 -26.372900
C -12.823800 -8.643100 -28.637300
H -12.799200 -9.175500 -29.399500
C -11.789600 -7.095700 -27.140300
C -11.715100 -7.873700 -28.302200
H -11.052200 -6.589700 -26.883900
H -10.872400 -10.506000 -29.681300
C -10.494100 -7.842700 -29.116200
N -10.162100 -10.171200 -30.032600
C -9.877300 -8.864700 -29.861900
H -9.810000 -5.909300 -28.906800
C -9.665100 -6.744600 -29.289300
H -9.633800 -10.670200 -30.493400
N -8.765500 -8.355600 -30.415300
N -8.635600 -7.047600 -30.073800
H -8.216500 -8.793500 -30.913000
21
Fragment
H -12.447100 -14.453200 -31.714600
N -12.027900 -16.199100 -32.553800
N -11.898100 -14.891100 -32.212300
H -11.029800 -12.576500 -32.134200
C -10.998400 -16.502100 -33.338300
H -10.853600 -17.337400 -33.720800
C -10.786200 -14.382000 -32.765700
N -10.501400 -13.075500 -32.594900
C -10.169400 -15.404000 -33.511400
H -9.791100 -12.740700 -32.946300
H -9.611400 -16.657000 -35.743700
C -8.948400 -15.373000 -34.325300
C -8.873900 -16.151000 -35.487300
H -7.864400 -14.071200 -33.228100
C -7.839700 -14.603600 -33.990300
C -7.736900 -16.182000 -36.254700
H -7.699800 -16.719000 -37.012900
C -6.696300 -14.619100 -34.777300
C -6.651500 -15.414900 -35.896000
H -5.964200 -14.093700 -34.547500
Cl -5.215700 -15.430500 -36.876200
42
Fragment
Cl -15.447800 -7.816200 -25.751400
H -14.699300 -9.153000 -28.080100
C -14.012100 -7.831800 -26.731500
C -13.967200 -8.627600 -27.850300
H -12.963700 -6.527700 -25.614700
C -12.926700 -7.064700 -26.372900
C -12.823800 -8.643100 -28.637300
H -12.799200 -9.175500 -29.399500
C -11.789600 -7.095700 -27.140300
C -11.715100 -7.873700 -28.302200
H -11.052200 -6.589700 -26.883900
H -10.872400 -10.506000 -29.681300
C -10.494100 -7.842700 -29.116200
N -10.162100 -10.171200 -30.032600
C -9.877300 -8.864700 -29.861900
H -9.810000 -5.909300 -28.906800
C -9.665100 -6.744600 -29.289300
H -9.633800 -10.670200 -30.493400
N -8.765500 -8.355600 -30.415300
N -8.635600 -7.047600 -30.073800
H -8.216500 -8.793500 -30.913000
H -12.447100 -14.453200 -31.714600
N -12.027900 -16.199100 -32.553800
N -11.898100 -14.891100 -32.212300
H -11.029800 -12.576500 -32.134200
C -10.998400 -16.502100 -33.338300
H -10.853600 -17.337400 -33.720800
C -10.786200 -14.382000 -32.765700
N -10.501400 -13.075500 -32.594900
C -10.169400 -15.404000 -33.511400
H -9.791100 -12.740700 -32.946300
H -9.611400 -16.657000 -35.743700
C -8.948400 -15.373000 -34.325300
C -8.873900 -16.151000 -35.487300
H -7.864400 -14.071200 -33.228100
C -7.839700 -14.603600 -33.990300
C -7.736900 -16.182000 -36.254700
H -7.699800 -16.719000 -37.012900
C -6.696300 -14.619100 -34.777300
C -6.651500 -15.414900 -35.896000
H -5.964200 -14.093700 -34.547500
Cl -5.215700 -15.430500 -36.876200
