21
Fragment
Cl -15.447800 -7.816200 -25.751400
H -14.699300 -9.153000 -28.080100
C -14.012100 -7.831800 -26.731500
C -13.967200 -8.627600 -27.850300
H -12.963700 -6.527700 -25.614700
C -12.926700 -7.064700 -26.372900
C -12.823800 -8.643100 -28.637300
H -12.799200 -9.175500 -29.399500
C -11.789600 -7.095700 -27.140300
C -11.715100 -7.873700 -28.302200
H -11.052200 -6.589700 -26.883900
H -10.872400 -10.506000 -29.681300
C -10.494100 -7.842700 -29.116200
N -10.162100 -10.171200 -30.032600
C -9.877300 -8.864700 -29.861900
H -9.810000 -5.909300 -28.906800
C -9.665100 -6.744600 -29.289300
H -9.633800 -10.670200 -30.493400
N -8.765500 -8.355600 -30.415300
N -8.635600 -7.047600 -30.073800
H -8.216500 -8.793500 -30.913000
8
Fragment
H -14.858000 -11.732600 -29.288800
H -14.438500 -13.888400 -30.449500
H -14.352300 -12.924400 -28.405800
C -14.080600 -12.181300 -28.948400
O -13.723000 -13.652000 -30.771900
H -13.565700 -11.569100 -28.418300
C -13.248200 -12.674900 -30.090300
O -12.170700 -12.157200 -30.344700
29
Fragment
Cl -15.447800 -7.816200 -25.751400
H -14.699300 -9.153000 -28.080100
C -14.012100 -7.831800 -26.731500
C -13.967200 -8.627600 -27.850300
H -12.963700 -6.527700 -25.614700
C -12.926700 -7.064700 -26.372900
C -12.823800 -8.643100 -28.637300
H -12.799200 -9.175500 -29.399500
C -11.789600 -7.095700 -27.140300
C -11.715100 -7.873700 -28.302200
H -11.052200 -6.589700 -26.883900
H -10.872400 -10.506000 -29.681300
C -10.494100 -7.842700 -29.116200
N -10.162100 -10.171200 -30.032600
C -9.877300 -8.864700 -29.861900
H -9.810000 -5.909300 -28.906800
C -9.665100 -6.744600 -29.289300
H -9.633800 -10.670200 -30.493400
N -8.765500 -8.355600 -30.415300
N -8.635600 -7.047600 -30.073800
H -8.216500 -8.793500 -30.913000
H -14.858000 -11.732600 -29.288800
H -14.438500 -13.888400 -30.449500
H -14.352300 -12.924400 -28.405800
C -14.080600 -12.181300 -28.948400
O -13.723000 -13.652000 -30.771900
H -13.565700 -11.569100 -28.418300
C -13.248200 -12.674900 -30.090300
O -12.170700 -12.157200 -30.344700
