21
Fragment
Cl -15.447800 -7.816200 -25.751400
H -14.699300 -9.153000 -28.080100
C -14.012100 -7.831800 -26.731500
C -13.967200 -8.627600 -27.850300
H -12.963700 -6.527700 -25.614700
C -12.926700 -7.064700 -26.372900
C -12.823800 -8.643100 -28.637300
H -12.799200 -9.175500 -29.399500
C -11.789600 -7.095700 -27.140300
C -11.715100 -7.873700 -28.302200
H -11.052200 -6.589700 -26.883900
H -10.872400 -10.506000 -29.681300
C -10.494100 -7.842700 -29.116200
N -10.162100 -10.171200 -30.032600
C -9.877300 -8.864700 -29.861900
H -9.810000 -5.909300 -28.906800
C -9.665100 -6.744600 -29.289300
H -9.633800 -10.670200 -30.493400
N -8.765500 -8.355600 -30.415300
N -8.635600 -7.047600 -30.073800
H -8.216500 -8.793500 -30.913000
21
Fragment
Cl -8.105900 -7.816200 -25.751400
H -7.357400 -9.153000 -28.080100
C -6.670200 -7.831800 -26.731500
C -6.625300 -8.627600 -27.850300
H -5.621800 -6.527700 -25.614700
C -5.584800 -7.064700 -26.372900
C -5.481900 -8.643100 -28.637300
H -5.457300 -9.175500 -29.399500
C -4.447700 -7.095700 -27.140300
C -4.373200 -7.873700 -28.302200
H -3.710300 -6.589700 -26.883900
H -3.530500 -10.506000 -29.681300
C -3.152200 -7.842700 -29.116200
N -2.820200 -10.171200 -30.032600
C -2.535400 -8.864700 -29.861900
H -2.468100 -5.909300 -28.906800
C -2.323200 -6.744600 -29.289300
H -2.291900 -10.670200 -30.493400
N -1.423600 -8.355600 -30.415300
N -1.293700 -7.047600 -30.073800
H -0.874600 -8.793500 -30.913000
42
Fragment
Cl -15.447800 -7.816200 -25.751400
H -14.699300 -9.153000 -28.080100
C -14.012100 -7.831800 -26.731500
C -13.967200 -8.627600 -27.850300
H -12.963700 -6.527700 -25.614700
C -12.926700 -7.064700 -26.372900
C -12.823800 -8.643100 -28.637300
H -12.799200 -9.175500 -29.399500
C -11.789600 -7.095700 -27.140300
C -11.715100 -7.873700 -28.302200
H -11.052200 -6.589700 -26.883900
H -10.872400 -10.506000 -29.681300
C -10.494100 -7.842700 -29.116200
N -10.162100 -10.171200 -30.032600
C -9.877300 -8.864700 -29.861900
H -9.810000 -5.909300 -28.906800
C -9.665100 -6.744600 -29.289300
H -9.633800 -10.670200 -30.493400
N -8.765500 -8.355600 -30.415300
N -8.635600 -7.047600 -30.073800
H -8.216500 -8.793500 -30.913000
Cl -8.105900 -7.816200 -25.751400
H -7.357400 -9.153000 -28.080100
C -6.670200 -7.831800 -26.731500
C -6.625300 -8.627600 -27.850300
H -5.621800 -6.527700 -25.614700
C -5.584800 -7.064700 -26.372900
C -5.481900 -8.643100 -28.637300
H -5.457300 -9.175500 -29.399500
C -4.447700 -7.095700 -27.140300
C -4.373200 -7.873700 -28.302200
H -3.710300 -6.589700 -26.883900
H -3.530500 -10.506000 -29.681300
C -3.152200 -7.842700 -29.116200
N -2.820200 -10.171200 -30.032600
C -2.535400 -8.864700 -29.861900
H -2.468100 -5.909300 -28.906800
C -2.323200 -6.744600 -29.289300
H -2.291900 -10.670200 -30.493400
N -1.423600 -8.355600 -30.415300
N -1.293700 -7.047600 -30.073800
H -0.874600 -8.793500 -30.913000
