13
Fragment
H -16.077100 -31.969600 -17.985700
N -15.327400 -32.379800 -18.088300
H -15.318100 -33.229200 -18.226800
N -14.229600 -30.383000 -17.813000
C -14.188700 -31.704000 -18.031000
O -13.132600 -28.410500 -17.616000
C -13.101700 -29.636700 -17.759300
C -12.935300 -32.337400 -18.182800
F -12.905900 -33.675000 -18.389300
N -11.895300 -30.290500 -17.892200
C -11.806400 -31.618900 -18.100300
H -11.169800 -29.831400 -17.840600
H -10.977000 -32.030100 -18.184200
24
Fragment
H -21.597000 -27.043300 -14.392600
H -20.973300 -24.678700 -14.616300
C -20.700600 -27.385500 -14.415200
H -20.589000 -27.937600 -15.191600
H -20.536500 -27.906200 -13.625500
C -20.092200 -24.975500 -14.583000
N -19.756400 -26.272500 -14.469400
N -19.031800 -24.146000 -14.643000
C -18.384300 -26.299900 -14.456500
C -17.983100 -24.997400 -14.572400
O -17.774300 -28.580100 -14.288000
C -17.483600 -27.392900 -14.369900
H -16.684800 -22.706400 -14.208800
N -16.646900 -24.660100 -14.604600
H -16.476400 -23.022400 -15.729700
C -16.239500 -23.280800 -14.836100
N -16.141900 -26.959700 -14.370900
C -15.687700 -25.650600 -14.511100
H -15.512700 -28.854200 -14.155500
H -15.289000 -23.204000 -14.721500
C -15.100400 -27.996100 -14.272700
H -14.576300 -28.000300 -15.077100
H -14.532300 -27.807600 -13.521600
O -14.494800 -25.396800 -14.529900
37
Fragment
H -16.077100 -31.969600 -17.985700
N -15.327400 -32.379800 -18.088300
H -15.318100 -33.229200 -18.226800
N -14.229600 -30.383000 -17.813000
C -14.188700 -31.704000 -18.031000
O -13.132600 -28.410500 -17.616000
C -13.101700 -29.636700 -17.759300
C -12.935300 -32.337400 -18.182800
F -12.905900 -33.675000 -18.389300
N -11.895300 -30.290500 -17.892200
C -11.806400 -31.618900 -18.100300
H -11.169800 -29.831400 -17.840600
H -10.977000 -32.030100 -18.184200
H -21.597000 -27.043300 -14.392600
H -20.973300 -24.678700 -14.616300
C -20.700600 -27.385500 -14.415200
H -20.589000 -27.937600 -15.191600
H -20.536500 -27.906200 -13.625500
C -20.092200 -24.975500 -14.583000
N -19.756400 -26.272500 -14.469400
N -19.031800 -24.146000 -14.643000
C -18.384300 -26.299900 -14.456500
C -17.983100 -24.997400 -14.572400
O -17.774300 -28.580100 -14.288000
C -17.483600 -27.392900 -14.369900
H -16.684800 -22.706400 -14.208800
N -16.646900 -24.660100 -14.604600
H -16.476400 -23.022400 -15.729700
C -16.239500 -23.280800 -14.836100
N -16.141900 -26.959700 -14.370900
C -15.687700 -25.650600 -14.511100
H -15.512700 -28.854200 -14.155500
H -15.289000 -23.204000 -14.721500
C -15.100400 -27.996100 -14.272700
H -14.576300 -28.000300 -15.077100
H -14.532300 -27.807600 -13.521600
O -14.494800 -25.396800 -14.529900
