13
Fragment
H -16.077100 -31.969600 -17.985700
N -15.327400 -32.379800 -18.088300
H -15.318100 -33.229200 -18.226800
N -14.229600 -30.383000 -17.813000
C -14.188700 -31.704000 -18.031000
O -13.132600 -28.410500 -17.616000
C -13.101700 -29.636700 -17.759300
C -12.935300 -32.337400 -18.182800
F -12.905900 -33.675000 -18.389300
N -11.895300 -30.290500 -17.892200
C -11.806400 -31.618900 -18.100300
H -11.169800 -29.831400 -17.840600
H -10.977000 -32.030100 -18.184200
13
Fragment
H -20.656800 -27.103800 -17.820600
N -19.902400 -26.693000 -17.805400
H -19.881700 -25.833000 -17.813900
N -18.823000 -28.714800 -17.755900
C -18.769800 -27.384200 -17.768600
O -17.737400 -30.707300 -17.740900
C -17.696900 -29.469500 -17.716700
C -17.502600 -26.737300 -17.739300
F -17.460600 -25.386300 -17.761500
N -16.491300 -28.821500 -17.672800
C -16.390200 -27.465800 -17.687400
H -15.771400 -29.289000 -17.634100
H -15.556600 -27.054500 -17.660800
26
Fragment
H -16.077100 -31.969600 -17.985700
N -15.327400 -32.379800 -18.088300
H -15.318100 -33.229200 -18.226800
N -14.229600 -30.383000 -17.813000
C -14.188700 -31.704000 -18.031000
O -13.132600 -28.410500 -17.616000
C -13.101700 -29.636700 -17.759300
C -12.935300 -32.337400 -18.182800
F -12.905900 -33.675000 -18.389300
N -11.895300 -30.290500 -17.892200
C -11.806400 -31.618900 -18.100300
H -11.169800 -29.831400 -17.840600
H -10.977000 -32.030100 -18.184200
H -20.656800 -27.103800 -17.820600
N -19.902400 -26.693000 -17.805400
H -19.881700 -25.833000 -17.813900
N -18.823000 -28.714800 -17.755900
C -18.769800 -27.384200 -17.768600
O -17.737400 -30.707300 -17.740900
C -17.696900 -29.469500 -17.716700
C -17.502600 -26.737300 -17.739300
F -17.460600 -25.386300 -17.761500
N -16.491300 -28.821500 -17.672800
C -16.390200 -27.465800 -17.687400
H -15.771400 -29.289000 -17.634100
H -15.556600 -27.054500 -17.660800
