13
Fragment
H -16.077100 -31.969600 -17.985700
N -15.327400 -32.379800 -18.088300
H -15.318100 -33.229200 -18.226800
N -14.229600 -30.383000 -17.813000
C -14.188700 -31.704000 -18.031000
O -13.132600 -28.410500 -17.616000
C -13.101700 -29.636700 -17.759300
C -12.935300 -32.337400 -18.182800
F -12.905900 -33.675000 -18.389300
N -11.895300 -30.290500 -17.892200
C -11.806400 -31.618900 -18.100300
H -11.169800 -29.831400 -17.840600
H -10.977000 -32.030100 -18.184200
24
Fragment
H -12.002500 -28.988700 -21.051500
H -11.378700 -31.353300 -21.275200
C -11.106100 -28.646500 -21.074100
H -10.994500 -28.094400 -21.850600
H -10.941900 -28.125800 -20.284400
C -10.497700 -31.056500 -21.241900
N -10.161900 -29.759500 -21.128300
N -9.437300 -31.886000 -21.301900
C -8.789800 -29.732100 -21.115400
C -8.388500 -31.034600 -21.231300
O -8.179800 -27.451900 -20.946900
C -7.889000 -28.639100 -21.028800
H -7.090200 -33.325600 -20.867700
N -7.052300 -31.371900 -21.263500
H -6.881800 -33.009600 -22.388600
C -6.645000 -32.751200 -21.495000
N -6.547400 -29.072300 -21.029800
C -6.093200 -30.381400 -21.170000
H -5.918200 -27.177800 -20.814400
H -5.694400 -32.828000 -21.380400
C -5.505800 -28.035900 -20.931600
H -4.981800 -28.031700 -21.736000
H -4.937700 -28.224400 -20.180500
O -4.900200 -30.635200 -21.188800
37
Fragment
H -16.077100 -31.969600 -17.985700
N -15.327400 -32.379800 -18.088300
H -15.318100 -33.229200 -18.226800
N -14.229600 -30.383000 -17.813000
C -14.188700 -31.704000 -18.031000
O -13.132600 -28.410500 -17.616000
C -13.101700 -29.636700 -17.759300
C -12.935300 -32.337400 -18.182800
F -12.905900 -33.675000 -18.389300
N -11.895300 -30.290500 -17.892200
C -11.806400 -31.618900 -18.100300
H -11.169800 -29.831400 -17.840600
H -10.977000 -32.030100 -18.184200
H -12.002500 -28.988700 -21.051500
H -11.378700 -31.353300 -21.275200
C -11.106100 -28.646500 -21.074100
H -10.994500 -28.094400 -21.850600
H -10.941900 -28.125800 -20.284400
C -10.497700 -31.056500 -21.241900
N -10.161900 -29.759500 -21.128300
N -9.437300 -31.886000 -21.301900
C -8.789800 -29.732100 -21.115400
C -8.388500 -31.034600 -21.231300
O -8.179800 -27.451900 -20.946900
C -7.889000 -28.639100 -21.028800
H -7.090200 -33.325600 -20.867700
N -7.052300 -31.371900 -21.263500
H -6.881800 -33.009600 -22.388600
C -6.645000 -32.751200 -21.495000
N -6.547400 -29.072300 -21.029800
C -6.093200 -30.381400 -21.170000
H -5.918200 -27.177800 -20.814400
H -5.694400 -32.828000 -21.380400
C -5.505800 -28.035900 -20.931600
H -4.981800 -28.031700 -21.736000
H -4.937700 -28.224400 -20.180500
O -4.900200 -30.635200 -21.188800
