13
Fragment
H -16.077100 -31.969600 -17.985700
N -15.327400 -32.379800 -18.088300
H -15.318100 -33.229200 -18.226800
N -14.229600 -30.383000 -17.813000
C -14.188700 -31.704000 -18.031000
O -13.132600 -28.410500 -17.616000
C -13.101700 -29.636700 -17.759300
C -12.935300 -32.337400 -18.182800
F -12.905900 -33.675000 -18.389300
N -11.895300 -30.290500 -17.892200
C -11.806400 -31.618900 -18.100300
H -11.169800 -29.831400 -17.840600
H -10.977000 -32.030100 -18.184200
24
Fragment
O -11.044600 -36.603200 -18.764700
H -11.007100 -39.014000 -19.773000
H -10.963100 -39.206700 -18.217500
C -10.439000 -39.202500 -19.021900
H -10.250400 -34.410400 -18.573000
H -10.026600 -40.060600 -19.139000
C -9.851600 -36.857000 -18.783500
N -9.397400 -38.166100 -18.923700
C -9.299900 -34.487200 -18.458500
H -9.063000 -34.228800 -17.564900
N -8.892500 -35.866500 -18.690000
H -8.854600 -33.912800 -19.085800
C -8.055800 -38.599300 -18.924600
O -7.765000 -39.786500 -19.006500
C -7.556300 -36.203800 -18.722200
C -7.155000 -37.506300 -18.838100
N -6.507500 -35.352400 -18.651600
N -5.783000 -37.478900 -18.825100
C -5.447100 -36.181900 -18.711500
H -5.002900 -39.112600 -19.669100
H -4.950300 -39.144000 -18.102900
C -4.838700 -38.591900 -18.879400
H -4.566100 -35.885100 -18.678300
H -3.942300 -38.249700 -18.902000
37
Fragment
H -16.077100 -31.969600 -17.985700
N -15.327400 -32.379800 -18.088300
H -15.318100 -33.229200 -18.226800
N -14.229600 -30.383000 -17.813000
C -14.188700 -31.704000 -18.031000
O -13.132600 -28.410500 -17.616000
C -13.101700 -29.636700 -17.759300
C -12.935300 -32.337400 -18.182800
F -12.905900 -33.675000 -18.389300
N -11.895300 -30.290500 -17.892200
C -11.806400 -31.618900 -18.100300
H -11.169800 -29.831400 -17.840600
H -10.977000 -32.030100 -18.184200
O -11.044600 -36.603200 -18.764700
H -11.007100 -39.014000 -19.773000
H -10.963100 -39.206700 -18.217500
C -10.439000 -39.202500 -19.021900
H -10.250400 -34.410400 -18.573000
H -10.026600 -40.060600 -19.139000
C -9.851600 -36.857000 -18.783500
N -9.397400 -38.166100 -18.923700
C -9.299900 -34.487200 -18.458500
H -9.063000 -34.228800 -17.564900
N -8.892500 -35.866500 -18.690000
H -8.854600 -33.912800 -19.085800
C -8.055800 -38.599300 -18.924600
O -7.765000 -39.786500 -19.006500
C -7.556300 -36.203800 -18.722200
C -7.155000 -37.506300 -18.838100
N -6.507500 -35.352400 -18.651600
N -5.783000 -37.478900 -18.825100
C -5.447100 -36.181900 -18.711500
H -5.002900 -39.112600 -19.669100
H -4.950300 -39.144000 -18.102900
C -4.838700 -38.591900 -18.879400
H -4.566100 -35.885100 -18.678300
H -3.942300 -38.249700 -18.902000
