32
Fragment
H -7.857400 -38.490900 -19.644000
H -7.697500 -37.078400 -17.874400
C -7.453900 -38.774000 -18.855600
C -7.383700 -37.951600 -17.801800
H -6.905400 -40.733900 -19.472600
C -6.883200 -40.141100 -18.756700
H -6.867800 -37.836700 -15.861900
C -6.846300 -38.394800 -16.605300
C -6.337700 -40.472200 -17.589000
C -6.299200 -39.604400 -16.500200
H -5.966600 -41.321300 -17.495200
N -5.727000 -40.055700 -15.251200
N -5.656300 -41.390800 -14.979600
H -5.435100 -42.923500 -12.396400
C -5.281100 -39.254600 -14.214900
O -5.224600 -38.022000 -14.207400
H -5.194300 -43.521600 -13.825700
C -5.154400 -41.518900 -13.795600
C -4.923800 -42.840700 -13.203700
C -4.907500 -40.250600 -13.221200
C -4.416500 -39.823400 -11.952100
H -4.321900 -37.924900 -12.182400
H -4.309300 -39.863400 -9.033600
H -4.195600 -41.478900 -10.920900
N -4.170000 -38.584400 -11.651800
N -4.127400 -40.621800 -10.917100
H -4.123500 -37.815400 -9.764500
H -3.990600 -42.944800 -13.003400
C -3.674800 -39.810000 -9.765700
C -3.599000 -38.429500 -10.300100
H -2.806400 -40.109100 -9.452800
H -2.681900 -38.117100 -10.338900
32
Fragment
H -3.045800 -38.490900 -7.128700
H -2.885800 -37.078400 -5.359100
C -2.642200 -38.774000 -6.340300
C -2.572000 -37.951600 -5.286500
H -2.093800 -40.733900 -6.957300
C -2.071500 -40.141100 -6.241400
H -2.056200 -37.836700 -3.346600
C -2.034600 -38.394800 -4.090000
C -1.526000 -40.472200 -5.073700
C -1.487600 -39.604400 -3.984900
H -1.155000 -41.321300 -4.979800
N -0.915400 -40.055700 -2.735800
N -0.844700 -41.390800 -2.464300
H -0.623400 -42.923500 0.118900
C -0.469500 -39.254600 -1.699600
O -0.412900 -38.022000 -1.692100
H -0.382700 -43.521600 -1.310400
C -0.342800 -41.518900 -1.280300
C -0.112100 -42.840700 -0.688300
C -0.095900 -40.250600 -0.705900
C 0.395100 -39.823400 0.563200
H 0.489800 -37.924900 0.332900
H 0.502400 -39.863400 3.481800
H 0.616100 -41.478900 1.594500
N 0.641700 -38.584400 0.863600
N 0.684200 -40.621800 1.598200
H 0.688200 -37.815400 2.750900
H 0.821000 -42.944800 -0.488100
C 1.136800 -39.810000 2.749600
C 1.212700 -38.429500 2.215200
H 2.005200 -40.109100 3.062500
H 2.129800 -38.117100 2.176400
64
Fragment
H -7.857400 -38.490900 -19.644000
H -7.697500 -37.078400 -17.874400
C -7.453900 -38.774000 -18.855600
C -7.383700 -37.951600 -17.801800
H -6.905400 -40.733900 -19.472600
C -6.883200 -40.141100 -18.756700
H -6.867800 -37.836700 -15.861900
C -6.846300 -38.394800 -16.605300
C -6.337700 -40.472200 -17.589000
C -6.299200 -39.604400 -16.500200
H -5.966600 -41.321300 -17.495200
N -5.727000 -40.055700 -15.251200
N -5.656300 -41.390800 -14.979600
H -5.435100 -42.923500 -12.396400
C -5.281100 -39.254600 -14.214900
O -5.224600 -38.022000 -14.207400
H -5.194300 -43.521600 -13.825700
C -5.154400 -41.518900 -13.795600
C -4.923800 -42.840700 -13.203700
C -4.907500 -40.250600 -13.221200
C -4.416500 -39.823400 -11.952100
H -4.321900 -37.924900 -12.182400
H -4.309300 -39.863400 -9.033600
H -4.195600 -41.478900 -10.920900
N -4.170000 -38.584400 -11.651800
N -4.127400 -40.621800 -10.917100
H -4.123500 -37.815400 -9.764500
H -3.990600 -42.944800 -13.003400
C -3.674800 -39.810000 -9.765700
C -3.599000 -38.429500 -10.300100
H -2.806400 -40.109100 -9.452800
H -2.681900 -38.117100 -10.338900
H -3.045800 -38.490900 -7.128700
H -2.885800 -37.078400 -5.359100
C -2.642200 -38.774000 -6.340300
C -2.572000 -37.951600 -5.286500
H -2.093800 -40.733900 -6.957300
C -2.071500 -40.141100 -6.241400
H -2.056200 -37.836700 -3.346600
C -2.034600 -38.394800 -4.090000
C -1.526000 -40.472200 -5.073700
C -1.487600 -39.604400 -3.984900
H -1.155000 -41.321300 -4.979800
N -0.915400 -40.055700 -2.735800
N -0.844700 -41.390800 -2.464300
H -0.623400 -42.923500 0.118900
C -0.469500 -39.254600 -1.699600
O -0.412900 -38.022000 -1.692100
H -0.382700 -43.521600 -1.310400
C -0.342800 -41.518900 -1.280300
C -0.112100 -42.840700 -0.688300
C -0.095900 -40.250600 -0.705900
C 0.395100 -39.823400 0.563200
H 0.489800 -37.924900 0.332900
H 0.502400 -39.863400 3.481800
H 0.616100 -41.478900 1.594500
N 0.641700 -38.584400 0.863600
N 0.684200 -40.621800 1.598200
H 0.688200 -37.815400 2.750900
H 0.821000 -42.944800 -0.488100
C 1.136800 -39.810000 2.749600
C 1.212700 -38.429500 2.215200
H 2.005200 -40.109100 3.062500
H 2.129800 -38.117100 2.176400
