32
Fragment
H -7.857400 -38.490900 -19.644000
H -7.697500 -37.078400 -17.874400
C -7.453900 -38.774000 -18.855600
C -7.383700 -37.951600 -17.801800
H -6.905400 -40.733900 -19.472600
C -6.883200 -40.141100 -18.756700
H -6.867800 -37.836700 -15.861900
C -6.846300 -38.394800 -16.605300
C -6.337700 -40.472200 -17.589000
C -6.299200 -39.604400 -16.500200
H -5.966600 -41.321300 -17.495200
N -5.727000 -40.055700 -15.251200
N -5.656300 -41.390800 -14.979600
H -5.435100 -42.923500 -12.396400
C -5.281100 -39.254600 -14.214900
O -5.224600 -38.022000 -14.207400
H -5.194300 -43.521600 -13.825700
C -5.154400 -41.518900 -13.795600
C -4.923800 -42.840700 -13.203700
C -4.907500 -40.250600 -13.221200
C -4.416500 -39.823400 -11.952100
H -4.321900 -37.924900 -12.182400
H -4.309300 -39.863400 -9.033600
H -4.195600 -41.478900 -10.920900
N -4.170000 -38.584400 -11.651800
N -4.127400 -40.621800 -10.917100
H -4.123500 -37.815400 -9.764500
H -3.990600 -42.944800 -13.003400
C -3.674800 -39.810000 -9.765700
C -3.599000 -38.429500 -10.300100
H -2.806400 -40.109100 -9.452800
H -2.681900 -38.117100 -10.338900
32
Fragment
H -9.283900 -41.615100 -13.386400
H -9.124000 -43.027600 -11.616700
C -8.880400 -41.332000 -12.597900
C -8.810200 -42.154400 -11.544100
H -8.332000 -39.372100 -13.214900
C -8.309700 -39.964900 -12.499000
H -8.294300 -42.269300 -9.604300
C -8.272800 -41.711200 -10.347700
C -7.764200 -39.633800 -11.331400
C -7.725700 -40.501600 -10.242500
H -7.393100 -38.784700 -11.237500
N -7.153600 -40.050300 -8.993500
N -7.082900 -38.715200 -8.721900
H -6.861600 -37.182500 -6.138800
C -6.707600 -40.851400 -7.957200
O -6.651100 -42.084000 -7.949700
H -6.620800 -36.584400 -7.568000
C -6.580900 -38.587100 -7.538000
C -6.350300 -37.265300 -6.946000
C -6.334000 -39.855400 -6.963500
C -5.843100 -40.282600 -5.694500
H -5.748400 -42.181100 -5.924800
H -5.735800 -40.242600 -2.775900
H -5.622100 -38.627100 -4.663200
N -5.596500 -41.521600 -5.394100
N -5.554000 -39.484200 -4.659500
H -5.550000 -42.290600 -3.506800
H -5.417100 -37.161200 -6.745800
C -5.101300 -40.296000 -3.508000
C -5.025500 -41.676500 -4.042400
H -4.233000 -39.996900 -3.195200
H -4.108400 -41.988900 -4.081200
64
Fragment
H -7.857400 -38.490900 -19.644000
H -7.697500 -37.078400 -17.874400
C -7.453900 -38.774000 -18.855600
C -7.383700 -37.951600 -17.801800
H -6.905400 -40.733900 -19.472600
C -6.883200 -40.141100 -18.756700
H -6.867800 -37.836700 -15.861900
C -6.846300 -38.394800 -16.605300
C -6.337700 -40.472200 -17.589000
C -6.299200 -39.604400 -16.500200
H -5.966600 -41.321300 -17.495200
N -5.727000 -40.055700 -15.251200
N -5.656300 -41.390800 -14.979600
H -5.435100 -42.923500 -12.396400
C -5.281100 -39.254600 -14.214900
O -5.224600 -38.022000 -14.207400
H -5.194300 -43.521600 -13.825700
C -5.154400 -41.518900 -13.795600
C -4.923800 -42.840700 -13.203700
C -4.907500 -40.250600 -13.221200
C -4.416500 -39.823400 -11.952100
H -4.321900 -37.924900 -12.182400
H -4.309300 -39.863400 -9.033600
H -4.195600 -41.478900 -10.920900
N -4.170000 -38.584400 -11.651800
N -4.127400 -40.621800 -10.917100
H -4.123500 -37.815400 -9.764500
H -3.990600 -42.944800 -13.003400
C -3.674800 -39.810000 -9.765700
C -3.599000 -38.429500 -10.300100
H -2.806400 -40.109100 -9.452800
H -2.681900 -38.117100 -10.338900
H -9.283900 -41.615100 -13.386400
H -9.124000 -43.027600 -11.616700
C -8.880400 -41.332000 -12.597900
C -8.810200 -42.154400 -11.544100
H -8.332000 -39.372100 -13.214900
C -8.309700 -39.964900 -12.499000
H -8.294300 -42.269300 -9.604300
C -8.272800 -41.711200 -10.347700
C -7.764200 -39.633800 -11.331400
C -7.725700 -40.501600 -10.242500
H -7.393100 -38.784700 -11.237500
N -7.153600 -40.050300 -8.993500
N -7.082900 -38.715200 -8.721900
H -6.861600 -37.182500 -6.138800
C -6.707600 -40.851400 -7.957200
O -6.651100 -42.084000 -7.949700
H -6.620800 -36.584400 -7.568000
C -6.580900 -38.587100 -7.538000
C -6.350300 -37.265300 -6.946000
C -6.334000 -39.855400 -6.963500
C -5.843100 -40.282600 -5.694500
H -5.748400 -42.181100 -5.924800
H -5.735800 -40.242600 -2.775900
H -5.622100 -38.627100 -4.663200
N -5.596500 -41.521600 -5.394100
N -5.554000 -39.484200 -4.659500
H -5.550000 -42.290600 -3.506800
H -5.417100 -37.161200 -6.745800
C -5.101300 -40.296000 -3.508000
C -5.025500 -41.676500 -4.042400
H -4.233000 -39.996900 -3.195200
H -4.108400 -41.988900 -4.081200
