32
Fragment
H -7.857400 -38.490900 -19.644000
H -7.697500 -37.078400 -17.874400
C -7.453900 -38.774000 -18.855600
C -7.383700 -37.951600 -17.801800
H -6.905400 -40.733900 -19.472600
C -6.883200 -40.141100 -18.756700
H -6.867800 -37.836700 -15.861900
C -6.846300 -38.394800 -16.605300
C -6.337700 -40.472200 -17.589000
C -6.299200 -39.604400 -16.500200
H -5.966600 -41.321300 -17.495200
N -5.727000 -40.055700 -15.251200
N -5.656300 -41.390800 -14.979600
H -5.435100 -42.923500 -12.396400
C -5.281100 -39.254600 -14.214900
O -5.224600 -38.022000 -14.207400
H -5.194300 -43.521600 -13.825700
C -5.154400 -41.518900 -13.795600
C -4.923800 -42.840700 -13.203700
C -4.907500 -40.250600 -13.221200
C -4.416500 -39.823400 -11.952100
H -4.321900 -37.924900 -12.182400
H -4.309300 -39.863400 -9.033600
H -4.195600 -41.478900 -10.920900
N -4.170000 -38.584400 -11.651800
N -4.127400 -40.621800 -10.917100
H -4.123500 -37.815400 -9.764500
H -3.990600 -42.944800 -13.003400
C -3.674800 -39.810000 -9.765700
C -3.599000 -38.429500 -10.300100
H -2.806400 -40.109100 -9.452800
H -2.681900 -38.117100 -10.338900
32
Fragment
H -14.095600 -41.615100 -25.901700
H -13.935600 -43.027600 -24.132000
C -13.692000 -41.332000 -25.113200
C -13.621800 -42.154400 -24.059400
H -13.143600 -39.372100 -25.730200
C -13.121300 -39.964900 -25.014400
H -13.106000 -42.269300 -22.119600
C -13.084400 -41.711200 -22.863000
C -12.575800 -39.633800 -23.846700
C -12.537400 -40.501600 -22.757900
H -12.204800 -38.784700 -23.752800
N -11.965200 -40.050300 -21.508800
N -11.894500 -38.715200 -21.237200
H -11.673200 -37.182500 -18.654100
C -11.519300 -40.851400 -20.472600
O -11.462700 -42.084000 -20.465000
H -11.432500 -36.584400 -20.083300
C -11.392600 -38.587100 -20.053300
C -11.161900 -37.265300 -19.461300
C -11.145700 -39.855400 -19.478800
C -10.654700 -40.282600 -18.209800
H -10.560000 -42.181100 -18.440100
H -10.547400 -40.242600 -15.291200
H -10.433700 -38.627100 -17.178500
N -10.408200 -41.521600 -17.909400
N -10.365600 -39.484200 -17.174800
H -10.361600 -42.290600 -16.022100
H -10.228800 -37.161200 -19.261100
C -9.913000 -40.296000 -16.023400
C -9.837100 -41.676500 -16.557800
H -9.044600 -39.996900 -15.710500
H -8.920000 -41.988900 -16.596600
64
Fragment
H -7.857400 -38.490900 -19.644000
H -7.697500 -37.078400 -17.874400
C -7.453900 -38.774000 -18.855600
C -7.383700 -37.951600 -17.801800
H -6.905400 -40.733900 -19.472600
C -6.883200 -40.141100 -18.756700
H -6.867800 -37.836700 -15.861900
C -6.846300 -38.394800 -16.605300
C -6.337700 -40.472200 -17.589000
C -6.299200 -39.604400 -16.500200
H -5.966600 -41.321300 -17.495200
N -5.727000 -40.055700 -15.251200
N -5.656300 -41.390800 -14.979600
H -5.435100 -42.923500 -12.396400
C -5.281100 -39.254600 -14.214900
O -5.224600 -38.022000 -14.207400
H -5.194300 -43.521600 -13.825700
C -5.154400 -41.518900 -13.795600
C -4.923800 -42.840700 -13.203700
C -4.907500 -40.250600 -13.221200
C -4.416500 -39.823400 -11.952100
H -4.321900 -37.924900 -12.182400
H -4.309300 -39.863400 -9.033600
H -4.195600 -41.478900 -10.920900
N -4.170000 -38.584400 -11.651800
N -4.127400 -40.621800 -10.917100
H -4.123500 -37.815400 -9.764500
H -3.990600 -42.944800 -13.003400
C -3.674800 -39.810000 -9.765700
C -3.599000 -38.429500 -10.300100
H -2.806400 -40.109100 -9.452800
H -2.681900 -38.117100 -10.338900
H -14.095600 -41.615100 -25.901700
H -13.935600 -43.027600 -24.132000
C -13.692000 -41.332000 -25.113200
C -13.621800 -42.154400 -24.059400
H -13.143600 -39.372100 -25.730200
C -13.121300 -39.964900 -25.014400
H -13.106000 -42.269300 -22.119600
C -13.084400 -41.711200 -22.863000
C -12.575800 -39.633800 -23.846700
C -12.537400 -40.501600 -22.757900
H -12.204800 -38.784700 -23.752800
N -11.965200 -40.050300 -21.508800
N -11.894500 -38.715200 -21.237200
H -11.673200 -37.182500 -18.654100
C -11.519300 -40.851400 -20.472600
O -11.462700 -42.084000 -20.465000
H -11.432500 -36.584400 -20.083300
C -11.392600 -38.587100 -20.053300
C -11.161900 -37.265300 -19.461300
C -11.145700 -39.855400 -19.478800
C -10.654700 -40.282600 -18.209800
H -10.560000 -42.181100 -18.440100
H -10.547400 -40.242600 -15.291200
H -10.433700 -38.627100 -17.178500
N -10.408200 -41.521600 -17.909400
N -10.365600 -39.484200 -17.174800
H -10.361600 -42.290600 -16.022100
H -10.228800 -37.161200 -19.261100
C -9.913000 -40.296000 -16.023400
C -9.837100 -41.676500 -16.557800
H -9.044600 -39.996900 -15.710500
H -8.920000 -41.988900 -16.596600
