38
Fragment
H -35.590000 -17.215800 -28.576500
H -35.411800 -17.541000 -26.385800
H -35.301900 -18.765300 -28.704400
C -34.962400 -17.924200 -28.360700
C -34.714200 -17.999600 -26.880300
H -34.670400 -18.922100 -26.580500
N -33.644200 -17.637000 -28.886600
N -33.446500 -17.341700 -26.717700
H -33.416300 -17.642000 -29.757800
H -33.013300 -17.165300 -25.948800
C -32.808200 -17.265000 -27.910700
N -31.572200 -16.860200 -28.152100
N -30.911800 -16.573100 -26.960600
H -30.870200 -15.345000 -24.769500
H -30.003000 -18.070900 -28.849400
H -29.948500 -14.778800 -22.723800
C -29.944700 -15.308700 -24.674300
C -29.742800 -16.023000 -27.055100
C -29.392400 -14.963400 -23.445700
N -29.163000 -18.018000 -29.169600
C -29.126300 -15.601200 -25.767000
H -29.061900 -18.514000 -29.914200
C -29.014100 -15.725600 -28.323500
C -28.745400 -16.695600 -29.313700
H -28.697300 -13.782500 -27.851400
C -28.515900 -14.430000 -28.494100
C -28.021200 -14.892000 -23.289400
C -27.955400 -16.330100 -30.414400
C -27.759300 -14.094200 -29.602000
H -27.758300 -16.969600 -31.059200
C -27.746700 -15.496700 -25.605300
H -27.652500 -14.676400 -22.462400
C -27.464300 -15.050600 -30.566500
Cl -27.222800 -12.448700 -29.793100
C -27.204100 -15.143100 -24.370700
H -27.183200 -15.663700 -26.326700
H -26.943800 -14.830600 -31.305400
H -26.280300 -15.075500 -24.275300
38
Fragment
H -25.610000 -14.876000 -33.841500
H -25.363800 -14.045500 -35.952000
C -24.712000 -14.561700 -34.038000
C -24.526100 -14.289800 -35.528200
H -24.524000 -13.773400 -33.505600
H -24.123400 -20.199500 -36.858500
N -24.048500 -15.586500 -35.994600
H -24.022800 -15.868400 -36.848900
H -23.897600 -19.269300 -35.713500
H -23.871400 -13.592000 -35.683000
N -23.716000 -15.608000 -33.818200
N -23.664500 -20.049300 -36.099000
H -23.654700 -16.114500 -33.076300
C -23.518600 -16.281300 -34.986300
N -22.882700 -17.431400 -35.155700
N -22.576400 -17.967600 -33.907300
H -22.321100 -21.416100 -37.814500
C -22.307100 -20.308800 -36.117100
C -21.925100 -19.084400 -33.892800
C -21.762700 -21.104600 -37.139900
H -21.657100 -17.841600 -31.549600
C -21.614500 -19.612400 -32.533700
C -21.534700 -18.756000 -31.430400
H -21.472900 -21.565100 -33.036200
C -21.455700 -19.856200 -35.088700
C -21.435200 -20.977500 -32.316800
C -21.276100 -19.253200 -30.160600
H -21.213600 -18.670700 -29.437200
C -21.199700 -21.471000 -31.040100
C -21.111700 -20.619400 -29.967900
H -21.100700 -22.386500 -30.910400
H -20.944000 -20.954900 -29.116600
C -20.430100 -21.435000 -37.171600
C -20.096300 -20.201900 -35.133600
H -20.092500 -21.965400 -37.856500
C -19.598600 -20.967300 -36.171700
H -19.524000 -19.913200 -34.457800
Cl -17.886600 -21.340300 -36.228500
76
Fragment
H -35.590000 -17.215800 -28.576500
H -35.411800 -17.541000 -26.385800
H -35.301900 -18.765300 -28.704400
C -34.962400 -17.924200 -28.360700
C -34.714200 -17.999600 -26.880300
H -34.670400 -18.922100 -26.580500
N -33.644200 -17.637000 -28.886600
N -33.446500 -17.341700 -26.717700
H -33.416300 -17.642000 -29.757800
H -33.013300 -17.165300 -25.948800
C -32.808200 -17.265000 -27.910700
N -31.572200 -16.860200 -28.152100
N -30.911800 -16.573100 -26.960600
H -30.870200 -15.345000 -24.769500
H -30.003000 -18.070900 -28.849400
H -29.948500 -14.778800 -22.723800
C -29.944700 -15.308700 -24.674300
C -29.742800 -16.023000 -27.055100
C -29.392400 -14.963400 -23.445700
N -29.163000 -18.018000 -29.169600
C -29.126300 -15.601200 -25.767000
H -29.061900 -18.514000 -29.914200
C -29.014100 -15.725600 -28.323500
C -28.745400 -16.695600 -29.313700
H -28.697300 -13.782500 -27.851400
C -28.515900 -14.430000 -28.494100
C -28.021200 -14.892000 -23.289400
C -27.955400 -16.330100 -30.414400
C -27.759300 -14.094200 -29.602000
H -27.758300 -16.969600 -31.059200
C -27.746700 -15.496700 -25.605300
H -27.652500 -14.676400 -22.462400
C -27.464300 -15.050600 -30.566500
Cl -27.222800 -12.448700 -29.793100
C -27.204100 -15.143100 -24.370700
H -27.183200 -15.663700 -26.326700
H -26.943800 -14.830600 -31.305400
H -26.280300 -15.075500 -24.275300
H -25.610000 -14.876000 -33.841500
H -25.363800 -14.045500 -35.952000
C -24.712000 -14.561700 -34.038000
C -24.526100 -14.289800 -35.528200
H -24.524000 -13.773400 -33.505600
H -24.123400 -20.199500 -36.858500
N -24.048500 -15.586500 -35.994600
H -24.022800 -15.868400 -36.848900
H -23.897600 -19.269300 -35.713500
H -23.871400 -13.592000 -35.683000
N -23.716000 -15.608000 -33.818200
N -23.664500 -20.049300 -36.099000
H -23.654700 -16.114500 -33.076300
C -23.518600 -16.281300 -34.986300
N -22.882700 -17.431400 -35.155700
N -22.576400 -17.967600 -33.907300
H -22.321100 -21.416100 -37.814500
C -22.307100 -20.308800 -36.117100
C -21.925100 -19.084400 -33.892800
C -21.762700 -21.104600 -37.139900
H -21.657100 -17.841600 -31.549600
C -21.614500 -19.612400 -32.533700
C -21.534700 -18.756000 -31.430400
H -21.472900 -21.565100 -33.036200
C -21.455700 -19.856200 -35.088700
C -21.435200 -20.977500 -32.316800
C -21.276100 -19.253200 -30.160600
H -21.213600 -18.670700 -29.437200
C -21.199700 -21.471000 -31.040100
C -21.111700 -20.619400 -29.967900
H -21.100700 -22.386500 -30.910400
H -20.944000 -20.954900 -29.116600
C -20.430100 -21.435000 -37.171600
C -20.096300 -20.201900 -35.133600
H -20.092500 -21.965400 -37.856500
C -19.598600 -20.967300 -36.171700
H -19.524000 -19.913200 -34.457800
Cl -17.886600 -21.340300 -36.228500
