38
Fragment
H -35.590000 -17.215800 -28.576500
H -35.411800 -17.541000 -26.385800
H -35.301900 -18.765300 -28.704400
C -34.962400 -17.924200 -28.360700
C -34.714200 -17.999600 -26.880300
H -34.670400 -18.922100 -26.580500
N -33.644200 -17.637000 -28.886600
N -33.446500 -17.341700 -26.717700
H -33.416300 -17.642000 -29.757800
H -33.013300 -17.165300 -25.948800
C -32.808200 -17.265000 -27.910700
N -31.572200 -16.860200 -28.152100
N -30.911800 -16.573100 -26.960600
H -30.870200 -15.345000 -24.769500
H -30.003000 -18.070900 -28.849400
H -29.948500 -14.778800 -22.723800
C -29.944700 -15.308700 -24.674300
C -29.742800 -16.023000 -27.055100
C -29.392400 -14.963400 -23.445700
N -29.163000 -18.018000 -29.169600
C -29.126300 -15.601200 -25.767000
H -29.061900 -18.514000 -29.914200
C -29.014100 -15.725600 -28.323500
C -28.745400 -16.695600 -29.313700
H -28.697300 -13.782500 -27.851400
C -28.515900 -14.430000 -28.494100
C -28.021200 -14.892000 -23.289400
C -27.955400 -16.330100 -30.414400
C -27.759300 -14.094200 -29.602000
H -27.758300 -16.969600 -31.059200
C -27.746700 -15.496700 -25.605300
H -27.652500 -14.676400 -22.462400
C -27.464300 -15.050600 -30.566500
Cl -27.222800 -12.448700 -29.793100
C -27.204100 -15.143100 -24.370700
H -27.183200 -15.663700 -26.326700
H -26.943800 -14.830600 -31.305400
H -26.280300 -15.075500 -24.275300
38
Fragment
H -29.458500 -11.035800 -24.300100
H -29.212400 -11.866300 -26.410600
C -28.560600 -11.350100 -24.496600
C -28.374600 -11.622000 -25.986800
H -28.372600 -12.138400 -23.964200
H -27.972000 -5.712300 -27.317100
N -27.897100 -10.325300 -26.453200
H -27.871400 -10.043400 -27.307500
H -27.746200 -6.642500 -26.172100
H -27.720000 -12.319800 -26.141600
N -27.564600 -10.303800 -24.276800
N -27.513100 -5.862500 -26.557600
H -27.503300 -9.797300 -23.534800
C -27.367200 -9.630500 -25.444800
N -26.731300 -8.480400 -25.614300
N -26.425000 -7.944200 -24.365900
H -26.169700 -4.495700 -28.273100
C -26.155700 -5.603000 -26.575700
C -25.773700 -6.827400 -24.351400
C -25.611300 -4.807200 -27.598500
H -25.505700 -8.070200 -22.008200
C -25.463100 -6.299400 -22.992300
C -25.383300 -7.155800 -21.888900
H -25.321500 -4.346700 -23.494800
C -25.304300 -6.055600 -25.547300
C -25.283800 -4.934300 -22.775300
C -25.124700 -6.658600 -20.619200
H -25.062100 -7.241100 -19.895700
C -25.048300 -4.440800 -21.498700
C -24.960300 -5.292400 -20.426400
H -24.949300 -3.525300 -21.368900
H -24.792600 -4.956900 -19.575200
C -24.278700 -4.476800 -27.630200
C -23.944900 -5.709900 -25.592200
H -23.941100 -3.946400 -28.315100
C -23.447200 -4.944500 -26.630300
H -23.372600 -5.998600 -24.916400
Cl -21.735200 -4.571500 -26.687100
76
Fragment
H -35.590000 -17.215800 -28.576500
H -35.411800 -17.541000 -26.385800
H -35.301900 -18.765300 -28.704400
C -34.962400 -17.924200 -28.360700
C -34.714200 -17.999600 -26.880300
H -34.670400 -18.922100 -26.580500
N -33.644200 -17.637000 -28.886600
N -33.446500 -17.341700 -26.717700
H -33.416300 -17.642000 -29.757800
H -33.013300 -17.165300 -25.948800
C -32.808200 -17.265000 -27.910700
N -31.572200 -16.860200 -28.152100
N -30.911800 -16.573100 -26.960600
H -30.870200 -15.345000 -24.769500
H -30.003000 -18.070900 -28.849400
H -29.948500 -14.778800 -22.723800
C -29.944700 -15.308700 -24.674300
C -29.742800 -16.023000 -27.055100
C -29.392400 -14.963400 -23.445700
N -29.163000 -18.018000 -29.169600
C -29.126300 -15.601200 -25.767000
H -29.061900 -18.514000 -29.914200
C -29.014100 -15.725600 -28.323500
C -28.745400 -16.695600 -29.313700
H -28.697300 -13.782500 -27.851400
C -28.515900 -14.430000 -28.494100
C -28.021200 -14.892000 -23.289400
C -27.955400 -16.330100 -30.414400
C -27.759300 -14.094200 -29.602000
H -27.758300 -16.969600 -31.059200
C -27.746700 -15.496700 -25.605300
H -27.652500 -14.676400 -22.462400
C -27.464300 -15.050600 -30.566500
Cl -27.222800 -12.448700 -29.793100
C -27.204100 -15.143100 -24.370700
H -27.183200 -15.663700 -26.326700
H -26.943800 -14.830600 -31.305400
H -26.280300 -15.075500 -24.275300
H -29.458500 -11.035800 -24.300100
H -29.212400 -11.866300 -26.410600
C -28.560600 -11.350100 -24.496600
C -28.374600 -11.622000 -25.986800
H -28.372600 -12.138400 -23.964200
H -27.972000 -5.712300 -27.317100
N -27.897100 -10.325300 -26.453200
H -27.871400 -10.043400 -27.307500
H -27.746200 -6.642500 -26.172100
H -27.720000 -12.319800 -26.141600
N -27.564600 -10.303800 -24.276800
N -27.513100 -5.862500 -26.557600
H -27.503300 -9.797300 -23.534800
C -27.367200 -9.630500 -25.444800
N -26.731300 -8.480400 -25.614300
N -26.425000 -7.944200 -24.365900
H -26.169700 -4.495700 -28.273100
C -26.155700 -5.603000 -26.575700
C -25.773700 -6.827400 -24.351400
C -25.611300 -4.807200 -27.598500
H -25.505700 -8.070200 -22.008200
C -25.463100 -6.299400 -22.992300
C -25.383300 -7.155800 -21.888900
H -25.321500 -4.346700 -23.494800
C -25.304300 -6.055600 -25.547300
C -25.283800 -4.934300 -22.775300
C -25.124700 -6.658600 -20.619200
H -25.062100 -7.241100 -19.895700
C -25.048300 -4.440800 -21.498700
C -24.960300 -5.292400 -20.426400
H -24.949300 -3.525300 -21.368900
H -24.792600 -4.956900 -19.575200
C -24.278700 -4.476800 -27.630200
C -23.944900 -5.709900 -25.592200
H -23.941100 -3.946400 -28.315100
C -23.447200 -4.944500 -26.630300
H -23.372600 -5.998600 -24.916400
Cl -21.735200 -4.571500 -26.687100
