38
Fragment
H -35.590000 -17.215800 -28.576500
H -35.411800 -17.541000 -26.385800
H -35.301900 -18.765300 -28.704400
C -34.962400 -17.924200 -28.360700
C -34.714200 -17.999600 -26.880300
H -34.670400 -18.922100 -26.580500
N -33.644200 -17.637000 -28.886600
N -33.446500 -17.341700 -26.717700
H -33.416300 -17.642000 -29.757800
H -33.013300 -17.165300 -25.948800
C -32.808200 -17.265000 -27.910700
N -31.572200 -16.860200 -28.152100
N -30.911800 -16.573100 -26.960600
H -30.870200 -15.345000 -24.769500
H -30.003000 -18.070900 -28.849400
H -29.948500 -14.778800 -22.723800
C -29.944700 -15.308700 -24.674300
C -29.742800 -16.023000 -27.055100
C -29.392400 -14.963400 -23.445700
N -29.163000 -18.018000 -29.169600
C -29.126300 -15.601200 -25.767000
H -29.061900 -18.514000 -29.914200
C -29.014100 -15.725600 -28.323500
C -28.745400 -16.695600 -29.313700
H -28.697300 -13.782500 -27.851400
C -28.515900 -14.430000 -28.494100
C -28.021200 -14.892000 -23.289400
C -27.955400 -16.330100 -30.414400
C -27.759300 -14.094200 -29.602000
H -27.758300 -16.969600 -31.059200
C -27.746700 -15.496700 -25.605300
H -27.652500 -14.676400 -22.462400
C -27.464300 -15.050600 -30.566500
Cl -27.222800 -12.448700 -29.793100
C -27.204100 -15.143100 -24.370700
H -27.183200 -15.663700 -26.326700
H -26.943800 -14.830600 -31.305400
H -26.280300 -15.075500 -24.275300
38
Fragment
Cl -27.793100 -11.049400 -21.019900
H -26.155700 -12.476500 -22.790600
C -26.081100 -11.422400 -21.076800
H -25.587200 -10.424300 -19.392000
C -25.583500 -12.187900 -22.114900
C -25.249600 -10.954700 -20.076800
H -24.735700 -11.434900 -28.131900
H -24.579000 -10.003300 -26.338100
C -24.568000 -11.770300 -27.280600
C -24.480000 -10.918700 -26.208300
H -24.466200 -13.719000 -27.811300
C -24.403600 -13.136500 -27.087900
C -24.244500 -11.412200 -24.931700
C -24.224100 -12.533500 -22.159700
H -24.206800 -10.824700 -24.212300
C -24.145000 -13.633800 -25.818100
C -24.065200 -12.777400 -24.714700
H -24.022600 -14.548200 -25.698800
C -23.917000 -11.285100 -20.108500
C -23.754600 -13.305300 -23.355700
C -23.372600 -12.081000 -21.131400
H -23.358600 -10.973600 -19.433900
N -23.103300 -14.422100 -23.341200
N -22.797000 -14.958400 -22.092800
C -22.161100 -16.108500 -22.262200
H -22.025100 -16.275200 -24.172200
N -22.015200 -12.340500 -21.149500
N -21.963700 -16.781800 -23.430300
H -21.808300 -18.797700 -21.565500
H -21.782100 -13.120400 -21.535000
H -21.657000 -16.521400 -20.399500
N -21.631200 -16.803300 -21.253900
H -21.556300 -12.190200 -20.390000
H -21.155700 -18.616300 -23.742800
C -21.153700 -18.099900 -21.720300
C -20.967700 -17.828100 -23.210400
H -20.315900 -18.344300 -21.296400
H -20.069800 -17.513800 -23.407000
76
Fragment
H -35.590000 -17.215800 -28.576500
H -35.411800 -17.541000 -26.385800
H -35.301900 -18.765300 -28.704400
C -34.962400 -17.924200 -28.360700
C -34.714200 -17.999600 -26.880300
H -34.670400 -18.922100 -26.580500
N -33.644200 -17.637000 -28.886600
N -33.446500 -17.341700 -26.717700
H -33.416300 -17.642000 -29.757800
H -33.013300 -17.165300 -25.948800
C -32.808200 -17.265000 -27.910700
N -31.572200 -16.860200 -28.152100
N -30.911800 -16.573100 -26.960600
H -30.870200 -15.345000 -24.769500
H -30.003000 -18.070900 -28.849400
H -29.948500 -14.778800 -22.723800
C -29.944700 -15.308700 -24.674300
C -29.742800 -16.023000 -27.055100
C -29.392400 -14.963400 -23.445700
N -29.163000 -18.018000 -29.169600
C -29.126300 -15.601200 -25.767000
H -29.061900 -18.514000 -29.914200
C -29.014100 -15.725600 -28.323500
C -28.745400 -16.695600 -29.313700
H -28.697300 -13.782500 -27.851400
C -28.515900 -14.430000 -28.494100
C -28.021200 -14.892000 -23.289400
C -27.955400 -16.330100 -30.414400
C -27.759300 -14.094200 -29.602000
H -27.758300 -16.969600 -31.059200
C -27.746700 -15.496700 -25.605300
H -27.652500 -14.676400 -22.462400
C -27.464300 -15.050600 -30.566500
Cl -27.222800 -12.448700 -29.793100
C -27.204100 -15.143100 -24.370700
H -27.183200 -15.663700 -26.326700
H -26.943800 -14.830600 -31.305400
H -26.280300 -15.075500 -24.275300
Cl -27.793100 -11.049400 -21.019900
H -26.155700 -12.476500 -22.790600
C -26.081100 -11.422400 -21.076800
H -25.587200 -10.424300 -19.392000
C -25.583500 -12.187900 -22.114900
C -25.249600 -10.954700 -20.076800
H -24.735700 -11.434900 -28.131900
H -24.579000 -10.003300 -26.338100
C -24.568000 -11.770300 -27.280600
C -24.480000 -10.918700 -26.208300
H -24.466200 -13.719000 -27.811300
C -24.403600 -13.136500 -27.087900
C -24.244500 -11.412200 -24.931700
C -24.224100 -12.533500 -22.159700
H -24.206800 -10.824700 -24.212300
C -24.145000 -13.633800 -25.818100
C -24.065200 -12.777400 -24.714700
H -24.022600 -14.548200 -25.698800
C -23.917000 -11.285100 -20.108500
C -23.754600 -13.305300 -23.355700
C -23.372600 -12.081000 -21.131400
H -23.358600 -10.973600 -19.433900
N -23.103300 -14.422100 -23.341200
N -22.797000 -14.958400 -22.092800
C -22.161100 -16.108500 -22.262200
H -22.025100 -16.275200 -24.172200
N -22.015200 -12.340500 -21.149500
N -21.963700 -16.781800 -23.430300
H -21.808300 -18.797700 -21.565500
H -21.782100 -13.120400 -21.535000
H -21.657000 -16.521400 -20.399500
N -21.631200 -16.803300 -21.253900
H -21.556300 -12.190200 -20.390000
H -21.155700 -18.616300 -23.742800
C -21.153700 -18.099900 -21.720300
C -20.967700 -17.828100 -23.210400
H -20.315900 -18.344300 -21.296400
H -20.069800 -17.513800 -23.407000
