38
Fragment
H -35.590000 -17.215800 -28.576500
H -35.411800 -17.541000 -26.385800
H -35.301900 -18.765300 -28.704400
C -34.962400 -17.924200 -28.360700
C -34.714200 -17.999600 -26.880300
H -34.670400 -18.922100 -26.580500
N -33.644200 -17.637000 -28.886600
N -33.446500 -17.341700 -26.717700
H -33.416300 -17.642000 -29.757800
H -33.013300 -17.165300 -25.948800
C -32.808200 -17.265000 -27.910700
N -31.572200 -16.860200 -28.152100
N -30.911800 -16.573100 -26.960600
H -30.870200 -15.345000 -24.769500
H -30.003000 -18.070900 -28.849400
H -29.948500 -14.778800 -22.723800
C -29.944700 -15.308700 -24.674300
C -29.742800 -16.023000 -27.055100
C -29.392400 -14.963400 -23.445700
N -29.163000 -18.018000 -29.169600
C -29.126300 -15.601200 -25.767000
H -29.061900 -18.514000 -29.914200
C -29.014100 -15.725600 -28.323500
C -28.745400 -16.695600 -29.313700
H -28.697300 -13.782500 -27.851400
C -28.515900 -14.430000 -28.494100
C -28.021200 -14.892000 -23.289400
C -27.955400 -16.330100 -30.414400
C -27.759300 -14.094200 -29.602000
H -27.758300 -16.969600 -31.059200
C -27.746700 -15.496700 -25.605300
H -27.652500 -14.676400 -22.462400
C -27.464300 -15.050600 -30.566500
Cl -27.222800 -12.448700 -29.793100
C -27.204100 -15.143100 -24.370700
H -27.183200 -15.663700 -26.326700
H -26.943800 -14.830600 -31.305400
H -26.280300 -15.075500 -24.275300
38
Fragment
H -33.153700 -10.836300 -32.973200
H -32.490200 -11.081200 -25.943100
H -32.250800 -10.248100 -30.921800
C -32.229900 -10.768700 -32.877800
Cl -32.211100 -13.463100 -27.455400
C -31.969600 -10.861200 -26.682000
H -31.781500 -11.235400 -34.786100
C -31.687200 -10.415100 -31.643100
H -31.675700 -8.942200 -26.189300
C -31.674700 -11.817600 -27.646400
C -31.478600 -9.581700 -26.834100
C -31.412800 -11.019800 -33.959000
C -30.918100 -11.481800 -28.754400
H -30.736700 -12.129300 -29.397100
C -30.688600 -9.216200 -27.934800
C -30.419800 -10.186200 -28.925000
H -30.372100 -7.397800 -27.334200
C -30.307700 -10.310600 -31.481500
N -30.270900 -7.893800 -28.078800
C -30.041500 -10.948400 -33.802700
C -29.691200 -9.888800 -30.193400
C -29.489300 -10.603100 -32.574200
H -29.485400 -11.133000 -34.524600
H -29.430900 -7.840900 -28.399100
H -28.563800 -10.566800 -32.479000
N -28.522200 -9.338700 -30.287900
N -27.861700 -9.051600 -29.096300
C -26.625800 -8.646800 -29.337700
H -26.420700 -8.746500 -31.299600
H -26.017700 -8.269800 -27.490700
N -25.987500 -8.570100 -30.530800
N -25.789800 -8.274800 -28.361800
H -24.763600 -6.989700 -30.668000
C -24.719700 -7.912200 -30.368200
C -24.471500 -7.987600 -28.887800
H -24.132100 -7.146500 -28.544100
H -24.022100 -8.370800 -30.862600
H -23.843900 -8.696000 -28.671900
76
Fragment
H -35.590000 -17.215800 -28.576500
H -35.411800 -17.541000 -26.385800
H -35.301900 -18.765300 -28.704400
C -34.962400 -17.924200 -28.360700
C -34.714200 -17.999600 -26.880300
H -34.670400 -18.922100 -26.580500
N -33.644200 -17.637000 -28.886600
N -33.446500 -17.341700 -26.717700
H -33.416300 -17.642000 -29.757800
H -33.013300 -17.165300 -25.948800
C -32.808200 -17.265000 -27.910700
N -31.572200 -16.860200 -28.152100
N -30.911800 -16.573100 -26.960600
H -30.870200 -15.345000 -24.769500
H -30.003000 -18.070900 -28.849400
H -29.948500 -14.778800 -22.723800
C -29.944700 -15.308700 -24.674300
C -29.742800 -16.023000 -27.055100
C -29.392400 -14.963400 -23.445700
N -29.163000 -18.018000 -29.169600
C -29.126300 -15.601200 -25.767000
H -29.061900 -18.514000 -29.914200
C -29.014100 -15.725600 -28.323500
C -28.745400 -16.695600 -29.313700
H -28.697300 -13.782500 -27.851400
C -28.515900 -14.430000 -28.494100
C -28.021200 -14.892000 -23.289400
C -27.955400 -16.330100 -30.414400
C -27.759300 -14.094200 -29.602000
H -27.758300 -16.969600 -31.059200
C -27.746700 -15.496700 -25.605300
H -27.652500 -14.676400 -22.462400
C -27.464300 -15.050600 -30.566500
Cl -27.222800 -12.448700 -29.793100
C -27.204100 -15.143100 -24.370700
H -27.183200 -15.663700 -26.326700
H -26.943800 -14.830600 -31.305400
H -26.280300 -15.075500 -24.275300
H -33.153700 -10.836300 -32.973200
H -32.490200 -11.081200 -25.943100
H -32.250800 -10.248100 -30.921800
C -32.229900 -10.768700 -32.877800
Cl -32.211100 -13.463100 -27.455400
C -31.969600 -10.861200 -26.682000
H -31.781500 -11.235400 -34.786100
C -31.687200 -10.415100 -31.643100
H -31.675700 -8.942200 -26.189300
C -31.674700 -11.817600 -27.646400
C -31.478600 -9.581700 -26.834100
C -31.412800 -11.019800 -33.959000
C -30.918100 -11.481800 -28.754400
H -30.736700 -12.129300 -29.397100
C -30.688600 -9.216200 -27.934800
C -30.419800 -10.186200 -28.925000
H -30.372100 -7.397800 -27.334200
C -30.307700 -10.310600 -31.481500
N -30.270900 -7.893800 -28.078800
C -30.041500 -10.948400 -33.802700
C -29.691200 -9.888800 -30.193400
C -29.489300 -10.603100 -32.574200
H -29.485400 -11.133000 -34.524600
H -29.430900 -7.840900 -28.399100
H -28.563800 -10.566800 -32.479000
N -28.522200 -9.338700 -30.287900
N -27.861700 -9.051600 -29.096300
C -26.625800 -8.646800 -29.337700
H -26.420700 -8.746500 -31.299600
H -26.017700 -8.269800 -27.490700
N -25.987500 -8.570100 -30.530800
N -25.789800 -8.274800 -28.361800
H -24.763600 -6.989700 -30.668000
C -24.719700 -7.912200 -30.368200
C -24.471500 -7.987600 -28.887800
H -24.132100 -7.146500 -28.544100
H -24.022100 -8.370800 -30.862600
H -23.843900 -8.696000 -28.671900
