13
Fragment
H -4.469100 -18.927800 -13.417600
N -4.013700 -19.684800 -13.485300
N -3.846300 -20.521900 -12.476700
N -3.609100 -20.107400 -14.671000
H -3.530600 -22.147500 -10.584000
C -3.274500 -21.589700 -13.036800
C -3.134600 -21.338000 -14.406600
N -3.111200 -22.778600 -10.972500
C -2.845700 -22.787200 -12.265200
H -2.779900 -23.448400 -10.483200
C -2.597900 -22.172700 -15.440400
O -2.247400 -23.698500 -12.852300
N -2.167700 -22.853700 -16.252200
3
Fragment
H -1.769700 -24.944400 -14.302400
O -1.478100 -25.571900 -14.700800
H -1.217100 -25.383400 -15.545700
16
Fragment
H -4.469100 -18.927800 -13.417600
N -4.013700 -19.684800 -13.485300
N -3.846300 -20.521900 -12.476700
N -3.609100 -20.107400 -14.671000
H -3.530600 -22.147500 -10.584000
C -3.274500 -21.589700 -13.036800
C -3.134600 -21.338000 -14.406600
N -3.111200 -22.778600 -10.972500
C -2.845700 -22.787200 -12.265200
H -2.779900 -23.448400 -10.483200
C -2.597900 -22.172700 -15.440400
O -2.247400 -23.698500 -12.852300
N -2.167700 -22.853700 -16.252200
H -1.769700 -24.944400 -14.302400
O -1.478100 -25.571900 -14.700800
H -1.217100 -25.383400 -15.545700
