13
Fragment
H -4.469100 -18.927800 -13.417600
N -4.013700 -19.684800 -13.485300
N -3.846300 -20.521900 -12.476700
N -3.609100 -20.107400 -14.671000
H -3.530600 -22.147500 -10.584000
C -3.274500 -21.589700 -13.036800
C -3.134600 -21.338000 -14.406600
N -3.111200 -22.778600 -10.972500
C -2.845700 -22.787200 -12.265200
H -2.779900 -23.448400 -10.483200
C -2.597900 -22.172700 -15.440400
O -2.247400 -23.698500 -12.852300
N -2.167700 -22.853700 -16.252200
13
Fragment
N -5.522000 -25.929300 -6.147900
O -5.442300 -25.084500 -9.547800
C -5.091800 -26.610300 -6.959700
H -4.909800 -25.334600 -11.916800
C -4.844000 -25.995800 -10.134900
N -4.578500 -26.004400 -11.427600
C -4.555100 -27.445000 -7.993500
C -4.415200 -27.193300 -9.363200
H -4.159100 -26.635500 -11.816000
N -4.080600 -28.675600 -7.729000
N -3.843400 -28.261100 -9.923300
N -3.676000 -29.098200 -8.914800
H -3.220700 -29.855200 -8.982400
26
Fragment
H -4.469100 -18.927800 -13.417600
N -4.013700 -19.684800 -13.485300
N -3.846300 -20.521900 -12.476700
N -3.609100 -20.107400 -14.671000
H -3.530600 -22.147500 -10.584000
C -3.274500 -21.589700 -13.036800
C -3.134600 -21.338000 -14.406600
N -3.111200 -22.778600 -10.972500
C -2.845700 -22.787200 -12.265200
H -2.779900 -23.448400 -10.483200
C -2.597900 -22.172700 -15.440400
O -2.247400 -23.698500 -12.852300
N -2.167700 -22.853700 -16.252200
N -5.522000 -25.929300 -6.147900
O -5.442300 -25.084500 -9.547800
C -5.091800 -26.610300 -6.959700
H -4.909800 -25.334600 -11.916800
C -4.844000 -25.995800 -10.134900
N -4.578500 -26.004400 -11.427600
C -4.555100 -27.445000 -7.993500
C -4.415200 -27.193300 -9.363200
H -4.159100 -26.635500 -11.816000
N -4.080600 -28.675600 -7.729000
N -3.843400 -28.261100 -9.923300
N -3.676000 -29.098200 -8.914800
H -3.220700 -29.855200 -8.982400
