13
Fragment
H -4.469100 -18.927800 -13.417600
N -4.013700 -19.684800 -13.485300
N -3.846300 -20.521900 -12.476700
N -3.609100 -20.107400 -14.671000
H -3.530600 -22.147500 -10.584000
C -3.274500 -21.589700 -13.036800
C -3.134600 -21.338000 -14.406600
N -3.111200 -22.778600 -10.972500
C -2.845700 -22.787200 -12.265200
H -2.779900 -23.448400 -10.483200
C -2.597900 -22.172700 -15.440400
O -2.247400 -23.698500 -12.852300
N -2.167700 -22.853700 -16.252200
13
Fragment
H -0.861800 -18.927800 -13.417600
N -0.406400 -19.684800 -13.485300
N -0.239000 -20.521900 -12.476700
N -0.001800 -20.107400 -14.671000
H 0.076700 -22.147500 -10.584000
C 0.332800 -21.589700 -13.036800
C 0.472700 -21.338000 -14.406600
N 0.496100 -22.778600 -10.972500
C 0.761600 -22.787200 -12.265200
H 0.827400 -23.448400 -10.483200
C 1.009400 -22.172700 -15.440400
O 1.359900 -23.698500 -12.852300
N 1.439600 -22.853700 -16.252200
26
Fragment
H -4.469100 -18.927800 -13.417600
N -4.013700 -19.684800 -13.485300
N -3.846300 -20.521900 -12.476700
N -3.609100 -20.107400 -14.671000
H -3.530600 -22.147500 -10.584000
C -3.274500 -21.589700 -13.036800
C -3.134600 -21.338000 -14.406600
N -3.111200 -22.778600 -10.972500
C -2.845700 -22.787200 -12.265200
H -2.779900 -23.448400 -10.483200
C -2.597900 -22.172700 -15.440400
O -2.247400 -23.698500 -12.852300
N -2.167700 -22.853700 -16.252200
H -0.861800 -18.927800 -13.417600
N -0.406400 -19.684800 -13.485300
N -0.239000 -20.521900 -12.476700
N -0.001800 -20.107400 -14.671000
H 0.076700 -22.147500 -10.584000
C 0.332800 -21.589700 -13.036800
C 0.472700 -21.338000 -14.406600
N 0.496100 -22.778600 -10.972500
C 0.761600 -22.787200 -12.265200
H 0.827400 -23.448400 -10.483200
C 1.009400 -22.172700 -15.440400
O 1.359900 -23.698500 -12.852300
N 1.439600 -22.853700 -16.252200
