13
Fragment
H -4.469100 -18.927800 -13.417600
N -4.013700 -19.684800 -13.485300
N -3.846300 -20.521900 -12.476700
N -3.609100 -20.107400 -14.671000
H -3.530600 -22.147500 -10.584000
C -3.274500 -21.589700 -13.036800
C -3.134600 -21.338000 -14.406600
N -3.111200 -22.778600 -10.972500
C -2.845700 -22.787200 -12.265200
H -2.779900 -23.448400 -10.483200
C -2.597900 -22.172700 -15.440400
O -2.247400 -23.698500 -12.852300
N -2.167700 -22.853700 -16.252200
13
Fragment
H -3.686000 -21.724700 -19.017700
N -3.230700 -20.967700 -19.085300
N -3.063300 -20.130600 -18.076700
N -2.826100 -20.545100 -20.271100
H -2.747500 -18.505000 -16.184100
C -2.491500 -19.062800 -18.636900
C -2.351600 -19.314500 -20.006600
N -2.328200 -17.873900 -16.572500
C -2.062600 -17.865300 -17.865200
H -1.996900 -17.204100 -16.083300
C -1.814900 -18.479800 -21.040400
O -1.464300 -16.954000 -18.452300
N -1.384700 -17.798800 -21.852200
26
Fragment
H -4.469100 -18.927800 -13.417600
N -4.013700 -19.684800 -13.485300
N -3.846300 -20.521900 -12.476700
N -3.609100 -20.107400 -14.671000
H -3.530600 -22.147500 -10.584000
C -3.274500 -21.589700 -13.036800
C -3.134600 -21.338000 -14.406600
N -3.111200 -22.778600 -10.972500
C -2.845700 -22.787200 -12.265200
H -2.779900 -23.448400 -10.483200
C -2.597900 -22.172700 -15.440400
O -2.247400 -23.698500 -12.852300
N -2.167700 -22.853700 -16.252200
H -3.686000 -21.724700 -19.017700
N -3.230700 -20.967700 -19.085300
N -3.063300 -20.130600 -18.076700
N -2.826100 -20.545100 -20.271100
H -2.747500 -18.505000 -16.184100
C -2.491500 -19.062800 -18.636900
C -2.351600 -19.314500 -20.006600
N -2.328200 -17.873900 -16.572500
C -2.062600 -17.865300 -17.865200
H -1.996900 -17.204100 -16.083300
C -1.814900 -18.479800 -21.040400
O -1.464300 -16.954000 -18.452300
N -1.384700 -17.798800 -21.852200
