45
Fragment
H -17.447200 -11.949100 -23.411100
H -17.255500 -10.879400 -21.336700
C -16.780400 -12.226100 -22.793700
H -16.720100 -16.051300 -26.516600
C -16.662600 -11.585000 -21.567700
C -16.499300 -15.263200 -26.034300
H -16.493800 -15.899600 -24.053600
C -16.382400 -15.193100 -24.678900
N -16.253600 -14.035700 -26.611100
N -16.068300 -13.880400 -24.408400
C -16.002700 -13.234400 -25.610900
C -15.927600 -13.269100 -23.119200
H -15.798600 -12.311700 -25.707700
C -15.674600 -11.983200 -20.686200
H -15.589000 -11.540300 -19.850100
C -14.935100 -13.701300 -22.222400
C -14.800100 -13.024800 -21.003300
N -14.086600 -14.806000 -22.569000
H -14.011600 -13.806900 -19.263000
H -13.997600 -15.718900 -20.761000
C -13.652400 -13.348800 -20.063800
H -13.503800 -13.949000 -24.316100
C -13.359300 -15.295300 -21.388200
H -13.217500 -12.504500 -19.784900
C -13.069800 -14.443500 -23.576400
H -12.713900 -15.993300 -21.665700
H -12.684600 -15.269100 -23.964400
N -12.645500 -14.217800 -20.701500
C -11.962200 -13.601700 -22.996200
C -11.803400 -13.491000 -21.609900
H -11.202900 -13.008500 -24.793300
C -11.102900 -12.912500 -23.853400
C -10.780600 -12.660900 -21.115200
H -10.648300 -14.412100 -18.954900
N -10.566700 -12.510200 -19.709000
C -10.469800 -13.495500 -18.780000
C -10.239600 -11.332200 -19.067800
H -10.214100 -10.463000 -19.450300
C -10.112900 -12.096100 -23.356500
N -10.098100 -13.025600 -17.605300
C -9.964800 -11.661000 -17.795700
C -9.947000 -11.967300 -21.978400
H -9.713900 -11.042700 -17.119400
H -9.544000 -11.621400 -23.951000
H -9.264100 -11.405400 -21.631700
3
Fragment
O -7.009600 -9.689500 -22.345200
H -6.983900 -10.299600 -23.021800
H -6.859600 -10.142800 -21.579900
48
Fragment
H -17.447200 -11.949100 -23.411100
H -17.255500 -10.879400 -21.336700
C -16.780400 -12.226100 -22.793700
H -16.720100 -16.051300 -26.516600
C -16.662600 -11.585000 -21.567700
C -16.499300 -15.263200 -26.034300
H -16.493800 -15.899600 -24.053600
C -16.382400 -15.193100 -24.678900
N -16.253600 -14.035700 -26.611100
N -16.068300 -13.880400 -24.408400
C -16.002700 -13.234400 -25.610900
C -15.927600 -13.269100 -23.119200
H -15.798600 -12.311700 -25.707700
C -15.674600 -11.983200 -20.686200
H -15.589000 -11.540300 -19.850100
C -14.935100 -13.701300 -22.222400
C -14.800100 -13.024800 -21.003300
N -14.086600 -14.806000 -22.569000
H -14.011600 -13.806900 -19.263000
H -13.997600 -15.718900 -20.761000
C -13.652400 -13.348800 -20.063800
H -13.503800 -13.949000 -24.316100
C -13.359300 -15.295300 -21.388200
H -13.217500 -12.504500 -19.784900
C -13.069800 -14.443500 -23.576400
H -12.713900 -15.993300 -21.665700
H -12.684600 -15.269100 -23.964400
N -12.645500 -14.217800 -20.701500
C -11.962200 -13.601700 -22.996200
C -11.803400 -13.491000 -21.609900
H -11.202900 -13.008500 -24.793300
C -11.102900 -12.912500 -23.853400
C -10.780600 -12.660900 -21.115200
H -10.648300 -14.412100 -18.954900
N -10.566700 -12.510200 -19.709000
C -10.469800 -13.495500 -18.780000
C -10.239600 -11.332200 -19.067800
H -10.214100 -10.463000 -19.450300
C -10.112900 -12.096100 -23.356500
N -10.098100 -13.025600 -17.605300
C -9.964800 -11.661000 -17.795700
C -9.947000 -11.967300 -21.978400
H -9.713900 -11.042700 -17.119400
H -9.544000 -11.621400 -23.951000
H -9.264100 -11.405400 -21.631700
O -7.009600 -9.689500 -22.345200
H -6.983900 -10.299600 -23.021800
H -6.859600 -10.142800 -21.579900
