26
Fragment
H -19.675100 -14.430500 -8.115800
H -19.245900 -12.885400 -7.307400
N -19.134100 -13.498900 -7.856500
C -18.084600 -13.441800 -8.653400
N -17.864100 -14.578100 -9.416700
N -17.340300 -12.351100 -8.673800
C -16.847100 -14.492900 -10.183600
H -16.644300 -15.333900 -10.830400
C -16.262300 -12.354200 -9.435600
N -16.009600 -13.452400 -10.256100
O -15.446200 -11.416500 -9.465500
H -14.875300 -17.157500 -11.862400
O -14.854700 -14.487500 -12.030400
C -14.783000 -13.441000 -11.127500
H -14.733900 -12.490400 -11.636700
O -14.623300 -16.450400 -9.943700
C -14.111800 -16.685600 -11.262400
H -13.771600 -14.119900 -9.332700
C -13.707700 -15.391000 -11.903400
C -13.525700 -13.654100 -10.275500
H -13.284600 -15.716700 -12.842000
H -13.251000 -17.335600 -11.198900
H -13.018700 -12.718000 -10.093900
C -12.688700 -14.565900 -11.125900
H -12.019700 -15.198400 -10.562100
O -11.879500 -13.782800 -11.986800
26
Fragment
H -20.653700 -14.430500 -2.866300
H -20.224500 -12.885400 -2.057800
N -20.112700 -13.498900 -2.606900
C -19.063200 -13.441800 -3.403800
N -18.842700 -14.578100 -4.167100
N -18.319000 -12.351100 -3.424300
C -17.825800 -14.492900 -4.934100
H -17.622900 -15.333900 -5.580800
C -17.241000 -12.354200 -4.186000
N -16.988200 -13.452400 -5.006500
O -16.424800 -11.416500 -4.215900
H -15.853900 -17.157500 -6.612900
O -15.833400 -14.487500 -6.780900
C -15.761600 -13.441000 -5.877900
H -15.712600 -12.490400 -6.387100
O -15.602000 -16.450400 -4.694200
C -15.090400 -16.685600 -6.012800
H -14.750200 -14.119900 -4.083100
C -14.686400 -15.391000 -6.653800
C -14.504300 -13.654100 -5.025900
H -14.263200 -15.716700 -7.592400
H -14.229700 -17.335600 -5.949300
H -13.997400 -12.718000 -4.844300
C -13.667400 -14.565900 -5.876400
H -12.998300 -15.198400 -5.312600
O -12.858200 -13.782800 -6.737300
52
Fragment
H -19.675100 -14.430500 -8.115800
H -19.245900 -12.885400 -7.307400
N -19.134100 -13.498900 -7.856500
C -18.084600 -13.441800 -8.653400
N -17.864100 -14.578100 -9.416700
N -17.340300 -12.351100 -8.673800
C -16.847100 -14.492900 -10.183600
H -16.644300 -15.333900 -10.830400
C -16.262300 -12.354200 -9.435600
N -16.009600 -13.452400 -10.256100
O -15.446200 -11.416500 -9.465500
H -14.875300 -17.157500 -11.862400
O -14.854700 -14.487500 -12.030400
C -14.783000 -13.441000 -11.127500
H -14.733900 -12.490400 -11.636700
O -14.623300 -16.450400 -9.943700
C -14.111800 -16.685600 -11.262400
H -13.771600 -14.119900 -9.332700
C -13.707700 -15.391000 -11.903400
C -13.525700 -13.654100 -10.275500
H -13.284600 -15.716700 -12.842000
H -13.251000 -17.335600 -11.198900
H -13.018700 -12.718000 -10.093900
C -12.688700 -14.565900 -11.125900
H -12.019700 -15.198400 -10.562100
O -11.879500 -13.782800 -11.986800
H -20.653700 -14.430500 -2.866300
H -20.224500 -12.885400 -2.057800
N -20.112700 -13.498900 -2.606900
C -19.063200 -13.441800 -3.403800
N -18.842700 -14.578100 -4.167100
N -18.319000 -12.351100 -3.424300
C -17.825800 -14.492900 -4.934100
H -17.622900 -15.333900 -5.580800
C -17.241000 -12.354200 -4.186000
N -16.988200 -13.452400 -5.006500
O -16.424800 -11.416500 -4.215900
H -15.853900 -17.157500 -6.612900
O -15.833400 -14.487500 -6.780900
C -15.761600 -13.441000 -5.877900
H -15.712600 -12.490400 -6.387100
O -15.602000 -16.450400 -4.694200
C -15.090400 -16.685600 -6.012800
H -14.750200 -14.119900 -4.083100
C -14.686400 -15.391000 -6.653800
C -14.504300 -13.654100 -5.025900
H -14.263200 -15.716700 -7.592400
H -14.229700 -17.335600 -5.949300
H -13.997400 -12.718000 -4.844300
C -13.667400 -14.565900 -5.876400
H -12.998300 -15.198400 -5.312600
O -12.858200 -13.782800 -6.737300
