26
Fragment
H -19.675100 -14.430500 -8.115800
H -19.245900 -12.885400 -7.307400
N -19.134100 -13.498900 -7.856500
C -18.084600 -13.441800 -8.653400
N -17.864100 -14.578100 -9.416700
N -17.340300 -12.351100 -8.673800
C -16.847100 -14.492900 -10.183600
H -16.644300 -15.333900 -10.830400
C -16.262300 -12.354200 -9.435600
N -16.009600 -13.452400 -10.256100
O -15.446200 -11.416500 -9.465500
H -14.875300 -17.157500 -11.862400
O -14.854700 -14.487500 -12.030400
C -14.783000 -13.441000 -11.127500
H -14.733900 -12.490400 -11.636700
O -14.623300 -16.450400 -9.943700
C -14.111800 -16.685600 -11.262400
H -13.771600 -14.119900 -9.332700
C -13.707700 -15.391000 -11.903400
C -13.525700 -13.654100 -10.275500
H -13.284600 -15.716700 -12.842000
H -13.251000 -17.335600 -11.198900
H -13.018700 -12.718000 -10.093900
C -12.688700 -14.565900 -11.125900
H -12.019700 -15.198400 -10.562100
O -11.879500 -13.782800 -11.986800
26
Fragment
O -25.645600 -9.977300 -3.761800
H -25.505400 -11.392900 -5.186600
C -24.836300 -10.760400 -4.622800
H -24.506400 -8.912500 -5.654800
H -24.274100 -13.530100 -4.549800
H -24.240500 -11.911200 -2.906700
C -23.999400 -9.848600 -5.473200
C -23.817400 -11.585500 -3.845300
H -23.753500 -10.314400 -6.416000
C -23.413300 -12.880100 -4.486300
O -22.901800 -12.644900 -5.805000
H -22.791200 -8.684900 -4.112000
C -22.742100 -9.635500 -4.621200
O -22.670400 -10.682000 -3.718300
H -22.649800 -13.352000 -3.886200
O -22.078900 -7.611000 -6.283200
N -21.515500 -9.646900 -5.492600
C -21.262800 -8.548700 -6.313100
H -20.880800 -11.528400 -4.918300
C -20.678000 -10.687400 -5.565100
N -20.184800 -8.545600 -7.074800
N -19.661000 -10.772600 -6.332000
C -19.440500 -9.636300 -7.095300
N -18.391000 -9.693400 -7.892200
H -18.279200 -9.079900 -8.441300
H -17.850000 -10.625000 -7.632900
52
Fragment
H -19.675100 -14.430500 -8.115800
H -19.245900 -12.885400 -7.307400
N -19.134100 -13.498900 -7.856500
C -18.084600 -13.441800 -8.653400
N -17.864100 -14.578100 -9.416700
N -17.340300 -12.351100 -8.673800
C -16.847100 -14.492900 -10.183600
H -16.644300 -15.333900 -10.830400
C -16.262300 -12.354200 -9.435600
N -16.009600 -13.452400 -10.256100
O -15.446200 -11.416500 -9.465500
H -14.875300 -17.157500 -11.862400
O -14.854700 -14.487500 -12.030400
C -14.783000 -13.441000 -11.127500
H -14.733900 -12.490400 -11.636700
O -14.623300 -16.450400 -9.943700
C -14.111800 -16.685600 -11.262400
H -13.771600 -14.119900 -9.332700
C -13.707700 -15.391000 -11.903400
C -13.525700 -13.654100 -10.275500
H -13.284600 -15.716700 -12.842000
H -13.251000 -17.335600 -11.198900
H -13.018700 -12.718000 -10.093900
C -12.688700 -14.565900 -11.125900
H -12.019700 -15.198400 -10.562100
O -11.879500 -13.782800 -11.986800
O -25.645600 -9.977300 -3.761800
H -25.505400 -11.392900 -5.186600
C -24.836300 -10.760400 -4.622800
H -24.506400 -8.912500 -5.654800
H -24.274100 -13.530100 -4.549800
H -24.240500 -11.911200 -2.906700
C -23.999400 -9.848600 -5.473200
C -23.817400 -11.585500 -3.845300
H -23.753500 -10.314400 -6.416000
C -23.413300 -12.880100 -4.486300
O -22.901800 -12.644900 -5.805000
H -22.791200 -8.684900 -4.112000
C -22.742100 -9.635500 -4.621200
O -22.670400 -10.682000 -3.718300
H -22.649800 -13.352000 -3.886200
O -22.078900 -7.611000 -6.283200
N -21.515500 -9.646900 -5.492600
C -21.262800 -8.548700 -6.313100
H -20.880800 -11.528400 -4.918300
C -20.678000 -10.687400 -5.565100
N -20.184800 -8.545600 -7.074800
N -19.661000 -10.772600 -6.332000
C -19.440500 -9.636300 -7.095300
N -18.391000 -9.693400 -7.892200
H -18.279200 -9.079900 -8.441300
H -17.850000 -10.625000 -7.632900
