26
Fragment
H -19.675100 -14.430500 -8.115800
H -19.245900 -12.885400 -7.307400
N -19.134100 -13.498900 -7.856500
C -18.084600 -13.441800 -8.653400
N -17.864100 -14.578100 -9.416700
N -17.340300 -12.351100 -8.673800
C -16.847100 -14.492900 -10.183600
H -16.644300 -15.333900 -10.830400
C -16.262300 -12.354200 -9.435600
N -16.009600 -13.452400 -10.256100
O -15.446200 -11.416500 -9.465500
H -14.875300 -17.157500 -11.862400
O -14.854700 -14.487500 -12.030400
C -14.783000 -13.441000 -11.127500
H -14.733900 -12.490400 -11.636700
O -14.623300 -16.450400 -9.943700
C -14.111800 -16.685600 -11.262400
H -13.771600 -14.119900 -9.332700
C -13.707700 -15.391000 -11.903400
C -13.525700 -13.654100 -10.275500
H -13.284600 -15.716700 -12.842000
H -13.251000 -17.335600 -11.198900
H -13.018700 -12.718000 -10.093900
C -12.688700 -14.565900 -11.125900
H -12.019700 -15.198400 -10.562100
O -11.879500 -13.782800 -11.986800
26
Fragment
H -19.675100 -22.041500 -8.115800
H -19.245900 -20.496400 -7.307400
N -19.134100 -21.109900 -7.856500
C -18.084600 -21.052800 -8.653400
N -17.864100 -22.189100 -9.416700
N -17.340300 -19.962100 -8.673800
C -16.847100 -22.103900 -10.183600
H -16.644300 -22.944900 -10.830400
C -16.262300 -19.965200 -9.435600
N -16.009600 -21.063400 -10.256100
O -15.446200 -19.027500 -9.465500
H -14.875300 -24.768500 -11.862400
O -14.854700 -22.098500 -12.030400
C -14.783000 -21.052000 -11.127500
H -14.733900 -20.101400 -11.636700
O -14.623300 -24.061400 -9.943700
C -14.111800 -24.296600 -11.262400
H -13.771600 -21.730900 -9.332700
C -13.707700 -23.002000 -11.903400
C -13.525700 -21.265100 -10.275500
H -13.284600 -23.327700 -12.842000
H -13.251000 -24.946600 -11.198900
H -13.018700 -20.329000 -10.093900
C -12.688700 -22.176900 -11.125900
H -12.019700 -22.809400 -10.562100
O -11.879500 -21.393800 -11.986800
52
Fragment
H -19.675100 -14.430500 -8.115800
H -19.245900 -12.885400 -7.307400
N -19.134100 -13.498900 -7.856500
C -18.084600 -13.441800 -8.653400
N -17.864100 -14.578100 -9.416700
N -17.340300 -12.351100 -8.673800
C -16.847100 -14.492900 -10.183600
H -16.644300 -15.333900 -10.830400
C -16.262300 -12.354200 -9.435600
N -16.009600 -13.452400 -10.256100
O -15.446200 -11.416500 -9.465500
H -14.875300 -17.157500 -11.862400
O -14.854700 -14.487500 -12.030400
C -14.783000 -13.441000 -11.127500
H -14.733900 -12.490400 -11.636700
O -14.623300 -16.450400 -9.943700
C -14.111800 -16.685600 -11.262400
H -13.771600 -14.119900 -9.332700
C -13.707700 -15.391000 -11.903400
C -13.525700 -13.654100 -10.275500
H -13.284600 -15.716700 -12.842000
H -13.251000 -17.335600 -11.198900
H -13.018700 -12.718000 -10.093900
C -12.688700 -14.565900 -11.125900
H -12.019700 -15.198400 -10.562100
O -11.879500 -13.782800 -11.986800
H -19.675100 -22.041500 -8.115800
H -19.245900 -20.496400 -7.307400
N -19.134100 -21.109900 -7.856500
C -18.084600 -21.052800 -8.653400
N -17.864100 -22.189100 -9.416700
N -17.340300 -19.962100 -8.673800
C -16.847100 -22.103900 -10.183600
H -16.644300 -22.944900 -10.830400
C -16.262300 -19.965200 -9.435600
N -16.009600 -21.063400 -10.256100
O -15.446200 -19.027500 -9.465500
H -14.875300 -24.768500 -11.862400
O -14.854700 -22.098500 -12.030400
C -14.783000 -21.052000 -11.127500
H -14.733900 -20.101400 -11.636700
O -14.623300 -24.061400 -9.943700
C -14.111800 -24.296600 -11.262400
H -13.771600 -21.730900 -9.332700
C -13.707700 -23.002000 -11.903400
C -13.525700 -21.265100 -10.275500
H -13.284600 -23.327700 -12.842000
H -13.251000 -24.946600 -11.198900
H -13.018700 -20.329000 -10.093900
C -12.688700 -22.176900 -11.125900
H -12.019700 -22.809400 -10.562100
O -11.879500 -21.393800 -11.986800
