26
Fragment
H -19.675100 -14.430500 -8.115800
H -19.245900 -12.885400 -7.307400
N -19.134100 -13.498900 -7.856500
C -18.084600 -13.441800 -8.653400
N -17.864100 -14.578100 -9.416700
N -17.340300 -12.351100 -8.673800
C -16.847100 -14.492900 -10.183600
H -16.644300 -15.333900 -10.830400
C -16.262300 -12.354200 -9.435600
N -16.009600 -13.452400 -10.256100
O -15.446200 -11.416500 -9.465500
H -14.875300 -17.157500 -11.862400
O -14.854700 -14.487500 -12.030400
C -14.783000 -13.441000 -11.127500
H -14.733900 -12.490400 -11.636700
O -14.623300 -16.450400 -9.943700
C -14.111800 -16.685600 -11.262400
H -13.771600 -14.119900 -9.332700
C -13.707700 -15.391000 -11.903400
C -13.525700 -13.654100 -10.275500
H -13.284600 -15.716700 -12.842000
H -13.251000 -17.335600 -11.198900
H -13.018700 -12.718000 -10.093900
C -12.688700 -14.565900 -11.125900
H -12.019700 -15.198400 -10.562100
O -11.879500 -13.782800 -11.986800
26
Fragment
H -19.675100 -6.819500 -8.115800
H -19.245900 -5.274400 -7.307400
N -19.134100 -5.887900 -7.856500
C -18.084600 -5.830800 -8.653400
N -17.864100 -6.967100 -9.416700
N -17.340300 -4.740100 -8.673800
C -16.847100 -6.881900 -10.183600
H -16.644300 -7.722900 -10.830400
C -16.262300 -4.743200 -9.435600
N -16.009600 -5.841400 -10.256100
O -15.446200 -3.805500 -9.465500
H -14.875300 -9.546500 -11.862400
O -14.854700 -6.876500 -12.030400
C -14.783000 -5.830000 -11.127500
H -14.733900 -4.879400 -11.636700
O -14.623300 -8.839400 -9.943700
C -14.111800 -9.074600 -11.262400
H -13.771600 -6.508900 -9.332700
C -13.707700 -7.780000 -11.903400
C -13.525700 -6.043100 -10.275500
H -13.284600 -8.105700 -12.842000
H -13.251000 -9.724600 -11.198900
H -13.018700 -5.107000 -10.093900
C -12.688700 -6.954900 -11.125900
H -12.019700 -7.587400 -10.562100
O -11.879500 -6.171800 -11.986800
52
Fragment
H -19.675100 -14.430500 -8.115800
H -19.245900 -12.885400 -7.307400
N -19.134100 -13.498900 -7.856500
C -18.084600 -13.441800 -8.653400
N -17.864100 -14.578100 -9.416700
N -17.340300 -12.351100 -8.673800
C -16.847100 -14.492900 -10.183600
H -16.644300 -15.333900 -10.830400
C -16.262300 -12.354200 -9.435600
N -16.009600 -13.452400 -10.256100
O -15.446200 -11.416500 -9.465500
H -14.875300 -17.157500 -11.862400
O -14.854700 -14.487500 -12.030400
C -14.783000 -13.441000 -11.127500
H -14.733900 -12.490400 -11.636700
O -14.623300 -16.450400 -9.943700
C -14.111800 -16.685600 -11.262400
H -13.771600 -14.119900 -9.332700
C -13.707700 -15.391000 -11.903400
C -13.525700 -13.654100 -10.275500
H -13.284600 -15.716700 -12.842000
H -13.251000 -17.335600 -11.198900
H -13.018700 -12.718000 -10.093900
C -12.688700 -14.565900 -11.125900
H -12.019700 -15.198400 -10.562100
O -11.879500 -13.782800 -11.986800
H -19.675100 -6.819500 -8.115800
H -19.245900 -5.274400 -7.307400
N -19.134100 -5.887900 -7.856500
C -18.084600 -5.830800 -8.653400
N -17.864100 -6.967100 -9.416700
N -17.340300 -4.740100 -8.673800
C -16.847100 -6.881900 -10.183600
H -16.644300 -7.722900 -10.830400
C -16.262300 -4.743200 -9.435600
N -16.009600 -5.841400 -10.256100
O -15.446200 -3.805500 -9.465500
H -14.875300 -9.546500 -11.862400
O -14.854700 -6.876500 -12.030400
C -14.783000 -5.830000 -11.127500
H -14.733900 -4.879400 -11.636700
O -14.623300 -8.839400 -9.943700
C -14.111800 -9.074600 -11.262400
H -13.771600 -6.508900 -9.332700
C -13.707700 -7.780000 -11.903400
C -13.525700 -6.043100 -10.275500
H -13.284600 -8.105700 -12.842000
H -13.251000 -9.724600 -11.198900
H -13.018700 -5.107000 -10.093900
C -12.688700 -6.954900 -11.125900
H -12.019700 -7.587400 -10.562100
O -11.879500 -6.171800 -11.986800
