26
Fragment
H -19.675100 -14.430500 -8.115800
H -19.245900 -12.885400 -7.307400
N -19.134100 -13.498900 -7.856500
C -18.084600 -13.441800 -8.653400
N -17.864100 -14.578100 -9.416700
N -17.340300 -12.351100 -8.673800
C -16.847100 -14.492900 -10.183600
H -16.644300 -15.333900 -10.830400
C -16.262300 -12.354200 -9.435600
N -16.009600 -13.452400 -10.256100
O -15.446200 -11.416500 -9.465500
H -14.875300 -17.157500 -11.862400
O -14.854700 -14.487500 -12.030400
C -14.783000 -13.441000 -11.127500
H -14.733900 -12.490400 -11.636700
O -14.623300 -16.450400 -9.943700
C -14.111800 -16.685600 -11.262400
H -13.771600 -14.119900 -9.332700
C -13.707700 -15.391000 -11.903400
C -13.525700 -13.654100 -10.275500
H -13.284600 -15.716700 -12.842000
H -13.251000 -17.335600 -11.198900
H -13.018700 -12.718000 -10.093900
C -12.688700 -14.565900 -11.125900
H -12.019700 -15.198400 -10.562100
O -11.879500 -13.782800 -11.986800
26
Fragment
H -18.696500 -14.430500 -13.365400
H -18.267200 -12.885400 -12.556900
N -18.155400 -13.498900 -13.106000
C -17.105900 -13.441800 -13.902900
N -16.885400 -14.578100 -14.666200
N -16.361700 -12.351100 -13.923400
C -15.868500 -14.492900 -15.433200
H -15.665700 -15.333900 -16.079900
C -15.283700 -12.354200 -14.685100
N -15.030900 -13.452400 -15.505600
O -14.467500 -11.416500 -14.715000
H -13.896600 -17.157500 -17.112000
O -13.876100 -14.487500 -17.280000
C -13.804400 -13.441000 -16.377100
H -13.755300 -12.490400 -16.886300
O -13.644700 -16.450400 -15.193300
C -13.133200 -16.685600 -16.512000
H -12.792900 -14.119900 -14.582200
C -12.729100 -15.391000 -17.152900
C -12.547000 -13.654100 -15.525000
H -12.306000 -15.716700 -18.091600
H -12.272400 -17.335600 -16.448400
H -12.040100 -12.718000 -15.343400
C -11.710100 -14.565900 -16.375500
H -11.041100 -15.198400 -15.811700
O -10.900900 -13.782800 -17.236400
52
Fragment
H -19.675100 -14.430500 -8.115800
H -19.245900 -12.885400 -7.307400
N -19.134100 -13.498900 -7.856500
C -18.084600 -13.441800 -8.653400
N -17.864100 -14.578100 -9.416700
N -17.340300 -12.351100 -8.673800
C -16.847100 -14.492900 -10.183600
H -16.644300 -15.333900 -10.830400
C -16.262300 -12.354200 -9.435600
N -16.009600 -13.452400 -10.256100
O -15.446200 -11.416500 -9.465500
H -14.875300 -17.157500 -11.862400
O -14.854700 -14.487500 -12.030400
C -14.783000 -13.441000 -11.127500
H -14.733900 -12.490400 -11.636700
O -14.623300 -16.450400 -9.943700
C -14.111800 -16.685600 -11.262400
H -13.771600 -14.119900 -9.332700
C -13.707700 -15.391000 -11.903400
C -13.525700 -13.654100 -10.275500
H -13.284600 -15.716700 -12.842000
H -13.251000 -17.335600 -11.198900
H -13.018700 -12.718000 -10.093900
C -12.688700 -14.565900 -11.125900
H -12.019700 -15.198400 -10.562100
O -11.879500 -13.782800 -11.986800
H -18.696500 -14.430500 -13.365400
H -18.267200 -12.885400 -12.556900
N -18.155400 -13.498900 -13.106000
C -17.105900 -13.441800 -13.902900
N -16.885400 -14.578100 -14.666200
N -16.361700 -12.351100 -13.923400
C -15.868500 -14.492900 -15.433200
H -15.665700 -15.333900 -16.079900
C -15.283700 -12.354200 -14.685100
N -15.030900 -13.452400 -15.505600
O -14.467500 -11.416500 -14.715000
H -13.896600 -17.157500 -17.112000
O -13.876100 -14.487500 -17.280000
C -13.804400 -13.441000 -16.377100
H -13.755300 -12.490400 -16.886300
O -13.644700 -16.450400 -15.193300
C -13.133200 -16.685600 -16.512000
H -12.792900 -14.119900 -14.582200
C -12.729100 -15.391000 -17.152900
C -12.547000 -13.654100 -15.525000
H -12.306000 -15.716700 -18.091600
H -12.272400 -17.335600 -16.448400
H -12.040100 -12.718000 -15.343400
C -11.710100 -14.565900 -16.375500
H -11.041100 -15.198400 -15.811700
O -10.900900 -13.782800 -17.236400
