26
Fragment
H -19.675100 -14.430500 -8.115800
H -19.245900 -12.885400 -7.307400
N -19.134100 -13.498900 -7.856500
C -18.084600 -13.441800 -8.653400
N -17.864100 -14.578100 -9.416700
N -17.340300 -12.351100 -8.673800
C -16.847100 -14.492900 -10.183600
H -16.644300 -15.333900 -10.830400
C -16.262300 -12.354200 -9.435600
N -16.009600 -13.452400 -10.256100
O -15.446200 -11.416500 -9.465500
H -14.875300 -17.157500 -11.862400
O -14.854700 -14.487500 -12.030400
C -14.783000 -13.441000 -11.127500
H -14.733900 -12.490400 -11.636700
O -14.623300 -16.450400 -9.943700
C -14.111800 -16.685600 -11.262400
H -13.771600 -14.119900 -9.332700
C -13.707700 -15.391000 -11.903400
C -13.525700 -13.654100 -10.275500
H -13.284600 -15.716700 -12.842000
H -13.251000 -17.335600 -11.198900
H -13.018700 -12.718000 -10.093900
C -12.688700 -14.565900 -11.125900
H -12.019700 -15.198400 -10.562100
O -11.879500 -13.782800 -11.986800
26
Fragment
O -24.666900 -9.977300 -9.011400
H -24.526800 -11.392900 -10.436100
C -23.857700 -10.760400 -9.872300
H -23.527700 -8.912500 -10.904400
H -23.295400 -13.530100 -9.799400
H -23.261900 -11.911200 -8.156200
C -23.020800 -9.848600 -10.722700
C -22.838700 -11.585500 -9.094900
H -22.774900 -10.314400 -11.665600
C -22.434600 -12.880100 -9.735800
O -21.923100 -12.644900 -11.054500
H -21.812500 -8.684900 -9.361500
C -21.763500 -9.635500 -9.870700
O -21.691700 -10.682000 -8.967800
H -21.671200 -13.352000 -9.135800
O -21.100300 -7.611000 -11.532800
N -20.536900 -9.646900 -10.742200
C -20.284100 -8.548700 -11.562700
H -19.902200 -11.528400 -10.167900
C -19.699300 -10.687400 -10.814600
N -19.206100 -8.545600 -12.324400
N -18.682400 -10.772600 -11.581600
C -18.461900 -9.636300 -12.344900
N -17.412400 -9.693400 -13.141700
H -17.300600 -9.079900 -13.690900
H -16.871400 -10.625000 -12.882400
52
Fragment
H -19.675100 -14.430500 -8.115800
H -19.245900 -12.885400 -7.307400
N -19.134100 -13.498900 -7.856500
C -18.084600 -13.441800 -8.653400
N -17.864100 -14.578100 -9.416700
N -17.340300 -12.351100 -8.673800
C -16.847100 -14.492900 -10.183600
H -16.644300 -15.333900 -10.830400
C -16.262300 -12.354200 -9.435600
N -16.009600 -13.452400 -10.256100
O -15.446200 -11.416500 -9.465500
H -14.875300 -17.157500 -11.862400
O -14.854700 -14.487500 -12.030400
C -14.783000 -13.441000 -11.127500
H -14.733900 -12.490400 -11.636700
O -14.623300 -16.450400 -9.943700
C -14.111800 -16.685600 -11.262400
H -13.771600 -14.119900 -9.332700
C -13.707700 -15.391000 -11.903400
C -13.525700 -13.654100 -10.275500
H -13.284600 -15.716700 -12.842000
H -13.251000 -17.335600 -11.198900
H -13.018700 -12.718000 -10.093900
C -12.688700 -14.565900 -11.125900
H -12.019700 -15.198400 -10.562100
O -11.879500 -13.782800 -11.986800
O -24.666900 -9.977300 -9.011400
H -24.526800 -11.392900 -10.436100
C -23.857700 -10.760400 -9.872300
H -23.527700 -8.912500 -10.904400
H -23.295400 -13.530100 -9.799400
H -23.261900 -11.911200 -8.156200
C -23.020800 -9.848600 -10.722700
C -22.838700 -11.585500 -9.094900
H -22.774900 -10.314400 -11.665600
C -22.434600 -12.880100 -9.735800
O -21.923100 -12.644900 -11.054500
H -21.812500 -8.684900 -9.361500
C -21.763500 -9.635500 -9.870700
O -21.691700 -10.682000 -8.967800
H -21.671200 -13.352000 -9.135800
O -21.100300 -7.611000 -11.532800
N -20.536900 -9.646900 -10.742200
C -20.284100 -8.548700 -11.562700
H -19.902200 -11.528400 -10.167900
C -19.699300 -10.687400 -10.814600
N -19.206100 -8.545600 -12.324400
N -18.682400 -10.772600 -11.581600
C -18.461900 -9.636300 -12.344900
N -17.412400 -9.693400 -13.141700
H -17.300600 -9.079900 -13.690900
H -16.871400 -10.625000 -12.882400
