20
Fragment
N -14.966300 -12.256600 -66.747500
C -13.875800 -11.926300 -66.873700
F -13.756000 -11.431400 -69.424400
F -12.504500 -10.683800 -71.615400
C -12.493000 -11.525900 -66.903300
C -12.478300 -11.061800 -69.336000
C -11.868600 -11.626700 -65.616300
C -11.843600 -11.107300 -68.046400
C -11.842000 -10.668400 -70.462400
N -11.474700 -11.764600 -64.550400
N -10.843400 -9.551200 -73.950700
C -10.469500 -10.239300 -70.460700
C -10.466200 -10.686600 -68.052000
C -10.436600 -9.701000 -72.890800
C -9.833300 -10.293200 -69.169400
C -9.813100 -9.811600 -71.600400
F -9.803900 -10.683100 -66.904600
F -8.556900 -9.915200 -69.079300
C -8.444300 -9.400700 -71.611100
N -7.353000 -9.062600 -71.702100
36
Fragment
H -9.112200 -8.850500 -78.771900
H -9.082000 -8.313000 -76.363600
C -8.209100 -9.140300 -78.719500
C -8.184600 -8.619600 -76.305300
H -8.062400 -9.562400 -80.665000
H -7.969200 -8.228300 -74.337500
C -7.588800 -9.567300 -79.840800
C -7.536600 -9.114400 -77.455700
C -7.530400 -8.576200 -75.102400
H -7.144900 -10.193100 -82.330500
C -6.240900 -10.480100 -82.284200
C -6.230400 -10.027200 -79.815900
C -6.218100 -9.044400 -75.004100
C -6.197900 -9.575700 -77.372000
H -6.093900 -10.889600 -84.236500
H -5.773400 -9.020600 -74.165700
C -5.616200 -10.888900 -83.417000
C -5.565200 -10.471000 -81.016500
C -5.557700 -9.542100 -76.110800
C -5.535700 -10.037700 -78.580800
H -4.668100 -9.864100 -76.024500
C -4.253000 -11.318000 -83.396400
C -4.214700 -10.898000 -80.961600
C -4.184200 -10.476600 -78.566200
H -4.085500 -11.723300 -85.412700
H -3.708100 -10.480800 -77.745900
C -3.608600 -11.728200 -84.590200
C -3.548400 -10.894500 -79.704700
C -3.543000 -11.329900 -82.171700
H -2.645900 -11.187800 -79.656200
C -2.293100 -12.134900 -84.562300
C -2.193300 -11.770900 -82.179900
H -1.865200 -12.403600 -85.365500
H -1.703600 -11.801700 -81.364700
C -1.585000 -12.154500 -83.358700
H -0.676800 -12.435100 -83.352200
56
Fragment
N -14.966300 -12.256600 -66.747500
C -13.875800 -11.926300 -66.873700
F -13.756000 -11.431400 -69.424400
F -12.504500 -10.683800 -71.615400
C -12.493000 -11.525900 -66.903300
C -12.478300 -11.061800 -69.336000
C -11.868600 -11.626700 -65.616300
C -11.843600 -11.107300 -68.046400
C -11.842000 -10.668400 -70.462400
N -11.474700 -11.764600 -64.550400
N -10.843400 -9.551200 -73.950700
C -10.469500 -10.239300 -70.460700
C -10.466200 -10.686600 -68.052000
C -10.436600 -9.701000 -72.890800
C -9.833300 -10.293200 -69.169400
C -9.813100 -9.811600 -71.600400
F -9.803900 -10.683100 -66.904600
F -8.556900 -9.915200 -69.079300
C -8.444300 -9.400700 -71.611100
N -7.353000 -9.062600 -71.702100
H -9.112200 -8.850500 -78.771900
H -9.082000 -8.313000 -76.363600
C -8.209100 -9.140300 -78.719500
C -8.184600 -8.619600 -76.305300
H -8.062400 -9.562400 -80.665000
H -7.969200 -8.228300 -74.337500
C -7.588800 -9.567300 -79.840800
C -7.536600 -9.114400 -77.455700
C -7.530400 -8.576200 -75.102400
H -7.144900 -10.193100 -82.330500
C -6.240900 -10.480100 -82.284200
C -6.230400 -10.027200 -79.815900
C -6.218100 -9.044400 -75.004100
C -6.197900 -9.575700 -77.372000
H -6.093900 -10.889600 -84.236500
H -5.773400 -9.020600 -74.165700
C -5.616200 -10.888900 -83.417000
C -5.565200 -10.471000 -81.016500
C -5.557700 -9.542100 -76.110800
C -5.535700 -10.037700 -78.580800
H -4.668100 -9.864100 -76.024500
C -4.253000 -11.318000 -83.396400
C -4.214700 -10.898000 -80.961600
C -4.184200 -10.476600 -78.566200
H -4.085500 -11.723300 -85.412700
H -3.708100 -10.480800 -77.745900
C -3.608600 -11.728200 -84.590200
C -3.548400 -10.894500 -79.704700
C -3.543000 -11.329900 -82.171700
H -2.645900 -11.187800 -79.656200
C -2.293100 -12.134900 -84.562300
C -2.193300 -11.770900 -82.179900
H -1.865200 -12.403600 -85.365500
H -1.703600 -11.801700 -81.364700
C -1.585000 -12.154500 -83.358700
H -0.676800 -12.435100 -83.352200
