20
Fragment
N -14.966300 -12.256600 -66.747500
C -13.875800 -11.926300 -66.873700
F -13.756000 -11.431400 -69.424400
F -12.504500 -10.683800 -71.615400
C -12.493000 -11.525900 -66.903300
C -12.478300 -11.061800 -69.336000
C -11.868600 -11.626700 -65.616300
C -11.843600 -11.107300 -68.046400
C -11.842000 -10.668400 -70.462400
N -11.474700 -11.764600 -64.550400
N -10.843400 -9.551200 -73.950700
C -10.469500 -10.239300 -70.460700
C -10.466200 -10.686600 -68.052000
C -10.436600 -9.701000 -72.890800
C -9.833300 -10.293200 -69.169400
C -9.813100 -9.811600 -71.600400
F -9.803900 -10.683100 -66.904600
F -8.556900 -9.915200 -69.079300
C -8.444300 -9.400700 -71.611100
N -7.353000 -9.062600 -71.702100
36
Fragment
H -23.294200 -15.935000 -66.893800
C -22.385900 -15.654400 -66.887400
H -22.267300 -15.301600 -68.881400
H -22.105700 -15.903500 -64.880500
C -21.777600 -15.270800 -68.066200
C -21.677800 -15.634800 -65.683700
H -21.325000 -14.687700 -70.589900
C -20.427900 -14.829800 -68.074300
C -20.422600 -14.394400 -70.541400
C -20.362300 -15.228100 -65.655800
H -20.262800 -13.980700 -72.500200
H -19.885500 -15.223200 -64.833300
C -19.786700 -13.976500 -71.679800
C -19.756200 -14.397900 -69.284500
C -19.717900 -14.817900 -66.849600
H -19.302800 -13.364000 -74.221600
C -18.435200 -13.537600 -71.665200
C -18.413200 -13.042000 -74.135300
C -18.405700 -13.970900 -69.229500
C -18.354700 -14.388800 -66.829000
H -18.197600 -12.520500 -76.080300
H -17.877000 -14.389500 -66.009500
C -17.773100 -13.075600 -72.874100
C -17.752800 -12.544300 -75.241900
C -17.740600 -13.527100 -70.430200
C -17.730100 -13.980000 -67.961900
H -16.826000 -13.693000 -67.915500
C -16.440600 -12.076100 -75.143600
C -16.434300 -12.614300 -72.790400
C -16.382200 -13.067200 -70.405300
H -16.001700 -11.728200 -75.908600
H -15.908500 -13.062300 -69.581100
C -15.786300 -12.119500 -73.940800
C -15.761800 -12.640200 -71.526600
H -14.888900 -11.812900 -73.882400
H -14.858700 -12.350400 -71.474200
56
Fragment
N -14.966300 -12.256600 -66.747500
C -13.875800 -11.926300 -66.873700
F -13.756000 -11.431400 -69.424400
F -12.504500 -10.683800 -71.615400
C -12.493000 -11.525900 -66.903300
C -12.478300 -11.061800 -69.336000
C -11.868600 -11.626700 -65.616300
C -11.843600 -11.107300 -68.046400
C -11.842000 -10.668400 -70.462400
N -11.474700 -11.764600 -64.550400
N -10.843400 -9.551200 -73.950700
C -10.469500 -10.239300 -70.460700
C -10.466200 -10.686600 -68.052000
C -10.436600 -9.701000 -72.890800
C -9.833300 -10.293200 -69.169400
C -9.813100 -9.811600 -71.600400
F -9.803900 -10.683100 -66.904600
F -8.556900 -9.915200 -69.079300
C -8.444300 -9.400700 -71.611100
N -7.353000 -9.062600 -71.702100
H -23.294200 -15.935000 -66.893800
C -22.385900 -15.654400 -66.887400
H -22.267300 -15.301600 -68.881400
H -22.105700 -15.903500 -64.880500
C -21.777600 -15.270800 -68.066200
C -21.677800 -15.634800 -65.683700
H -21.325000 -14.687700 -70.589900
C -20.427900 -14.829800 -68.074300
C -20.422600 -14.394400 -70.541400
C -20.362300 -15.228100 -65.655800
H -20.262800 -13.980700 -72.500200
H -19.885500 -15.223200 -64.833300
C -19.786700 -13.976500 -71.679800
C -19.756200 -14.397900 -69.284500
C -19.717900 -14.817900 -66.849600
H -19.302800 -13.364000 -74.221600
C -18.435200 -13.537600 -71.665200
C -18.413200 -13.042000 -74.135300
C -18.405700 -13.970900 -69.229500
C -18.354700 -14.388800 -66.829000
H -18.197600 -12.520500 -76.080300
H -17.877000 -14.389500 -66.009500
C -17.773100 -13.075600 -72.874100
C -17.752800 -12.544300 -75.241900
C -17.740600 -13.527100 -70.430200
C -17.730100 -13.980000 -67.961900
H -16.826000 -13.693000 -67.915500
C -16.440600 -12.076100 -75.143600
C -16.434300 -12.614300 -72.790400
C -16.382200 -13.067200 -70.405300
H -16.001700 -11.728200 -75.908600
H -15.908500 -13.062300 -69.581100
C -15.786300 -12.119500 -73.940800
C -15.761800 -12.640200 -71.526600
H -14.888900 -11.812900 -73.882400
H -14.858700 -12.350400 -71.474200
