20
Fragment
N -14.966300 -12.256600 -66.747500
C -13.875800 -11.926300 -66.873700
F -13.756000 -11.431400 -69.424400
F -12.504500 -10.683800 -71.615400
C -12.493000 -11.525900 -66.903300
C -12.478300 -11.061800 -69.336000
C -11.868600 -11.626700 -65.616300
C -11.843600 -11.107300 -68.046400
C -11.842000 -10.668400 -70.462400
N -11.474700 -11.764600 -64.550400
N -10.843400 -9.551200 -73.950700
C -10.469500 -10.239300 -70.460700
C -10.466200 -10.686600 -68.052000
C -10.436600 -9.701000 -72.890800
C -9.833300 -10.293200 -69.169400
C -9.813100 -9.811600 -71.600400
F -9.803900 -10.683100 -66.904600
F -8.556900 -9.915200 -69.079300
C -8.444300 -9.400700 -71.611100
N -7.353000 -9.062600 -71.702100
20
Fragment
N -7.046600 -12.256600 -66.747500
C -5.956100 -11.926300 -66.873700
F -5.836300 -11.431400 -69.424400
F -4.584800 -10.683800 -71.615400
C -4.573300 -11.525900 -66.903300
C -4.558600 -11.061800 -69.336000
C -3.948900 -11.626700 -65.616300
C -3.923900 -11.107300 -68.046400
C -3.922300 -10.668400 -70.462400
N -3.555000 -11.764600 -64.550400
N -2.923700 -9.551200 -73.950700
C -2.549800 -10.239300 -70.460700
C -2.546500 -10.686600 -68.052000
C -2.516900 -9.701000 -72.890800
C -1.913600 -10.293200 -69.169400
C -1.893400 -9.811600 -71.600400
F -1.884200 -10.683100 -66.904600
F -0.637200 -9.915200 -69.079300
C -0.524600 -9.400700 -71.611100
N 0.566700 -9.062600 -71.702100
40
Fragment
N -14.966300 -12.256600 -66.747500
C -13.875800 -11.926300 -66.873700
F -13.756000 -11.431400 -69.424400
F -12.504500 -10.683800 -71.615400
C -12.493000 -11.525900 -66.903300
C -12.478300 -11.061800 -69.336000
C -11.868600 -11.626700 -65.616300
C -11.843600 -11.107300 -68.046400
C -11.842000 -10.668400 -70.462400
N -11.474700 -11.764600 -64.550400
N -10.843400 -9.551200 -73.950700
C -10.469500 -10.239300 -70.460700
C -10.466200 -10.686600 -68.052000
C -10.436600 -9.701000 -72.890800
C -9.833300 -10.293200 -69.169400
C -9.813100 -9.811600 -71.600400
F -9.803900 -10.683100 -66.904600
F -8.556900 -9.915200 -69.079300
C -8.444300 -9.400700 -71.611100
N -7.353000 -9.062600 -71.702100
N -7.046600 -12.256600 -66.747500
C -5.956100 -11.926300 -66.873700
F -5.836300 -11.431400 -69.424400
F -4.584800 -10.683800 -71.615400
C -4.573300 -11.525900 -66.903300
C -4.558600 -11.061800 -69.336000
C -3.948900 -11.626700 -65.616300
C -3.923900 -11.107300 -68.046400
C -3.922300 -10.668400 -70.462400
N -3.555000 -11.764600 -64.550400
N -2.923700 -9.551200 -73.950700
C -2.549800 -10.239300 -70.460700
C -2.546500 -10.686600 -68.052000
C -2.516900 -9.701000 -72.890800
C -1.913600 -10.293200 -69.169400
C -1.893400 -9.811600 -71.600400
F -1.884200 -10.683100 -66.904600
F -0.637200 -9.915200 -69.079300
C -0.524600 -9.400700 -71.611100
N 0.566700 -9.062600 -71.702100
