20
Fragment
N -14.966300 -12.256600 -66.747500
C -13.875800 -11.926300 -66.873700
F -13.756000 -11.431400 -69.424400
F -12.504500 -10.683800 -71.615400
C -12.493000 -11.525900 -66.903300
C -12.478300 -11.061800 -69.336000
C -11.868600 -11.626700 -65.616300
C -11.843600 -11.107300 -68.046400
C -11.842000 -10.668400 -70.462400
N -11.474700 -11.764600 -64.550400
N -10.843400 -9.551200 -73.950700
C -10.469500 -10.239300 -70.460700
C -10.466200 -10.686600 -68.052000
C -10.436600 -9.701000 -72.890800
C -9.833300 -10.293200 -69.169400
C -9.813100 -9.811600 -71.600400
F -9.803900 -10.683100 -66.904600
F -8.556900 -9.915200 -69.079300
C -8.444300 -9.400700 -71.611100
N -7.353000 -9.062600 -71.702100
36
Fragment
H -13.607500 -15.648800 -57.308100
H -13.577300 -16.186300 -54.899900
C -12.704400 -15.359000 -57.255800
C -12.679900 -15.879700 -54.841500
H -12.557700 -14.936900 -59.201200
H -12.464500 -16.271000 -52.873700
C -12.084000 -14.932000 -58.377000
C -12.031900 -15.384900 -55.992000
C -12.025600 -15.923100 -53.638700
H -11.640200 -14.306200 -60.866800
C -10.736100 -14.019200 -60.820500
C -10.725600 -14.472100 -58.352100
C -10.713400 -15.454900 -53.540400
C -10.693200 -14.923600 -55.908300
H -10.589200 -13.609700 -62.772800
H -10.268700 -15.478700 -52.702000
C -10.111500 -13.610400 -61.953300
C -10.060500 -14.028300 -59.552800
C -10.053000 -14.957200 -54.647100
C -10.031000 -14.461600 -57.117100
H -9.163400 -14.635200 -54.560800
C -8.748300 -13.181300 -61.932700
C -8.710000 -13.601300 -59.497900
C -8.679500 -14.022700 -57.102500
H -8.580800 -12.776000 -63.949000
H -8.203400 -14.018500 -56.282200
C -8.103900 -12.771100 -63.126500
C -8.043600 -13.604800 -58.241000
C -8.038300 -13.169400 -60.708000
H -7.141200 -13.311500 -58.192400
C -6.788400 -12.364400 -63.098600
C -6.688600 -12.728400 -60.716100
H -6.360500 -12.095700 -63.901800
H -6.198900 -12.697600 -59.901000
C -6.080300 -12.344800 -61.894900
H -5.172000 -12.064200 -61.888500
56
Fragment
N -14.966300 -12.256600 -66.747500
C -13.875800 -11.926300 -66.873700
F -13.756000 -11.431400 -69.424400
F -12.504500 -10.683800 -71.615400
C -12.493000 -11.525900 -66.903300
C -12.478300 -11.061800 -69.336000
C -11.868600 -11.626700 -65.616300
C -11.843600 -11.107300 -68.046400
C -11.842000 -10.668400 -70.462400
N -11.474700 -11.764600 -64.550400
N -10.843400 -9.551200 -73.950700
C -10.469500 -10.239300 -70.460700
C -10.466200 -10.686600 -68.052000
C -10.436600 -9.701000 -72.890800
C -9.833300 -10.293200 -69.169400
C -9.813100 -9.811600 -71.600400
F -9.803900 -10.683100 -66.904600
F -8.556900 -9.915200 -69.079300
C -8.444300 -9.400700 -71.611100
N -7.353000 -9.062600 -71.702100
H -13.607500 -15.648800 -57.308100
H -13.577300 -16.186300 -54.899900
C -12.704400 -15.359000 -57.255800
C -12.679900 -15.879700 -54.841500
H -12.557700 -14.936900 -59.201200
H -12.464500 -16.271000 -52.873700
C -12.084000 -14.932000 -58.377000
C -12.031900 -15.384900 -55.992000
C -12.025600 -15.923100 -53.638700
H -11.640200 -14.306200 -60.866800
C -10.736100 -14.019200 -60.820500
C -10.725600 -14.472100 -58.352100
C -10.713400 -15.454900 -53.540400
C -10.693200 -14.923600 -55.908300
H -10.589200 -13.609700 -62.772800
H -10.268700 -15.478700 -52.702000
C -10.111500 -13.610400 -61.953300
C -10.060500 -14.028300 -59.552800
C -10.053000 -14.957200 -54.647100
C -10.031000 -14.461600 -57.117100
H -9.163400 -14.635200 -54.560800
C -8.748300 -13.181300 -61.932700
C -8.710000 -13.601300 -59.497900
C -8.679500 -14.022700 -57.102500
H -8.580800 -12.776000 -63.949000
H -8.203400 -14.018500 -56.282200
C -8.103900 -12.771100 -63.126500
C -8.043600 -13.604800 -58.241000
C -8.038300 -13.169400 -60.708000
H -7.141200 -13.311500 -58.192400
C -6.788400 -12.364400 -63.098600
C -6.688600 -12.728400 -60.716100
H -6.360500 -12.095700 -63.901800
H -6.198900 -12.697600 -59.901000
C -6.080300 -12.344800 -61.894900
H -5.172000 -12.064200 -61.888500
