30
Fragment
H -24.946700 -4.710800 -17.639400
C -24.002000 -4.773900 -17.928600
H -23.925700 -5.531600 -18.561100
O -23.622900 -3.561200 -18.588700
H -23.390700 -5.877400 -16.279300
H -23.217100 -4.295400 -16.067500
C -23.121200 -5.033100 -16.720700
C -22.270900 -3.645200 -19.031000
H -22.180000 -4.387000 -19.680800
H -22.020000 -2.804100 -19.488500
N -21.732100 -5.126000 -17.172100
H -21.405400 -3.117600 -17.213500
C -21.334700 -3.883100 -17.853100
H -20.932600 -4.628100 -15.472200
N -20.876700 -5.351400 -16.023300
N -19.960500 -3.992600 -18.323600
H -19.904600 -4.715900 -18.874800
C -19.502500 -5.460900 -16.493900
H -19.431800 -6.226400 -17.133400
N -19.105100 -4.218000 -17.174800
H -18.817200 -6.539900 -14.858500
H -18.657200 -4.957000 -14.666100
C -18.566300 -5.698800 -15.316000
C -17.716000 -4.310900 -17.626300
H -17.620100 -5.048600 -18.279400
H -17.446500 -3.466600 -18.067600
O -17.214300 -5.782800 -15.758300
H -16.911500 -3.812400 -15.785900
C -16.835200 -4.570100 -16.418300
H -15.890400 -4.633200 -16.707500
30
Fragment
H -18.140500 -6.969200 -11.915000
C -17.195800 -6.906100 -12.204200
H -17.119500 -6.148400 -12.836600
O -16.816700 -8.118800 -12.864200
H -16.584500 -5.802600 -10.554800
H -16.410900 -7.384600 -10.343000
C -16.315000 -6.646900 -10.996200
C -15.464700 -8.034800 -13.306500
H -15.373800 -7.293000 -13.956300
H -15.213800 -8.875900 -13.764000
N -14.925900 -6.554000 -11.447600
H -14.599200 -8.562400 -11.489100
C -14.528500 -7.796900 -12.128600
H -14.126400 -7.051900 -9.747700
N -14.070500 -6.328600 -10.298800
N -13.154300 -7.687400 -12.599100
H -13.098400 -6.964100 -13.150300
C -12.696300 -6.219100 -10.769400
H -12.625600 -5.453600 -11.408900
N -12.298900 -7.462000 -11.450400
H -12.011000 -5.140100 -9.134000
H -11.851000 -6.723000 -8.941700
C -11.760100 -5.981200 -9.591500
C -10.909800 -7.369100 -11.901800
H -10.813900 -6.631400 -12.555000
H -10.640300 -8.213400 -12.343100
O -10.408100 -5.897200 -10.033800
H -10.105300 -7.867600 -10.061400
C -10.029000 -7.109900 -10.693800
H -9.084200 -7.046800 -10.983000
60
Fragment
H -24.946700 -4.710800 -17.639400
C -24.002000 -4.773900 -17.928600
H -23.925700 -5.531600 -18.561100
O -23.622900 -3.561200 -18.588700
H -23.390700 -5.877400 -16.279300
H -23.217100 -4.295400 -16.067500
C -23.121200 -5.033100 -16.720700
C -22.270900 -3.645200 -19.031000
H -22.180000 -4.387000 -19.680800
H -22.020000 -2.804100 -19.488500
N -21.732100 -5.126000 -17.172100
H -21.405400 -3.117600 -17.213500
C -21.334700 -3.883100 -17.853100
H -20.932600 -4.628100 -15.472200
N -20.876700 -5.351400 -16.023300
N -19.960500 -3.992600 -18.323600
H -19.904600 -4.715900 -18.874800
C -19.502500 -5.460900 -16.493900
H -19.431800 -6.226400 -17.133400
N -19.105100 -4.218000 -17.174800
H -18.817200 -6.539900 -14.858500
H -18.657200 -4.957000 -14.666100
C -18.566300 -5.698800 -15.316000
C -17.716000 -4.310900 -17.626300
H -17.620100 -5.048600 -18.279400
H -17.446500 -3.466600 -18.067600
O -17.214300 -5.782800 -15.758300
H -16.911500 -3.812400 -15.785900
C -16.835200 -4.570100 -16.418300
H -15.890400 -4.633200 -16.707500
H -18.140500 -6.969200 -11.915000
C -17.195800 -6.906100 -12.204200
H -17.119500 -6.148400 -12.836600
O -16.816700 -8.118800 -12.864200
H -16.584500 -5.802600 -10.554800
H -16.410900 -7.384600 -10.343000
C -16.315000 -6.646900 -10.996200
C -15.464700 -8.034800 -13.306500
H -15.373800 -7.293000 -13.956300
H -15.213800 -8.875900 -13.764000
N -14.925900 -6.554000 -11.447600
H -14.599200 -8.562400 -11.489100
C -14.528500 -7.796900 -12.128600
H -14.126400 -7.051900 -9.747700
N -14.070500 -6.328600 -10.298800
N -13.154300 -7.687400 -12.599100
H -13.098400 -6.964100 -13.150300
C -12.696300 -6.219100 -10.769400
H -12.625600 -5.453600 -11.408900
N -12.298900 -7.462000 -11.450400
H -12.011000 -5.140100 -9.134000
H -11.851000 -6.723000 -8.941700
C -11.760100 -5.981200 -9.591500
C -10.909800 -7.369100 -11.901800
H -10.813900 -6.631400 -12.555000
H -10.640300 -8.213400 -12.343100
O -10.408100 -5.897200 -10.033800
H -10.105300 -7.867600 -10.061400
C -10.029000 -7.109900 -10.693800
H -9.084200 -7.046800 -10.983000
