30
Fragment
H -24.946700 -4.710800 -17.639400
C -24.002000 -4.773900 -17.928600
H -23.925700 -5.531600 -18.561100
O -23.622900 -3.561200 -18.588700
H -23.390700 -5.877400 -16.279300
H -23.217100 -4.295400 -16.067500
C -23.121200 -5.033100 -16.720700
C -22.270900 -3.645200 -19.031000
H -22.180000 -4.387000 -19.680800
H -22.020000 -2.804100 -19.488500
N -21.732100 -5.126000 -17.172100
H -21.405400 -3.117600 -17.213500
C -21.334700 -3.883100 -17.853100
H -20.932600 -4.628100 -15.472200
N -20.876700 -5.351400 -16.023300
N -19.960500 -3.992600 -18.323600
H -19.904600 -4.715900 -18.874800
C -19.502500 -5.460900 -16.493900
H -19.431800 -6.226400 -17.133400
N -19.105100 -4.218000 -17.174800
H -18.817200 -6.539900 -14.858500
H -18.657200 -4.957000 -14.666100
C -18.566300 -5.698800 -15.316000
C -17.716000 -4.310900 -17.626300
H -17.620100 -5.048600 -18.279400
H -17.446500 -3.466600 -18.067600
O -17.214300 -5.782800 -15.758300
H -16.911500 -3.812400 -15.785900
C -16.835200 -4.570100 -16.418300
H -15.890400 -4.633200 -16.707500
30
Fragment
H -27.684500 -4.633200 -11.915000
C -26.739800 -4.570100 -12.204200
H -26.663500 -3.812400 -12.836600
O -26.360700 -5.782800 -12.864200
H -26.128500 -3.466600 -10.554800
H -25.954900 -5.048600 -10.343000
C -25.859000 -4.310900 -10.996200
C -25.008700 -5.698800 -13.306500
H -24.917800 -4.957000 -13.956300
H -24.757800 -6.539900 -13.764000
N -24.469900 -4.218000 -11.447600
H -24.143200 -6.226400 -11.489100
C -24.072500 -5.460900 -12.128600
H -23.670400 -4.715900 -9.747700
N -23.614500 -3.992600 -10.298800
N -22.698300 -5.351400 -12.599100
H -22.642400 -4.628100 -13.150300
C -22.240300 -3.883100 -10.769400
H -22.169600 -3.117600 -11.408900
N -21.842900 -5.126000 -11.450400
H -21.555000 -2.804100 -9.134000
H -21.395000 -4.387000 -8.941700
C -21.304100 -3.645200 -9.591500
C -20.453800 -5.033100 -11.901800
H -20.357900 -4.295400 -12.555000
H -20.184300 -5.877400 -12.343100
O -19.952100 -3.561200 -10.033800
H -19.649300 -5.531600 -10.061400
C -19.573000 -4.773900 -10.693800
H -18.628200 -4.710800 -10.983000
60
Fragment
H -24.946700 -4.710800 -17.639400
C -24.002000 -4.773900 -17.928600
H -23.925700 -5.531600 -18.561100
O -23.622900 -3.561200 -18.588700
H -23.390700 -5.877400 -16.279300
H -23.217100 -4.295400 -16.067500
C -23.121200 -5.033100 -16.720700
C -22.270900 -3.645200 -19.031000
H -22.180000 -4.387000 -19.680800
H -22.020000 -2.804100 -19.488500
N -21.732100 -5.126000 -17.172100
H -21.405400 -3.117600 -17.213500
C -21.334700 -3.883100 -17.853100
H -20.932600 -4.628100 -15.472200
N -20.876700 -5.351400 -16.023300
N -19.960500 -3.992600 -18.323600
H -19.904600 -4.715900 -18.874800
C -19.502500 -5.460900 -16.493900
H -19.431800 -6.226400 -17.133400
N -19.105100 -4.218000 -17.174800
H -18.817200 -6.539900 -14.858500
H -18.657200 -4.957000 -14.666100
C -18.566300 -5.698800 -15.316000
C -17.716000 -4.310900 -17.626300
H -17.620100 -5.048600 -18.279400
H -17.446500 -3.466600 -18.067600
O -17.214300 -5.782800 -15.758300
H -16.911500 -3.812400 -15.785900
C -16.835200 -4.570100 -16.418300
H -15.890400 -4.633200 -16.707500
H -27.684500 -4.633200 -11.915000
C -26.739800 -4.570100 -12.204200
H -26.663500 -3.812400 -12.836600
O -26.360700 -5.782800 -12.864200
H -26.128500 -3.466600 -10.554800
H -25.954900 -5.048600 -10.343000
C -25.859000 -4.310900 -10.996200
C -25.008700 -5.698800 -13.306500
H -24.917800 -4.957000 -13.956300
H -24.757800 -6.539900 -13.764000
N -24.469900 -4.218000 -11.447600
H -24.143200 -6.226400 -11.489100
C -24.072500 -5.460900 -12.128600
H -23.670400 -4.715900 -9.747700
N -23.614500 -3.992600 -10.298800
N -22.698300 -5.351400 -12.599100
H -22.642400 -4.628100 -13.150300
C -22.240300 -3.883100 -10.769400
H -22.169600 -3.117600 -11.408900
N -21.842900 -5.126000 -11.450400
H -21.555000 -2.804100 -9.134000
H -21.395000 -4.387000 -8.941700
C -21.304100 -3.645200 -9.591500
C -20.453800 -5.033100 -11.901800
H -20.357900 -4.295400 -12.555000
H -20.184300 -5.877400 -12.343100
O -19.952100 -3.561200 -10.033800
H -19.649300 -5.531600 -10.061400
C -19.573000 -4.773900 -10.693800
H -18.628200 -4.710800 -10.983000
