30
Fragment
H -24.946700 -4.710800 -17.639400
C -24.002000 -4.773900 -17.928600
H -23.925700 -5.531600 -18.561100
O -23.622900 -3.561200 -18.588700
H -23.390700 -5.877400 -16.279300
H -23.217100 -4.295400 -16.067500
C -23.121200 -5.033100 -16.720700
C -22.270900 -3.645200 -19.031000
H -22.180000 -4.387000 -19.680800
H -22.020000 -2.804100 -19.488500
N -21.732100 -5.126000 -17.172100
H -21.405400 -3.117600 -17.213500
C -21.334700 -3.883100 -17.853100
H -20.932600 -4.628100 -15.472200
N -20.876700 -5.351400 -16.023300
N -19.960500 -3.992600 -18.323600
H -19.904600 -4.715900 -18.874800
C -19.502500 -5.460900 -16.493900
H -19.431800 -6.226400 -17.133400
N -19.105100 -4.218000 -17.174800
H -18.817200 -6.539900 -14.858500
H -18.657200 -4.957000 -14.666100
C -18.566300 -5.698800 -15.316000
C -17.716000 -4.310900 -17.626300
H -17.620100 -5.048600 -18.279400
H -17.446500 -3.466600 -18.067600
O -17.214300 -5.782800 -15.758300
H -16.911500 -3.812400 -15.785900
C -16.835200 -4.570100 -16.418300
H -15.890400 -4.633200 -16.707500
30
Fragment
H -34.490700 -2.374800 -17.639400
C -33.546000 -2.437900 -17.928600
H -33.469700 -3.195600 -18.561100
O -33.166900 -1.225200 -18.588700
H -32.934700 -3.541400 -16.279300
H -32.761100 -1.959400 -16.067500
C -32.665200 -2.697100 -16.720700
C -31.814900 -1.309200 -19.031000
H -31.724000 -2.051000 -19.680800
H -31.564000 -0.468100 -19.488500
N -31.276100 -2.790000 -17.172100
H -30.949400 -0.781600 -17.213500
C -30.878700 -1.547100 -17.853100
H -30.476600 -2.292100 -15.472200
N -30.420700 -3.015400 -16.023300
N -29.504500 -1.656600 -18.323600
H -29.448600 -2.379900 -18.874800
C -29.046500 -3.124900 -16.493900
H -28.975800 -3.890400 -17.133400
N -28.649100 -1.882000 -17.174800
H -28.361200 -4.203900 -14.858500
H -28.201200 -2.621000 -14.666100
C -28.110300 -3.362800 -15.316000
C -27.260000 -1.974900 -17.626300
H -27.164100 -2.712600 -18.279400
H -26.990500 -1.130600 -18.067600
O -26.758300 -3.446800 -15.758300
H -26.455500 -1.476400 -15.785900
C -26.379200 -2.234100 -16.418300
H -25.434400 -2.297200 -16.707500
60
Fragment
H -24.946700 -4.710800 -17.639400
C -24.002000 -4.773900 -17.928600
H -23.925700 -5.531600 -18.561100
O -23.622900 -3.561200 -18.588700
H -23.390700 -5.877400 -16.279300
H -23.217100 -4.295400 -16.067500
C -23.121200 -5.033100 -16.720700
C -22.270900 -3.645200 -19.031000
H -22.180000 -4.387000 -19.680800
H -22.020000 -2.804100 -19.488500
N -21.732100 -5.126000 -17.172100
H -21.405400 -3.117600 -17.213500
C -21.334700 -3.883100 -17.853100
H -20.932600 -4.628100 -15.472200
N -20.876700 -5.351400 -16.023300
N -19.960500 -3.992600 -18.323600
H -19.904600 -4.715900 -18.874800
C -19.502500 -5.460900 -16.493900
H -19.431800 -6.226400 -17.133400
N -19.105100 -4.218000 -17.174800
H -18.817200 -6.539900 -14.858500
H -18.657200 -4.957000 -14.666100
C -18.566300 -5.698800 -15.316000
C -17.716000 -4.310900 -17.626300
H -17.620100 -5.048600 -18.279400
H -17.446500 -3.466600 -18.067600
O -17.214300 -5.782800 -15.758300
H -16.911500 -3.812400 -15.785900
C -16.835200 -4.570100 -16.418300
H -15.890400 -4.633200 -16.707500
H -34.490700 -2.374800 -17.639400
C -33.546000 -2.437900 -17.928600
H -33.469700 -3.195600 -18.561100
O -33.166900 -1.225200 -18.588700
H -32.934700 -3.541400 -16.279300
H -32.761100 -1.959400 -16.067500
C -32.665200 -2.697100 -16.720700
C -31.814900 -1.309200 -19.031000
H -31.724000 -2.051000 -19.680800
H -31.564000 -0.468100 -19.488500
N -31.276100 -2.790000 -17.172100
H -30.949400 -0.781600 -17.213500
C -30.878700 -1.547100 -17.853100
H -30.476600 -2.292100 -15.472200
N -30.420700 -3.015400 -16.023300
N -29.504500 -1.656600 -18.323600
H -29.448600 -2.379900 -18.874800
C -29.046500 -3.124900 -16.493900
H -28.975800 -3.890400 -17.133400
N -28.649100 -1.882000 -17.174800
H -28.361200 -4.203900 -14.858500
H -28.201200 -2.621000 -14.666100
C -28.110300 -3.362800 -15.316000
C -27.260000 -1.974900 -17.626300
H -27.164100 -2.712600 -18.279400
H -26.990500 -1.130600 -18.067600
O -26.758300 -3.446800 -15.758300
H -26.455500 -1.476400 -15.785900
C -26.379200 -2.234100 -16.418300
H -25.434400 -2.297200 -16.707500
