31
Fragment
H -9.854700 -21.807200 -17.462200
H -9.556500 -19.481700 -18.829200
C -9.262900 -21.393000 -16.845100
H -9.176400 -22.915300 -15.496900
N -9.017900 -19.280300 -18.163500
C -8.856100 -22.040100 -15.678500
C -8.765700 -20.123800 -17.062700
O -8.345000 -17.192500 -18.857400
C -8.326800 -18.121200 -18.065600
O -8.012700 -17.111000 -15.878200
C -7.993600 -21.431200 -14.778500
C -7.895600 -19.498100 -16.172500
H -7.851500 -16.364200 -16.227700
H -7.729200 -21.897200 -13.993600
C -7.534400 -18.143000 -16.727000
C -7.510700 -20.145900 -15.010800
H -6.931300 -19.723900 -14.388000
C -6.019500 -17.965400 -16.995500
H -5.835700 -17.087600 -17.437900
H -5.760900 -17.477700 -13.942200
O -5.685300 -19.318900 -19.009900
H -5.529100 -16.283900 -14.980900
C -5.436400 -19.123200 -17.814500
N -5.244000 -18.102600 -15.775400
C -5.198300 -17.154300 -14.676100
N -4.633800 -19.887500 -17.036700
C -4.541200 -19.239300 -15.843400
H -4.274500 -17.060800 -14.363700
N -3.797600 -19.688100 -14.848200
H -3.747800 -19.234200 -14.096200
H -3.352000 -20.441900 -14.936400
31
Fragment
H -16.984400 -25.800200 -18.831900
H -16.588500 -24.592500 -19.672000
N -16.538700 -25.046400 -18.920100
H -16.061900 -22.419100 -19.404600
C -15.795200 -24.597600 -17.924800
N -15.702500 -25.245800 -16.731500
C -15.138000 -22.512600 -19.092200
N -15.092400 -23.460900 -17.992800
C -14.899900 -24.481500 -15.953700
H -14.807200 -21.642200 -18.787300
O -14.651000 -24.677200 -14.758300
H -14.575400 -22.836000 -19.826000
H -14.500600 -22.445900 -16.330300
C -14.316800 -23.323700 -16.772700
H -13.405000 -25.082200 -19.380300
C -12.825600 -25.504200 -18.757400
C -12.801900 -23.501300 -17.041200
H -12.607100 -27.255500 -19.774700
H -12.484800 -21.722500 -17.540600
C -12.440700 -24.856400 -17.595700
C -12.342700 -26.789500 -18.989800
O -12.323600 -22.469300 -17.890000
C -12.009600 -23.479500 -15.702600
O -11.991400 -22.550800 -14.910800
C -11.570600 -25.482100 -16.705500
C -11.480200 -27.398400 -18.089800
N -11.318400 -24.638600 -15.604700
H -11.159900 -28.273600 -18.271300
C -11.073400 -26.751300 -16.923100
H -10.779800 -24.840000 -14.939100
H -10.481600 -27.165500 -16.306000
62
Fragment
H -9.854700 -21.807200 -17.462200
H -9.556500 -19.481700 -18.829200
C -9.262900 -21.393000 -16.845100
H -9.176400 -22.915300 -15.496900
N -9.017900 -19.280300 -18.163500
C -8.856100 -22.040100 -15.678500
C -8.765700 -20.123800 -17.062700
O -8.345000 -17.192500 -18.857400
C -8.326800 -18.121200 -18.065600
O -8.012700 -17.111000 -15.878200
C -7.993600 -21.431200 -14.778500
C -7.895600 -19.498100 -16.172500
H -7.851500 -16.364200 -16.227700
H -7.729200 -21.897200 -13.993600
C -7.534400 -18.143000 -16.727000
C -7.510700 -20.145900 -15.010800
H -6.931300 -19.723900 -14.388000
C -6.019500 -17.965400 -16.995500
H -5.835700 -17.087600 -17.437900
H -5.760900 -17.477700 -13.942200
O -5.685300 -19.318900 -19.009900
H -5.529100 -16.283900 -14.980900
C -5.436400 -19.123200 -17.814500
N -5.244000 -18.102600 -15.775400
C -5.198300 -17.154300 -14.676100
N -4.633800 -19.887500 -17.036700
C -4.541200 -19.239300 -15.843400
H -4.274500 -17.060800 -14.363700
N -3.797600 -19.688100 -14.848200
H -3.747800 -19.234200 -14.096200
H -3.352000 -20.441900 -14.936400
H -16.984400 -25.800200 -18.831900
H -16.588500 -24.592500 -19.672000
N -16.538700 -25.046400 -18.920100
H -16.061900 -22.419100 -19.404600
C -15.795200 -24.597600 -17.924800
N -15.702500 -25.245800 -16.731500
C -15.138000 -22.512600 -19.092200
N -15.092400 -23.460900 -17.992800
C -14.899900 -24.481500 -15.953700
H -14.807200 -21.642200 -18.787300
O -14.651000 -24.677200 -14.758300
H -14.575400 -22.836000 -19.826000
H -14.500600 -22.445900 -16.330300
C -14.316800 -23.323700 -16.772700
H -13.405000 -25.082200 -19.380300
C -12.825600 -25.504200 -18.757400
C -12.801900 -23.501300 -17.041200
H -12.607100 -27.255500 -19.774700
H -12.484800 -21.722500 -17.540600
C -12.440700 -24.856400 -17.595700
C -12.342700 -26.789500 -18.989800
O -12.323600 -22.469300 -17.890000
C -12.009600 -23.479500 -15.702600
O -11.991400 -22.550800 -14.910800
C -11.570600 -25.482100 -16.705500
C -11.480200 -27.398400 -18.089800
N -11.318400 -24.638600 -15.604700
H -11.159900 -28.273600 -18.271300
C -11.073400 -26.751300 -16.923100
H -10.779800 -24.840000 -14.939100
H -10.481600 -27.165500 -16.306000
