31
Fragment
H -9.854700 -21.807200 -17.462200
H -9.556500 -19.481700 -18.829200
C -9.262900 -21.393000 -16.845100
H -9.176400 -22.915300 -15.496900
N -9.017900 -19.280300 -18.163500
C -8.856100 -22.040100 -15.678500
C -8.765700 -20.123800 -17.062700
O -8.345000 -17.192500 -18.857400
C -8.326800 -18.121200 -18.065600
O -8.012700 -17.111000 -15.878200
C -7.993600 -21.431200 -14.778500
C -7.895600 -19.498100 -16.172500
H -7.851500 -16.364200 -16.227700
H -7.729200 -21.897200 -13.993600
C -7.534400 -18.143000 -16.727000
C -7.510700 -20.145900 -15.010800
H -6.931300 -19.723900 -14.388000
C -6.019500 -17.965400 -16.995500
H -5.835700 -17.087600 -17.437900
H -5.760900 -17.477700 -13.942200
O -5.685300 -19.318900 -19.009900
H -5.529100 -16.283900 -14.980900
C -5.436400 -19.123200 -17.814500
N -5.244000 -18.102600 -15.775400
C -5.198300 -17.154300 -14.676100
N -4.633800 -19.887500 -17.036700
C -4.541200 -19.239300 -15.843400
H -4.274500 -17.060800 -14.363700
N -3.797600 -19.688100 -14.848200
H -3.747800 -19.234200 -14.096200
H -3.352000 -20.441900 -14.936400
31
Fragment
H -12.251700 -15.700900 -24.215900
H -11.953500 -18.026400 -25.582800
C -11.659900 -16.115100 -23.598700
H -11.573400 -14.592800 -22.250600
N -11.414900 -18.227800 -24.917200
C -11.253100 -15.468000 -22.432100
C -11.162700 -17.384300 -23.816300
O -10.741900 -20.315600 -25.611000
C -10.723700 -19.386900 -24.819200
O -10.409700 -20.397100 -22.631900
C -10.390600 -16.076900 -21.532100
C -10.292600 -18.010000 -22.926200
H -10.248500 -21.143900 -22.981300
H -10.126200 -15.610900 -20.747200
C -9.931400 -19.365100 -23.480700
C -9.907700 -17.362200 -21.764400
H -9.328300 -17.784200 -21.141600
C -8.416500 -19.542700 -23.749200
H -8.232700 -20.420500 -24.191600
H -8.157900 -20.030400 -20.695900
O -8.082300 -18.189200 -25.763500
H -7.926100 -21.224200 -21.734600
C -7.833400 -18.384900 -24.568100
N -7.640900 -19.405500 -22.529100
C -7.595300 -20.353800 -21.429700
N -7.030800 -17.620600 -23.790400
C -6.938100 -18.268800 -22.597000
H -6.671400 -20.447300 -21.117300
N -6.194600 -17.820000 -21.601800
H -6.144800 -18.273900 -20.849900
H -5.748900 -17.066200 -21.690000
62
Fragment
H -9.854700 -21.807200 -17.462200
H -9.556500 -19.481700 -18.829200
C -9.262900 -21.393000 -16.845100
H -9.176400 -22.915300 -15.496900
N -9.017900 -19.280300 -18.163500
C -8.856100 -22.040100 -15.678500
C -8.765700 -20.123800 -17.062700
O -8.345000 -17.192500 -18.857400
C -8.326800 -18.121200 -18.065600
O -8.012700 -17.111000 -15.878200
C -7.993600 -21.431200 -14.778500
C -7.895600 -19.498100 -16.172500
H -7.851500 -16.364200 -16.227700
H -7.729200 -21.897200 -13.993600
C -7.534400 -18.143000 -16.727000
C -7.510700 -20.145900 -15.010800
H -6.931300 -19.723900 -14.388000
C -6.019500 -17.965400 -16.995500
H -5.835700 -17.087600 -17.437900
H -5.760900 -17.477700 -13.942200
O -5.685300 -19.318900 -19.009900
H -5.529100 -16.283900 -14.980900
C -5.436400 -19.123200 -17.814500
N -5.244000 -18.102600 -15.775400
C -5.198300 -17.154300 -14.676100
N -4.633800 -19.887500 -17.036700
C -4.541200 -19.239300 -15.843400
H -4.274500 -17.060800 -14.363700
N -3.797600 -19.688100 -14.848200
H -3.747800 -19.234200 -14.096200
H -3.352000 -20.441900 -14.936400
H -12.251700 -15.700900 -24.215900
H -11.953500 -18.026400 -25.582800
C -11.659900 -16.115100 -23.598700
H -11.573400 -14.592800 -22.250600
N -11.414900 -18.227800 -24.917200
C -11.253100 -15.468000 -22.432100
C -11.162700 -17.384300 -23.816300
O -10.741900 -20.315600 -25.611000
C -10.723700 -19.386900 -24.819200
O -10.409700 -20.397100 -22.631900
C -10.390600 -16.076900 -21.532100
C -10.292600 -18.010000 -22.926200
H -10.248500 -21.143900 -22.981300
H -10.126200 -15.610900 -20.747200
C -9.931400 -19.365100 -23.480700
C -9.907700 -17.362200 -21.764400
H -9.328300 -17.784200 -21.141600
C -8.416500 -19.542700 -23.749200
H -8.232700 -20.420500 -24.191600
H -8.157900 -20.030400 -20.695900
O -8.082300 -18.189200 -25.763500
H -7.926100 -21.224200 -21.734600
C -7.833400 -18.384900 -24.568100
N -7.640900 -19.405500 -22.529100
C -7.595300 -20.353800 -21.429700
N -7.030800 -17.620600 -23.790400
C -6.938100 -18.268800 -22.597000
H -6.671400 -20.447300 -21.117300
N -6.194600 -17.820000 -21.601800
H -6.144800 -18.273900 -20.849900
H -5.748900 -17.066200 -21.690000
