31
Fragment
H -9.854700 -21.807200 -17.462200
H -9.556500 -19.481700 -18.829200
C -9.262900 -21.393000 -16.845100
H -9.176400 -22.915300 -15.496900
N -9.017900 -19.280300 -18.163500
C -8.856100 -22.040100 -15.678500
C -8.765700 -20.123800 -17.062700
O -8.345000 -17.192500 -18.857400
C -8.326800 -18.121200 -18.065600
O -8.012700 -17.111000 -15.878200
C -7.993600 -21.431200 -14.778500
C -7.895600 -19.498100 -16.172500
H -7.851500 -16.364200 -16.227700
H -7.729200 -21.897200 -13.993600
C -7.534400 -18.143000 -16.727000
C -7.510700 -20.145900 -15.010800
H -6.931300 -19.723900 -14.388000
C -6.019500 -17.965400 -16.995500
H -5.835700 -17.087600 -17.437900
H -5.760900 -17.477700 -13.942200
O -5.685300 -19.318900 -19.009900
H -5.529100 -16.283900 -14.980900
C -5.436400 -19.123200 -17.814500
N -5.244000 -18.102600 -15.775400
C -5.198300 -17.154300 -14.676100
N -4.633800 -19.887500 -17.036700
C -4.541200 -19.239300 -15.843400
H -4.274500 -17.060800 -14.363700
N -3.797600 -19.688100 -14.848200
H -3.747800 -19.234200 -14.096200
H -3.352000 -20.441900 -14.936400
3
Fragment
H -9.280600 -25.441200 -13.056100
O -9.185100 -25.237600 -13.872000
H -8.342300 -25.234400 -14.050300
34
Fragment
H -9.854700 -21.807200 -17.462200
H -9.556500 -19.481700 -18.829200
C -9.262900 -21.393000 -16.845100
H -9.176400 -22.915300 -15.496900
N -9.017900 -19.280300 -18.163500
C -8.856100 -22.040100 -15.678500
C -8.765700 -20.123800 -17.062700
O -8.345000 -17.192500 -18.857400
C -8.326800 -18.121200 -18.065600
O -8.012700 -17.111000 -15.878200
C -7.993600 -21.431200 -14.778500
C -7.895600 -19.498100 -16.172500
H -7.851500 -16.364200 -16.227700
H -7.729200 -21.897200 -13.993600
C -7.534400 -18.143000 -16.727000
C -7.510700 -20.145900 -15.010800
H -6.931300 -19.723900 -14.388000
C -6.019500 -17.965400 -16.995500
H -5.835700 -17.087600 -17.437900
H -5.760900 -17.477700 -13.942200
O -5.685300 -19.318900 -19.009900
H -5.529100 -16.283900 -14.980900
C -5.436400 -19.123200 -17.814500
N -5.244000 -18.102600 -15.775400
C -5.198300 -17.154300 -14.676100
N -4.633800 -19.887500 -17.036700
C -4.541200 -19.239300 -15.843400
H -4.274500 -17.060800 -14.363700
N -3.797600 -19.688100 -14.848200
H -3.747800 -19.234200 -14.096200
H -3.352000 -20.441900 -14.936400
H -9.280600 -25.441200 -13.056100
O -9.185100 -25.237600 -13.872000
H -8.342300 -25.234400 -14.050300
