14
Fragment
O -14.364300 -2.885800 -15.408400
N -13.639200 -3.720400 -14.821900
O -13.461100 -3.674300 -13.581200
N -13.076600 -4.649400 -15.606100
H -12.970200 -6.620300 -17.316300
C -12.298900 -5.535000 -14.963100
C -12.065900 -6.950800 -17.037300
H -12.040600 -7.917300 -17.106100
N -11.833900 -6.606800 -15.634900
H -11.780400 -5.068400 -12.991200
N -11.768100 -5.668500 -13.738800
H -11.381800 -6.593200 -17.580300
N -11.015000 -7.340400 -14.845700
N -10.968700 -6.772300 -13.690500
14
Fragment
O -18.459600 -10.680400 -21.519100
N -17.734400 -9.845800 -20.932600
O -17.556400 -9.892000 -19.691900
N -17.171800 -8.916800 -21.716700
H -17.065500 -6.945900 -23.426900
C -16.394200 -8.031200 -21.073700
C -16.161200 -6.615400 -23.147900
H -16.135800 -5.649000 -23.216700
N -15.929200 -6.959500 -21.745500
H -15.875700 -8.497900 -19.101800
N -15.863400 -7.897700 -19.849400
H -15.477100 -6.973100 -23.690900
N -15.110300 -6.225800 -20.956300
N -15.063900 -6.794000 -19.801100
28
Fragment
O -14.364300 -2.885800 -15.408400
N -13.639200 -3.720400 -14.821900
O -13.461100 -3.674300 -13.581200
N -13.076600 -4.649400 -15.606100
H -12.970200 -6.620300 -17.316300
C -12.298900 -5.535000 -14.963100
C -12.065900 -6.950800 -17.037300
H -12.040600 -7.917300 -17.106100
N -11.833900 -6.606800 -15.634900
H -11.780400 -5.068400 -12.991200
N -11.768100 -5.668500 -13.738800
H -11.381800 -6.593200 -17.580300
N -11.015000 -7.340400 -14.845700
N -10.968700 -6.772300 -13.690500
O -18.459600 -10.680400 -21.519100
N -17.734400 -9.845800 -20.932600
O -17.556400 -9.892000 -19.691900
N -17.171800 -8.916800 -21.716700
H -17.065500 -6.945900 -23.426900
C -16.394200 -8.031200 -21.073700
C -16.161200 -6.615400 -23.147900
H -16.135800 -5.649000 -23.216700
N -15.929200 -6.959500 -21.745500
H -15.875700 -8.497900 -19.101800
N -15.863400 -7.897700 -19.849400
H -15.477100 -6.973100 -23.690900
N -15.110300 -6.225800 -20.956300
N -15.063900 -6.794000 -19.801100
