14
Fragment
O -14.364300 -2.885800 -15.408400
N -13.639200 -3.720400 -14.821900
O -13.461100 -3.674300 -13.581200
N -13.076600 -4.649400 -15.606100
H -12.970200 -6.620300 -17.316300
C -12.298900 -5.535000 -14.963100
C -12.065900 -6.950800 -17.037300
H -12.040600 -7.917300 -17.106100
N -11.833900 -6.606800 -15.634900
H -11.780400 -5.068400 -12.991200
N -11.768100 -5.668500 -13.738800
H -11.381800 -6.593200 -17.580300
N -11.015000 -7.340400 -14.845700
N -10.968700 -6.772300 -13.690500
14
Fragment
N -9.507800 -4.059000 -16.862700
N -9.461400 -4.627200 -15.707500
H -9.094600 -3.879900 -12.972900
N -8.708300 -2.955300 -16.814400
H -8.696000 -2.355100 -17.562000
N -8.642500 -3.893500 -14.918200
H -8.435900 -5.204000 -13.447100
C -8.410500 -4.237600 -13.515900
C -8.177500 -2.821800 -15.590100
H -7.506300 -3.907100 -13.236800
N -7.399900 -1.936200 -14.947100
O -7.015400 -0.961000 -16.971900
N -6.837300 -1.007200 -15.731200
O -6.112100 -0.172600 -15.144700
28
Fragment
O -14.364300 -2.885800 -15.408400
N -13.639200 -3.720400 -14.821900
O -13.461100 -3.674300 -13.581200
N -13.076600 -4.649400 -15.606100
H -12.970200 -6.620300 -17.316300
C -12.298900 -5.535000 -14.963100
C -12.065900 -6.950800 -17.037300
H -12.040600 -7.917300 -17.106100
N -11.833900 -6.606800 -15.634900
H -11.780400 -5.068400 -12.991200
N -11.768100 -5.668500 -13.738800
H -11.381800 -6.593200 -17.580300
N -11.015000 -7.340400 -14.845700
N -10.968700 -6.772300 -13.690500
N -9.507800 -4.059000 -16.862700
N -9.461400 -4.627200 -15.707500
H -9.094600 -3.879900 -12.972900
N -8.708300 -2.955300 -16.814400
H -8.696000 -2.355100 -17.562000
N -8.642500 -3.893500 -14.918200
H -8.435900 -5.204000 -13.447100
C -8.410500 -4.237600 -13.515900
C -8.177500 -2.821800 -15.590100
H -7.506300 -3.907100 -13.236800
N -7.399900 -1.936200 -14.947100
O -7.015400 -0.961000 -16.971900
N -6.837300 -1.007200 -15.731200
O -6.112100 -0.172600 -15.144700
