14
Fragment
O -14.364300 -2.885800 -15.408400
N -13.639200 -3.720400 -14.821900
O -13.461100 -3.674300 -13.581200
N -13.076600 -4.649400 -15.606100
H -12.970200 -6.620300 -17.316300
C -12.298900 -5.535000 -14.963100
C -12.065900 -6.950800 -17.037300
H -12.040600 -7.917300 -17.106100
N -11.833900 -6.606800 -15.634900
H -11.780400 -5.068400 -12.991200
N -11.768100 -5.668500 -13.738800
H -11.381800 -6.593200 -17.580300
N -11.015000 -7.340400 -14.845700
N -10.968700 -6.772300 -13.690500
14
Fragment
N -15.296300 1.345800 -10.752000
N -15.250000 1.913900 -9.596900
H -14.883100 1.166700 -6.862200
N -14.496800 0.242000 -10.703700
H -14.484500 -0.358100 -11.451300
N -14.431000 1.180300 -8.807600
H -14.224400 2.490800 -7.336400
C -14.199000 1.524300 -7.405200
C -13.966000 0.108500 -9.479400
H -13.294800 1.193800 -7.126200
N -13.188400 -0.777100 -8.836500
O -12.803900 -1.752200 -10.861300
N -12.625800 -1.706100 -9.620600
O -11.900600 -2.540700 -9.034100
28
Fragment
O -14.364300 -2.885800 -15.408400
N -13.639200 -3.720400 -14.821900
O -13.461100 -3.674300 -13.581200
N -13.076600 -4.649400 -15.606100
H -12.970200 -6.620300 -17.316300
C -12.298900 -5.535000 -14.963100
C -12.065900 -6.950800 -17.037300
H -12.040600 -7.917300 -17.106100
N -11.833900 -6.606800 -15.634900
H -11.780400 -5.068400 -12.991200
N -11.768100 -5.668500 -13.738800
H -11.381800 -6.593200 -17.580300
N -11.015000 -7.340400 -14.845700
N -10.968700 -6.772300 -13.690500
N -15.296300 1.345800 -10.752000
N -15.250000 1.913900 -9.596900
H -14.883100 1.166700 -6.862200
N -14.496800 0.242000 -10.703700
H -14.484500 -0.358100 -11.451300
N -14.431000 1.180300 -8.807600
H -14.224400 2.490800 -7.336400
C -14.199000 1.524300 -7.405200
C -13.966000 0.108500 -9.479400
H -13.294800 1.193800 -7.126200
N -13.188400 -0.777100 -8.836500
O -12.803900 -1.752200 -10.861300
N -12.625800 -1.706100 -9.620600
O -11.900600 -2.540700 -9.034100
