3
Fragment
O -10.554500 -12.754100 -12.531000
H -10.312800 -11.978300 -12.171900
H -10.204400 -13.508400 -12.105600
3
Fragment
H -11.866500 -12.721500 -9.998400
H -11.758000 -14.251600 -9.932100
O -11.516400 -13.475800 -9.573000
6
Fragment
O -10.554500 -12.754100 -12.531000
H -10.312800 -11.978300 -12.171900
H -10.204400 -13.508400 -12.105600
H -11.866500 -12.721500 -9.998400
H -11.758000 -14.251600 -9.932100
O -11.516400 -13.475800 -9.573000
