3
Fragment
O -10.554500 -12.754100 -12.531000
H -10.312800 -11.978300 -12.171900
H -10.204400 -13.508400 -12.105600
11
Fragment
H -14.174600 -13.963100 -16.673800
N -13.561700 -11.666600 -15.595800
N -13.538100 -13.955400 -16.026900
O -13.379000 -9.523800 -15.163300
C -13.093800 -12.905100 -15.328400
N -12.983500 -15.100200 -15.571500
N -12.951100 -10.677800 -14.938000
N -12.258900 -13.435700 -14.424300
N -12.206200 -14.785100 -14.605200
O -12.002400 -10.875100 -14.149700
H -11.755100 -13.062500 -13.785500
14
Fragment
O -10.554500 -12.754100 -12.531000
H -10.312800 -11.978300 -12.171900
H -10.204400 -13.508400 -12.105600
H -14.174600 -13.963100 -16.673800
N -13.561700 -11.666600 -15.595800
N -13.538100 -13.955400 -16.026900
O -13.379000 -9.523800 -15.163300
C -13.093800 -12.905100 -15.328400
N -12.983500 -15.100200 -15.571500
N -12.951100 -10.677800 -14.938000
N -12.258900 -13.435700 -14.424300
N -12.206200 -14.785100 -14.605200
O -12.002400 -10.875100 -14.149700
H -11.755100 -13.062500 -13.785500
