14
Fragment
O -14.364300 -2.885800 -15.408400
N -13.639200 -3.720400 -14.821900
O -13.461100 -3.674300 -13.581200
N -13.076600 -4.649400 -15.606100
H -12.970200 -6.620300 -17.316300
C -12.298900 -5.535000 -14.963100
C -12.065900 -6.950800 -17.037300
H -12.040600 -7.917300 -17.106100
N -11.833900 -6.606800 -15.634900
H -11.780400 -5.068400 -12.991200
N -11.768100 -5.668500 -13.738800
H -11.381800 -6.593200 -17.580300
N -11.015000 -7.340400 -14.845700
N -10.968700 -6.772300 -13.690500
14
Fragment
N -13.603100 -9.507200 -22.973300
N -13.556700 -8.939100 -21.818100
H -13.189900 -9.686300 -19.083500
N -12.803600 -10.611000 -22.925000
H -12.791300 -11.211100 -23.672600
N -12.737800 -9.672700 -21.028900
H -12.531100 -8.362200 -19.557700
C -12.505800 -9.328700 -19.626500
C -12.272800 -10.744500 -21.700700
H -11.601500 -9.659200 -19.347500
N -11.495200 -11.630100 -21.057700
O -11.110600 -12.605200 -23.082500
N -10.932600 -12.559100 -21.841800
O -10.207400 -13.393700 -21.255300
28
Fragment
O -14.364300 -2.885800 -15.408400
N -13.639200 -3.720400 -14.821900
O -13.461100 -3.674300 -13.581200
N -13.076600 -4.649400 -15.606100
H -12.970200 -6.620300 -17.316300
C -12.298900 -5.535000 -14.963100
C -12.065900 -6.950800 -17.037300
H -12.040600 -7.917300 -17.106100
N -11.833900 -6.606800 -15.634900
H -11.780400 -5.068400 -12.991200
N -11.768100 -5.668500 -13.738800
H -11.381800 -6.593200 -17.580300
N -11.015000 -7.340400 -14.845700
N -10.968700 -6.772300 -13.690500
N -13.603100 -9.507200 -22.973300
N -13.556700 -8.939100 -21.818100
H -13.189900 -9.686300 -19.083500
N -12.803600 -10.611000 -22.925000
H -12.791300 -11.211100 -23.672600
N -12.737800 -9.672700 -21.028900
H -12.531100 -8.362200 -19.557700
C -12.505800 -9.328700 -19.626500
C -12.272800 -10.744500 -21.700700
H -11.601500 -9.659200 -19.347500
N -11.495200 -11.630100 -21.057700
O -11.110600 -12.605200 -23.082500
N -10.932600 -12.559100 -21.841800
O -10.207400 -13.393700 -21.255300
