14
Fragment
O -14.364300 -2.885800 -15.408400
N -13.639200 -3.720400 -14.821900
O -13.461100 -3.674300 -13.581200
N -13.076600 -4.649400 -15.606100
H -12.970200 -6.620300 -17.316300
C -12.298900 -5.535000 -14.963100
C -12.065900 -6.950800 -17.037300
H -12.040600 -7.917300 -17.106100
N -11.833900 -6.606800 -15.634900
H -11.780400 -5.068400 -12.991200
N -11.768100 -5.668500 -13.738800
H -11.381800 -6.593200 -17.580300
N -11.015000 -7.340400 -14.845700
N -10.968700 -6.772300 -13.690500
3
Fragment
H -11.751500 -3.424100 -11.488000
O -11.380500 -4.143700 -11.659600
H -10.911900 -4.379200 -10.913600
17
Fragment
O -14.364300 -2.885800 -15.408400
N -13.639200 -3.720400 -14.821900
O -13.461100 -3.674300 -13.581200
N -13.076600 -4.649400 -15.606100
H -12.970200 -6.620300 -17.316300
C -12.298900 -5.535000 -14.963100
C -12.065900 -6.950800 -17.037300
H -12.040600 -7.917300 -17.106100
N -11.833900 -6.606800 -15.634900
H -11.780400 -5.068400 -12.991200
N -11.768100 -5.668500 -13.738800
H -11.381800 -6.593200 -17.580300
N -11.015000 -7.340400 -14.845700
N -10.968700 -6.772300 -13.690500
H -11.751500 -3.424100 -11.488000
O -11.380500 -4.143700 -11.659600
H -10.911900 -4.379200 -10.913600
