11
Fragment
O -26.069700 -15.161000 -13.885900
H -25.204300 -12.973900 -13.637500
N -24.971300 -14.966600 -13.378300
N -24.565900 -13.686800 -13.360600
O -24.231700 -15.830600 -12.914800
C -23.382000 -13.300400 -12.752900
N -23.065100 -12.023700 -12.676600
N -22.427400 -14.048900 -12.220000
H -22.326000 -14.994500 -12.092800
N -21.840400 -12.030300 -12.062100
N -21.449600 -13.221400 -11.776300
11
Fragment
O -26.198100 -16.839500 -10.483300
H -25.332700 -19.026600 -10.235000
N -25.099700 -17.033900 -9.975700
N -24.694300 -18.313700 -9.958000
O -24.360100 -16.169900 -9.512200
C -23.510400 -18.700100 -9.350300
N -23.193500 -19.976800 -9.274100
N -22.555800 -17.951600 -8.817400
H -22.454400 -17.006000 -8.690200
N -21.968800 -19.970200 -8.659600
N -21.578000 -18.779100 -8.373700
22
Fragment
O -26.069700 -15.161000 -13.885900
H -25.204300 -12.973900 -13.637500
N -24.971300 -14.966600 -13.378300
N -24.565900 -13.686800 -13.360600
O -24.231700 -15.830600 -12.914800
C -23.382000 -13.300400 -12.752900
N -23.065100 -12.023700 -12.676600
N -22.427400 -14.048900 -12.220000
H -22.326000 -14.994500 -12.092800
N -21.840400 -12.030300 -12.062100
N -21.449600 -13.221400 -11.776300
O -26.198100 -16.839500 -10.483300
H -25.332700 -19.026600 -10.235000
N -25.099700 -17.033900 -9.975700
N -24.694300 -18.313700 -9.958000
O -24.360100 -16.169900 -9.512200
C -23.510400 -18.700100 -9.350300
N -23.193500 -19.976800 -9.274100
N -22.555800 -17.951600 -8.817400
H -22.454400 -17.006000 -8.690200
N -21.968800 -19.970200 -8.659600
N -21.578000 -18.779100 -8.373700
