11
Fragment
O -26.069700 -15.161000 -13.885900
H -25.204300 -12.973900 -13.637500
N -24.971300 -14.966600 -13.378300
N -24.565900 -13.686800 -13.360600
O -24.231700 -15.830600 -12.914800
C -23.382000 -13.300400 -12.752900
N -23.065100 -12.023700 -12.676600
N -22.427400 -14.048900 -12.220000
H -22.326000 -14.994500 -12.092800
N -21.840400 -12.030300 -12.062100
N -21.449600 -13.221400 -11.776300
12
Fragment
H -33.657300 -17.262000 -14.011800
N -33.060900 -17.771200 -13.675000
H -32.958000 -18.633400 -13.841700
C -31.949800 -17.151200 -13.229900
N -31.833100 -15.802900 -13.159100
N -30.848000 -17.765500 -12.795100
N -30.619400 -15.552500 -12.663700
N -30.080500 -16.720500 -12.468400
H -28.754500 -17.362600 -11.146800
C -28.723700 -16.858800 -11.945100
H -28.342400 -15.991100 -11.738900
H -28.178200 -17.307700 -12.569100
23
Fragment
O -26.069700 -15.161000 -13.885900
H -25.204300 -12.973900 -13.637500
N -24.971300 -14.966600 -13.378300
N -24.565900 -13.686800 -13.360600
O -24.231700 -15.830600 -12.914800
C -23.382000 -13.300400 -12.752900
N -23.065100 -12.023700 -12.676600
N -22.427400 -14.048900 -12.220000
H -22.326000 -14.994500 -12.092800
N -21.840400 -12.030300 -12.062100
N -21.449600 -13.221400 -11.776300
H -33.657300 -17.262000 -14.011800
N -33.060900 -17.771200 -13.675000
H -32.958000 -18.633400 -13.841700
C -31.949800 -17.151200 -13.229900
N -31.833100 -15.802900 -13.159100
N -30.848000 -17.765500 -12.795100
N -30.619400 -15.552500 -12.663700
N -30.080500 -16.720500 -12.468400
H -28.754500 -17.362600 -11.146800
C -28.723700 -16.858800 -11.945100
H -28.342400 -15.991100 -11.738900
H -28.178200 -17.307700 -12.569100
