11
Fragment
O -26.069700 -15.161000 -13.885900
H -25.204300 -12.973900 -13.637500
N -24.971300 -14.966600 -13.378300
N -24.565900 -13.686800 -13.360600
O -24.231700 -15.830600 -12.914800
C -23.382000 -13.300400 -12.752900
N -23.065100 -12.023700 -12.676600
N -22.427400 -14.048900 -12.220000
H -22.326000 -14.994500 -12.092800
N -21.840400 -12.030300 -12.062100
N -21.449600 -13.221400 -11.776300
12
Fragment
H -19.021700 -14.738500 -10.609200
N -18.425300 -14.229300 -10.272400
H -18.322400 -13.367100 -10.439100
C -17.314200 -14.849300 -9.827300
N -17.197500 -16.197600 -9.756600
N -16.212400 -14.235000 -9.392500
N -15.983800 -16.448000 -9.261100
N -15.444900 -15.280000 -9.065800
H -14.118900 -14.637900 -7.744300
C -14.088100 -15.141700 -8.542500
H -13.706800 -16.009400 -8.336300
H -13.542600 -14.692800 -9.166500
23
Fragment
O -26.069700 -15.161000 -13.885900
H -25.204300 -12.973900 -13.637500
N -24.971300 -14.966600 -13.378300
N -24.565900 -13.686800 -13.360600
O -24.231700 -15.830600 -12.914800
C -23.382000 -13.300400 -12.752900
N -23.065100 -12.023700 -12.676600
N -22.427400 -14.048900 -12.220000
H -22.326000 -14.994500 -12.092800
N -21.840400 -12.030300 -12.062100
N -21.449600 -13.221400 -11.776300
H -19.021700 -14.738500 -10.609200
N -18.425300 -14.229300 -10.272400
H -18.322400 -13.367100 -10.439100
C -17.314200 -14.849300 -9.827300
N -17.197500 -16.197600 -9.756600
N -16.212400 -14.235000 -9.392500
N -15.983800 -16.448000 -9.261100
N -15.444900 -15.280000 -9.065800
H -14.118900 -14.637900 -7.744300
C -14.088100 -15.141700 -8.542500
H -13.706800 -16.009400 -8.336300
H -13.542600 -14.692800 -9.166500
