20
Fragment
H -15.085900 -21.020300 -12.794700
O -14.876900 -23.316000 -12.805100
H -14.748400 -19.677600 -12.246600
N -14.633300 -20.529600 -12.252800
N -13.979900 -23.541300 -11.980500
C -13.751700 -21.090700 -11.420000
O -13.546200 -24.680100 -11.752800
C -13.437700 -22.482000 -11.285200
N -13.043100 -20.362300 -10.575900
C -12.460500 -22.583100 -10.290700
N -12.259300 -21.307700 -9.883500
H -11.973400 -24.412700 -10.084400
H -11.949500 -18.983400 -8.676600
N -11.809000 -23.621200 -9.792100
N -11.422300 -19.617000 -8.433100
C -11.418800 -20.854300 -8.899400
H -11.220800 -23.503300 -9.175900
N -10.486300 -21.570800 -8.303100
N -10.448200 -19.532200 -7.504600
N -9.910300 -20.705000 -7.432400
3
Fragment
O -17.084000 -25.695700 -11.721200
H -16.781000 -25.858600 -10.984600
H -16.650000 -26.093900 -12.283100
23
Fragment
H -15.085900 -21.020300 -12.794700
O -14.876900 -23.316000 -12.805100
H -14.748400 -19.677600 -12.246600
N -14.633300 -20.529600 -12.252800
N -13.979900 -23.541300 -11.980500
C -13.751700 -21.090700 -11.420000
O -13.546200 -24.680100 -11.752800
C -13.437700 -22.482000 -11.285200
N -13.043100 -20.362300 -10.575900
C -12.460500 -22.583100 -10.290700
N -12.259300 -21.307700 -9.883500
H -11.973400 -24.412700 -10.084400
H -11.949500 -18.983400 -8.676600
N -11.809000 -23.621200 -9.792100
N -11.422300 -19.617000 -8.433100
C -11.418800 -20.854300 -8.899400
H -11.220800 -23.503300 -9.175900
N -10.486300 -21.570800 -8.303100
N -10.448200 -19.532200 -7.504600
N -9.910300 -20.705000 -7.432400
O -17.084000 -25.695700 -11.721200
H -16.781000 -25.858600 -10.984600
H -16.650000 -26.093900 -12.283100
