20
Fragment
H -15.085900 -21.020300 -12.794700
O -14.876900 -23.316000 -12.805100
H -14.748400 -19.677600 -12.246600
N -14.633300 -20.529600 -12.252800
N -13.979900 -23.541300 -11.980500
C -13.751700 -21.090700 -11.420000
O -13.546200 -24.680100 -11.752800
C -13.437700 -22.482000 -11.285200
N -13.043100 -20.362300 -10.575900
C -12.460500 -22.583100 -10.290700
N -12.259300 -21.307700 -9.883500
H -11.973400 -24.412700 -10.084400
H -11.949500 -18.983400 -8.676600
N -11.809000 -23.621200 -9.792100
N -11.422300 -19.617000 -8.433100
C -11.418800 -20.854300 -8.899400
H -11.220800 -23.503300 -9.175900
N -10.486300 -21.570800 -8.303100
N -10.448200 -19.532200 -7.504600
N -9.910300 -20.705000 -7.432400
20
Fragment
N -18.719200 -27.877200 -16.638500
N -18.181400 -26.704400 -16.566300
N -18.143200 -28.743000 -15.767900
H -17.408700 -30.675500 -14.895100
C -17.210700 -28.026500 -15.171600
N -17.207200 -26.789200 -15.637900
N -16.820600 -30.793400 -14.278900
H -16.680000 -26.155600 -15.394400
H -16.656100 -31.584900 -13.986600
N -16.370200 -28.479900 -14.187400
C -16.169000 -29.755300 -13.780300
N -15.586400 -27.534500 -13.495100
C -15.191800 -29.654200 -12.785800
O -15.083300 -31.852300 -12.318100
C -14.877900 -28.262900 -12.651000
N -14.649700 -30.713500 -12.090500
N -13.996200 -27.701800 -11.818200
H -13.881200 -26.849800 -11.824300
O -13.752700 -30.488200 -11.265900
H -13.543600 -28.192500 -11.276200
40
Fragment
H -15.085900 -21.020300 -12.794700
O -14.876900 -23.316000 -12.805100
H -14.748400 -19.677600 -12.246600
N -14.633300 -20.529600 -12.252800
N -13.979900 -23.541300 -11.980500
C -13.751700 -21.090700 -11.420000
O -13.546200 -24.680100 -11.752800
C -13.437700 -22.482000 -11.285200
N -13.043100 -20.362300 -10.575900
C -12.460500 -22.583100 -10.290700
N -12.259300 -21.307700 -9.883500
H -11.973400 -24.412700 -10.084400
H -11.949500 -18.983400 -8.676600
N -11.809000 -23.621200 -9.792100
N -11.422300 -19.617000 -8.433100
C -11.418800 -20.854300 -8.899400
H -11.220800 -23.503300 -9.175900
N -10.486300 -21.570800 -8.303100
N -10.448200 -19.532200 -7.504600
N -9.910300 -20.705000 -7.432400
N -18.719200 -27.877200 -16.638500
N -18.181400 -26.704400 -16.566300
N -18.143200 -28.743000 -15.767900
H -17.408700 -30.675500 -14.895100
C -17.210700 -28.026500 -15.171600
N -17.207200 -26.789200 -15.637900
N -16.820600 -30.793400 -14.278900
H -16.680000 -26.155600 -15.394400
H -16.656100 -31.584900 -13.986600
N -16.370200 -28.479900 -14.187400
C -16.169000 -29.755300 -13.780300
N -15.586400 -27.534500 -13.495100
C -15.191800 -29.654200 -12.785800
O -15.083300 -31.852300 -12.318100
C -14.877900 -28.262900 -12.651000
N -14.649700 -30.713500 -12.090500
N -13.996200 -27.701800 -11.818200
H -13.881200 -26.849800 -11.824300
O -13.752700 -30.488200 -11.265900
H -13.543600 -28.192500 -11.276200
