20
Fragment
H -15.085900 -21.020300 -12.794700
O -14.876900 -23.316000 -12.805100
H -14.748400 -19.677600 -12.246600
N -14.633300 -20.529600 -12.252800
N -13.979900 -23.541300 -11.980500
C -13.751700 -21.090700 -11.420000
O -13.546200 -24.680100 -11.752800
C -13.437700 -22.482000 -11.285200
N -13.043100 -20.362300 -10.575900
C -12.460500 -22.583100 -10.290700
N -12.259300 -21.307700 -9.883500
H -11.973400 -24.412700 -10.084400
H -11.949500 -18.983400 -8.676600
N -11.809000 -23.621200 -9.792100
N -11.422300 -19.617000 -8.433100
C -11.418800 -20.854300 -8.899400
H -11.220800 -23.503300 -9.175900
N -10.486300 -21.570800 -8.303100
N -10.448200 -19.532200 -7.504600
N -9.910300 -20.705000 -7.432400
20
Fragment
H -21.963400 -21.020300 -19.672200
O -21.754400 -23.316000 -19.682500
H -21.625900 -19.677600 -19.124000
N -21.510800 -20.529600 -19.130200
N -20.857400 -23.541300 -18.857900
C -20.629200 -21.090700 -18.297400
O -20.423700 -24.680100 -18.630200
C -20.315200 -22.482000 -18.162600
N -19.920600 -20.362300 -17.453300
C -19.338100 -22.583100 -17.168100
N -19.136900 -21.307700 -16.761000
H -18.850900 -24.412700 -16.961800
H -18.827000 -18.983400 -15.554000
N -18.686500 -23.621200 -16.669500
N -18.299800 -19.617000 -15.310500
C -18.296400 -20.854300 -15.776800
H -18.098300 -23.503300 -16.053300
N -17.363900 -21.570800 -15.180500
N -17.325700 -19.532200 -14.382100
N -16.787800 -20.705000 -14.309800
40
Fragment
H -15.085900 -21.020300 -12.794700
O -14.876900 -23.316000 -12.805100
H -14.748400 -19.677600 -12.246600
N -14.633300 -20.529600 -12.252800
N -13.979900 -23.541300 -11.980500
C -13.751700 -21.090700 -11.420000
O -13.546200 -24.680100 -11.752800
C -13.437700 -22.482000 -11.285200
N -13.043100 -20.362300 -10.575900
C -12.460500 -22.583100 -10.290700
N -12.259300 -21.307700 -9.883500
H -11.973400 -24.412700 -10.084400
H -11.949500 -18.983400 -8.676600
N -11.809000 -23.621200 -9.792100
N -11.422300 -19.617000 -8.433100
C -11.418800 -20.854300 -8.899400
H -11.220800 -23.503300 -9.175900
N -10.486300 -21.570800 -8.303100
N -10.448200 -19.532200 -7.504600
N -9.910300 -20.705000 -7.432400
H -21.963400 -21.020300 -19.672200
O -21.754400 -23.316000 -19.682500
H -21.625900 -19.677600 -19.124000
N -21.510800 -20.529600 -19.130200
N -20.857400 -23.541300 -18.857900
C -20.629200 -21.090700 -18.297400
O -20.423700 -24.680100 -18.630200
C -20.315200 -22.482000 -18.162600
N -19.920600 -20.362300 -17.453300
C -19.338100 -22.583100 -17.168100
N -19.136900 -21.307700 -16.761000
H -18.850900 -24.412700 -16.961800
H -18.827000 -18.983400 -15.554000
N -18.686500 -23.621200 -16.669500
N -18.299800 -19.617000 -15.310500
C -18.296400 -20.854300 -15.776800
H -18.098300 -23.503300 -16.053300
N -17.363900 -21.570800 -15.180500
N -17.325700 -19.532200 -14.382100
N -16.787800 -20.705000 -14.309800
