14
Fragment
H -10.980700 -8.318800 -21.829400
O -10.632500 -9.004000 -22.400900
H -9.924600 -11.369400 -22.940600
C -9.752200 -9.743200 -21.788600
O -9.433600 -9.575000 -20.632900
C -9.188700 -10.826200 -22.661400
H -8.791000 -10.384400 -23.449400
H -8.564800 -12.129200 -21.179300
C -8.167100 -11.687400 -21.967300
O -7.922200 -12.938600 -23.995800
C -7.603600 -12.770400 -22.840100
H -7.431200 -11.144200 -21.688100
O -6.723300 -13.509600 -22.227800
H -6.375000 -14.194800 -22.799300
14
Fragment
H -10.980700 -2.690400 -21.829400
O -10.632500 -3.375600 -22.400900
H -9.924600 -5.741000 -22.940600
C -9.752200 -4.114800 -21.788600
O -9.433600 -3.946600 -20.632900
C -9.188700 -5.197800 -22.661400
H -8.791000 -4.756000 -23.449400
H -8.564800 -6.500800 -21.179300
C -8.167100 -6.059000 -21.967300
O -7.922200 -7.310200 -23.995800
C -7.603600 -7.142000 -22.840100
H -7.431200 -5.515800 -21.688100
O -6.723300 -7.881200 -22.227800
H -6.375000 -8.566400 -22.799300
28
Fragment
H -10.980700 -8.318800 -21.829400
O -10.632500 -9.004000 -22.400900
H -9.924600 -11.369400 -22.940600
C -9.752200 -9.743200 -21.788600
O -9.433600 -9.575000 -20.632900
C -9.188700 -10.826200 -22.661400
H -8.791000 -10.384400 -23.449400
H -8.564800 -12.129200 -21.179300
C -8.167100 -11.687400 -21.967300
O -7.922200 -12.938600 -23.995800
C -7.603600 -12.770400 -22.840100
H -7.431200 -11.144200 -21.688100
O -6.723300 -13.509600 -22.227800
H -6.375000 -14.194800 -22.799300
H -10.980700 -2.690400 -21.829400
O -10.632500 -3.375600 -22.400900
H -9.924600 -5.741000 -22.940600
C -9.752200 -4.114800 -21.788600
O -9.433600 -3.946600 -20.632900
C -9.188700 -5.197800 -22.661400
H -8.791000 -4.756000 -23.449400
H -8.564800 -6.500800 -21.179300
C -8.167100 -6.059000 -21.967300
O -7.922200 -7.310200 -23.995800
C -7.603600 -7.142000 -22.840100
H -7.431200 -5.515800 -21.688100
O -6.723300 -7.881200 -22.227800
H -6.375000 -8.566400 -22.799300
