14
Fragment
H -10.980700 -8.318800 -21.829400
O -10.632500 -9.004000 -22.400900
H -9.924600 -11.369400 -22.940600
C -9.752200 -9.743200 -21.788600
O -9.433600 -9.575000 -20.632900
C -9.188700 -10.826200 -22.661400
H -8.791000 -10.384400 -23.449400
H -8.564800 -12.129200 -21.179300
C -8.167100 -11.687400 -21.967300
O -7.922200 -12.938600 -23.995800
C -7.603600 -12.770400 -22.840100
H -7.431200 -11.144200 -21.688100
O -6.723300 -13.509600 -22.227800
H -6.375000 -14.194800 -22.799300
14
Fragment
H -5.401400 -10.508200 -19.861300
H -4.756300 -11.121700 -21.136200
C -4.552000 -10.638800 -20.355900
H -4.193700 -9.759600 -20.640800
H -4.177100 -10.384400 -17.860400
N -3.623200 -11.329900 -19.484900
C -3.378700 -10.724900 -18.193300
H -3.064600 -11.296200 -17.521200
O -3.059400 -12.745700 -21.138200
C -2.890200 -12.348800 -19.966900
H -2.668300 -10.086100 -18.226400
N -1.982800 -12.938700 -19.169700
H -1.819400 -12.692000 -18.337900
H -1.556600 -13.643200 -19.557800
28
Fragment
H -10.980700 -8.318800 -21.829400
O -10.632500 -9.004000 -22.400900
H -9.924600 -11.369400 -22.940600
C -9.752200 -9.743200 -21.788600
O -9.433600 -9.575000 -20.632900
C -9.188700 -10.826200 -22.661400
H -8.791000 -10.384400 -23.449400
H -8.564800 -12.129200 -21.179300
C -8.167100 -11.687400 -21.967300
O -7.922200 -12.938600 -23.995800
C -7.603600 -12.770400 -22.840100
H -7.431200 -11.144200 -21.688100
O -6.723300 -13.509600 -22.227800
H -6.375000 -14.194800 -22.799300
H -5.401400 -10.508200 -19.861300
H -4.756300 -11.121700 -21.136200
C -4.552000 -10.638800 -20.355900
H -4.193700 -9.759600 -20.640800
H -4.177100 -10.384400 -17.860400
N -3.623200 -11.329900 -19.484900
C -3.378700 -10.724900 -18.193300
H -3.064600 -11.296200 -17.521200
O -3.059400 -12.745700 -21.138200
C -2.890200 -12.348800 -19.966900
H -2.668300 -10.086100 -18.226400
N -1.982800 -12.938700 -19.169700
H -1.819400 -12.692000 -18.337900
H -1.556600 -13.643200 -19.557800
