14
Fragment
H -13.632500 -2.664600 -20.369200
O -13.021400 -3.343100 -19.883500
O -12.743500 -4.249300 -21.907100
C -12.539300 -4.246300 -20.698900
H -12.351100 -5.771500 -19.260600
H -11.867500 -6.814800 -21.518700
C -11.703200 -5.285800 -19.995300
C -11.094900 -6.294200 -20.945400
H -10.930600 -4.765200 -19.422000
H -10.447000 -5.808500 -21.680200
C -10.258900 -7.333700 -20.241800
O -10.054600 -7.330700 -19.033600
O -9.776800 -8.236900 -21.057200
H -9.165600 -8.915400 -20.571500
11
Fragment
H -12.601700 -4.064600 -16.791300
H -12.500900 -2.439900 -17.412200
C -11.997300 -3.192500 -16.841800
H -11.867300 -3.365100 -14.708400
N -11.673700 -2.752400 -15.502500
H -11.114000 -3.456600 -17.408000
C -10.988600 -1.641800 -15.212300
O -10.705500 -1.376200 -14.008100
H -10.676100 -1.059000 -17.184700
N -10.625200 -0.809300 -16.205000
H -10.095300 0.004100 -15.927700
25
Fragment
H -13.632500 -2.664600 -20.369200
O -13.021400 -3.343100 -19.883500
O -12.743500 -4.249300 -21.907100
C -12.539300 -4.246300 -20.698900
H -12.351100 -5.771500 -19.260600
H -11.867500 -6.814800 -21.518700
C -11.703200 -5.285800 -19.995300
C -11.094900 -6.294200 -20.945400
H -10.930600 -4.765200 -19.422000
H -10.447000 -5.808500 -21.680200
C -10.258900 -7.333700 -20.241800
O -10.054600 -7.330700 -19.033600
O -9.776800 -8.236900 -21.057200
H -9.165600 -8.915400 -20.571500
H -12.601700 -4.064600 -16.791300
H -12.500900 -2.439900 -17.412200
C -11.997300 -3.192500 -16.841800
H -11.867300 -3.365100 -14.708400
N -11.673700 -2.752400 -15.502500
H -11.114000 -3.456600 -17.408000
C -10.988600 -1.641800 -15.212300
O -10.705500 -1.376200 -14.008100
H -10.676100 -1.059000 -17.184700
N -10.625200 -0.809300 -16.205000
H -10.095300 0.004100 -15.927700
