14
Fragment
H -13.632500 -2.664600 -20.369200
O -13.021400 -3.343100 -19.883500
O -12.743500 -4.249300 -21.907100
C -12.539300 -4.246300 -20.698900
H -12.351100 -5.771500 -19.260600
H -11.867500 -6.814800 -21.518700
C -11.703200 -5.285800 -19.995300
C -11.094900 -6.294200 -20.945400
H -10.930600 -4.765200 -19.422000
H -10.447000 -5.808500 -21.680200
C -10.258900 -7.333700 -20.241800
O -10.054600 -7.330700 -19.033600
O -9.776800 -8.236900 -21.057200
H -9.165600 -8.915400 -20.571500
11
Fragment
H -12.702800 -11.584100 -25.013000
N -12.173000 -10.770700 -24.735700
H -12.122000 -10.521000 -23.756000
O -12.092600 -10.203800 -26.932600
C -11.809500 -9.938200 -25.728400
H -11.684200 -8.123400 -23.532700
N -11.124400 -8.827600 -25.438200
H -10.930800 -8.214900 -26.232400
C -10.800800 -8.387500 -24.098900
H -10.297200 -9.140100 -23.528500
H -10.196400 -7.515400 -24.149400
25
Fragment
H -13.632500 -2.664600 -20.369200
O -13.021400 -3.343100 -19.883500
O -12.743500 -4.249300 -21.907100
C -12.539300 -4.246300 -20.698900
H -12.351100 -5.771500 -19.260600
H -11.867500 -6.814800 -21.518700
C -11.703200 -5.285800 -19.995300
C -11.094900 -6.294200 -20.945400
H -10.930600 -4.765200 -19.422000
H -10.447000 -5.808500 -21.680200
C -10.258900 -7.333700 -20.241800
O -10.054600 -7.330700 -19.033600
O -9.776800 -8.236900 -21.057200
H -9.165600 -8.915400 -20.571500
H -12.702800 -11.584100 -25.013000
N -12.173000 -10.770700 -24.735700
H -12.122000 -10.521000 -23.756000
O -12.092600 -10.203800 -26.932600
C -11.809500 -9.938200 -25.728400
H -11.684200 -8.123400 -23.532700
N -11.124400 -8.827600 -25.438200
H -10.930800 -8.214900 -26.232400
C -10.800800 -8.387500 -24.098900
H -10.297200 -9.140100 -23.528500
H -10.196400 -7.515400 -24.149400
