14
Fragment
H -13.632500 -2.664600 -20.369200
O -13.021400 -3.343100 -19.883500
O -12.743500 -4.249300 -21.907100
C -12.539300 -4.246300 -20.698900
H -12.351100 -5.771500 -19.260600
H -11.867500 -6.814800 -21.518700
C -11.703200 -5.285800 -19.995300
C -11.094900 -6.294200 -20.945400
H -10.930600 -4.765200 -19.422000
H -10.447000 -5.808500 -21.680200
C -10.258900 -7.333700 -20.241800
O -10.054600 -7.330700 -19.033600
O -9.776800 -8.236900 -21.057200
H -9.165600 -8.915400 -20.571500
11
Fragment
H -16.401400 1.169600 -23.614700
H -16.300600 -0.455100 -24.235700
C -15.797000 0.297500 -23.665200
H -15.667000 0.470100 -21.531800
N -15.473400 -0.142600 -22.325900
H -14.913600 0.561600 -24.231400
C -14.788300 -1.253200 -22.035800
O -14.505200 -1.518800 -20.831600
H -14.475800 -1.836000 -24.008200
N -14.424800 -2.085700 -23.028500
H -13.895000 -2.899100 -22.751200
25
Fragment
H -13.632500 -2.664600 -20.369200
O -13.021400 -3.343100 -19.883500
O -12.743500 -4.249300 -21.907100
C -12.539300 -4.246300 -20.698900
H -12.351100 -5.771500 -19.260600
H -11.867500 -6.814800 -21.518700
C -11.703200 -5.285800 -19.995300
C -11.094900 -6.294200 -20.945400
H -10.930600 -4.765200 -19.422000
H -10.447000 -5.808500 -21.680200
C -10.258900 -7.333700 -20.241800
O -10.054600 -7.330700 -19.033600
O -9.776800 -8.236900 -21.057200
H -9.165600 -8.915400 -20.571500
H -16.401400 1.169600 -23.614700
H -16.300600 -0.455100 -24.235700
C -15.797000 0.297500 -23.665200
H -15.667000 0.470100 -21.531800
N -15.473400 -0.142600 -22.325900
H -14.913600 0.561600 -24.231400
C -14.788300 -1.253200 -22.035800
O -14.505200 -1.518800 -20.831600
H -14.475800 -1.836000 -24.008200
N -14.424800 -2.085700 -23.028500
H -13.895000 -2.899100 -22.751200
