14
Fragment
H -13.632500 -2.664600 -20.369200
O -13.021400 -3.343100 -19.883500
O -12.743500 -4.249300 -21.907100
C -12.539300 -4.246300 -20.698900
H -12.351100 -5.771500 -19.260600
H -11.867500 -6.814800 -21.518700
C -11.703200 -5.285800 -19.995300
C -11.094900 -6.294200 -20.945400
H -10.930600 -4.765200 -19.422000
H -10.447000 -5.808500 -21.680200
C -10.258900 -7.333700 -20.241800
O -10.054600 -7.330700 -19.033600
O -9.776800 -8.236900 -21.057200
H -9.165600 -8.915400 -20.571500
11
Fragment
H -16.793100 -2.890900 -18.189600
N -16.263300 -3.704300 -17.912200
H -16.212300 -3.954000 -16.932500
O -16.182900 -4.271200 -20.109100
C -15.899800 -4.536800 -18.904900
H -15.774500 -6.351600 -16.709300
N -15.214700 -5.647400 -18.614800
H -15.021100 -6.260100 -19.408900
C -14.891100 -6.087500 -17.275500
H -14.387500 -5.334900 -16.705000
H -14.286700 -6.959600 -17.326000
25
Fragment
H -13.632500 -2.664600 -20.369200
O -13.021400 -3.343100 -19.883500
O -12.743500 -4.249300 -21.907100
C -12.539300 -4.246300 -20.698900
H -12.351100 -5.771500 -19.260600
H -11.867500 -6.814800 -21.518700
C -11.703200 -5.285800 -19.995300
C -11.094900 -6.294200 -20.945400
H -10.930600 -4.765200 -19.422000
H -10.447000 -5.808500 -21.680200
C -10.258900 -7.333700 -20.241800
O -10.054600 -7.330700 -19.033600
O -9.776800 -8.236900 -21.057200
H -9.165600 -8.915400 -20.571500
H -16.793100 -2.890900 -18.189600
N -16.263300 -3.704300 -17.912200
H -16.212300 -3.954000 -16.932500
O -16.182900 -4.271200 -20.109100
C -15.899800 -4.536800 -18.904900
H -15.774500 -6.351600 -16.709300
N -15.214700 -5.647400 -18.614800
H -15.021100 -6.260100 -19.408900
C -14.891100 -6.087500 -17.275500
H -14.387500 -5.334900 -16.705000
H -14.286700 -6.959600 -17.326000
