12
Fragment
H -9.845800 -8.406800 -20.133700
O -9.453600 -9.243900 -19.703500
C -8.527400 -9.779600 -20.454400
H -8.275800 -11.265500 -19.006600
O -8.191000 -9.348200 -21.551600
C -7.906000 -10.983000 -19.841400
C -6.897500 -11.615800 -20.412500
O -6.612500 -13.250600 -18.702400
H -6.527700 -11.333300 -21.247400
C -6.276100 -12.819200 -19.799600
O -5.349800 -13.354900 -20.550400
H -4.957700 -14.192000 -20.120300
12
Fragment
H -9.845800 -14.056500 -20.133700
O -9.453600 -14.893600 -19.703500
C -8.527400 -15.429300 -20.454400
H -8.275800 -16.915200 -19.006600
O -8.191000 -14.997900 -21.551600
C -7.906000 -16.632700 -19.841400
C -6.897500 -17.265500 -20.412500
O -6.612500 -18.900300 -18.702400
H -6.527700 -16.983000 -21.247400
C -6.276100 -18.468900 -19.799600
O -5.349800 -19.004600 -20.550400
H -4.957700 -19.841700 -20.120300
24
Fragment
H -9.845800 -8.406800 -20.133700
O -9.453600 -9.243900 -19.703500
C -8.527400 -9.779600 -20.454400
H -8.275800 -11.265500 -19.006600
O -8.191000 -9.348200 -21.551600
C -7.906000 -10.983000 -19.841400
C -6.897500 -11.615800 -20.412500
O -6.612500 -13.250600 -18.702400
H -6.527700 -11.333300 -21.247400
C -6.276100 -12.819200 -19.799600
O -5.349800 -13.354900 -20.550400
H -4.957700 -14.192000 -20.120300
H -9.845800 -14.056500 -20.133700
O -9.453600 -14.893600 -19.703500
C -8.527400 -15.429300 -20.454400
H -8.275800 -16.915200 -19.006600
O -8.191000 -14.997900 -21.551600
C -7.906000 -16.632700 -19.841400
C -6.897500 -17.265500 -20.412500
O -6.612500 -18.900300 -18.702400
H -6.527700 -16.983000 -21.247400
C -6.276100 -18.468900 -19.799600
O -5.349800 -19.004600 -20.550400
H -4.957700 -19.841700 -20.120300
