15
Fragment
H -30.773800 -18.570100 -9.328800
H -30.196200 -19.979400 -8.926200
N -30.104900 -19.079800 -9.044900
N -29.020000 -17.112100 -8.598600
C -29.000300 -18.455800 -8.591800
H -28.555300 -14.716000 -8.318800
N -27.992700 -19.233800 -8.174100
C -27.888200 -16.548700 -8.149600
N -27.807400 -15.205700 -8.142700
H -27.183800 -14.872200 -7.629500
C -26.917700 -18.557900 -7.751000
N -26.801700 -17.216400 -7.719600
H -25.876600 -20.126800 -7.431600
N -25.866300 -19.260100 -7.295200
H -25.024400 -18.816900 -7.274700
15
Fragment
H -27.357900 -25.114400 -9.786000
N -26.516000 -25.557600 -9.765500
H -26.505800 -26.424300 -9.629100
N -25.580700 -23.513900 -9.341100
C -25.464700 -24.855400 -9.309700
H -25.198500 -21.169700 -9.431200
N -24.575000 -21.503200 -8.918000
C -24.494200 -22.846200 -8.911100
N -24.389700 -25.531300 -8.886600
H -23.827100 -21.013500 -8.741900
C -23.382000 -24.753300 -8.468900
N -23.362400 -23.409600 -8.462100
N -22.277500 -25.377300 -8.015800
H -22.186100 -26.276900 -8.134500
H -21.608600 -24.867600 -7.731900
30
Fragment
H -30.773800 -18.570100 -9.328800
H -30.196200 -19.979400 -8.926200
N -30.104900 -19.079800 -9.044900
N -29.020000 -17.112100 -8.598600
C -29.000300 -18.455800 -8.591800
H -28.555300 -14.716000 -8.318800
N -27.992700 -19.233800 -8.174100
C -27.888200 -16.548700 -8.149600
N -27.807400 -15.205700 -8.142700
H -27.183800 -14.872200 -7.629500
C -26.917700 -18.557900 -7.751000
N -26.801700 -17.216400 -7.719600
H -25.876600 -20.126800 -7.431600
N -25.866300 -19.260100 -7.295200
H -25.024400 -18.816900 -7.274700
H -27.357900 -25.114400 -9.786000
N -26.516000 -25.557600 -9.765500
H -26.505800 -26.424300 -9.629100
N -25.580700 -23.513900 -9.341100
C -25.464700 -24.855400 -9.309700
H -25.198500 -21.169700 -9.431200
N -24.575000 -21.503200 -8.918000
C -24.494200 -22.846200 -8.911100
N -24.389700 -25.531300 -8.886600
H -23.827100 -21.013500 -8.741900
C -23.382000 -24.753300 -8.468900
N -23.362400 -23.409600 -8.462100
N -22.277500 -25.377300 -8.015800
H -22.186100 -26.276900 -8.134500
H -21.608600 -24.867600 -7.731900
