15
Fragment
H -30.773800 -18.570100 -9.328800
H -30.196200 -19.979400 -8.926200
N -30.104900 -19.079800 -9.044900
N -29.020000 -17.112100 -8.598600
C -29.000300 -18.455800 -8.591800
H -28.555300 -14.716000 -8.318800
N -27.992700 -19.233800 -8.174100
C -27.888200 -16.548700 -8.149600
N -27.807400 -15.205700 -8.142700
H -27.183800 -14.872200 -7.629500
C -26.917700 -18.557900 -7.751000
N -26.801700 -17.216400 -7.719600
H -25.876600 -20.126800 -7.431600
N -25.866300 -19.260100 -7.295200
H -25.024400 -18.816900 -7.274700
15
Fragment
H -38.120900 -18.816900 -9.786000
N -37.279000 -19.260100 -9.765500
H -37.268800 -20.126800 -9.629100
N -36.343700 -17.216400 -9.341100
C -36.227700 -18.557900 -9.309700
H -35.961500 -14.872200 -9.431200
N -35.338000 -15.205700 -8.918000
C -35.257200 -16.548700 -8.911100
N -35.152700 -19.233800 -8.886600
H -34.590100 -14.716000 -8.741900
C -34.145000 -18.455800 -8.468900
N -34.125400 -17.112100 -8.462100
N -33.040500 -19.079800 -8.015800
H -32.949100 -19.979400 -8.134500
H -32.371600 -18.570100 -7.731900
30
Fragment
H -30.773800 -18.570100 -9.328800
H -30.196200 -19.979400 -8.926200
N -30.104900 -19.079800 -9.044900
N -29.020000 -17.112100 -8.598600
C -29.000300 -18.455800 -8.591800
H -28.555300 -14.716000 -8.318800
N -27.992700 -19.233800 -8.174100
C -27.888200 -16.548700 -8.149600
N -27.807400 -15.205700 -8.142700
H -27.183800 -14.872200 -7.629500
C -26.917700 -18.557900 -7.751000
N -26.801700 -17.216400 -7.719600
H -25.876600 -20.126800 -7.431600
N -25.866300 -19.260100 -7.295200
H -25.024400 -18.816900 -7.274700
H -38.120900 -18.816900 -9.786000
N -37.279000 -19.260100 -9.765500
H -37.268800 -20.126800 -9.629100
N -36.343700 -17.216400 -9.341100
C -36.227700 -18.557900 -9.309700
H -35.961500 -14.872200 -9.431200
N -35.338000 -15.205700 -8.918000
C -35.257200 -16.548700 -8.911100
N -35.152700 -19.233800 -8.886600
H -34.590100 -14.716000 -8.741900
C -34.145000 -18.455800 -8.468900
N -34.125400 -17.112100 -8.462100
N -33.040500 -19.079800 -8.015800
H -32.949100 -19.979400 -8.134500
H -32.371600 -18.570100 -7.731900
