15
Fragment
H -30.773800 -18.570100 -9.328800
H -30.196200 -19.979400 -8.926200
N -30.104900 -19.079800 -9.044900
N -29.020000 -17.112100 -8.598600
C -29.000300 -18.455800 -8.591800
H -28.555300 -14.716000 -8.318800
N -27.992700 -19.233800 -8.174100
C -27.888200 -16.548700 -8.149600
N -27.807400 -15.205700 -8.142700
H -27.183800 -14.872200 -7.629500
C -26.917700 -18.557900 -7.751000
N -26.801700 -17.216400 -7.719600
H -25.876600 -20.126800 -7.431600
N -25.866300 -19.260100 -7.295200
H -25.024400 -18.816900 -7.274700
15
Fragment
H -37.834400 -18.968100 -13.198200
N -36.992500 -18.524900 -13.177700
H -36.982200 -17.658200 -13.041200
N -36.057100 -20.568600 -12.753200
C -35.941200 -19.227100 -12.721800
H -35.675000 -22.912800 -12.843300
N -35.051400 -22.579300 -12.330100
C -34.970600 -21.236300 -12.323300
N -34.866200 -18.551200 -12.298700
H -34.303600 -23.069000 -12.154000
C -33.858500 -19.329200 -11.881100
N -33.838800 -20.672900 -11.874300
N -32.754000 -18.705200 -11.427900
H -32.662600 -17.805600 -11.546700
H -32.085100 -19.214900 -11.144100
30
Fragment
H -30.773800 -18.570100 -9.328800
H -30.196200 -19.979400 -8.926200
N -30.104900 -19.079800 -9.044900
N -29.020000 -17.112100 -8.598600
C -29.000300 -18.455800 -8.591800
H -28.555300 -14.716000 -8.318800
N -27.992700 -19.233800 -8.174100
C -27.888200 -16.548700 -8.149600
N -27.807400 -15.205700 -8.142700
H -27.183800 -14.872200 -7.629500
C -26.917700 -18.557900 -7.751000
N -26.801700 -17.216400 -7.719600
H -25.876600 -20.126800 -7.431600
N -25.866300 -19.260100 -7.295200
H -25.024400 -18.816900 -7.274700
H -37.834400 -18.968100 -13.198200
N -36.992500 -18.524900 -13.177700
H -36.982200 -17.658200 -13.041200
N -36.057100 -20.568600 -12.753200
C -35.941200 -19.227100 -12.721800
H -35.675000 -22.912800 -12.843300
N -35.051400 -22.579300 -12.330100
C -34.970600 -21.236300 -12.323300
N -34.866200 -18.551200 -12.298700
H -34.303600 -23.069000 -12.154000
C -33.858500 -19.329200 -11.881100
N -33.838800 -20.672900 -11.874300
N -32.754000 -18.705200 -11.427900
H -32.662600 -17.805600 -11.546700
H -32.085100 -19.214900 -11.144100
