15
Fragment
H -30.773800 -18.570100 -9.328800
H -30.196200 -19.979400 -8.926200
N -30.104900 -19.079800 -9.044900
N -29.020000 -17.112100 -8.598600
C -29.000300 -18.455800 -8.591800
H -28.555300 -14.716000 -8.318800
N -27.992700 -19.233800 -8.174100
C -27.888200 -16.548700 -8.149600
N -27.807400 -15.205700 -8.142700
H -27.183800 -14.872200 -7.629500
C -26.917700 -18.557900 -7.751000
N -26.801700 -17.216400 -7.719600
H -25.876600 -20.126800 -7.431600
N -25.866300 -19.260100 -7.295200
H -25.024400 -18.816900 -7.274700
15
Fragment
H -27.644500 -12.670600 -6.373900
N -26.802600 -12.227400 -6.353400
H -26.792300 -11.360700 -6.216900
N -25.867200 -14.271100 -5.928900
C -25.751200 -12.929600 -5.897500
H -25.485100 -16.615300 -6.019000
N -24.861500 -16.281800 -5.505800
C -24.780700 -14.938800 -5.499000
N -24.676200 -12.253700 -5.474400
H -24.113600 -16.771500 -5.329800
C -23.668600 -13.031700 -5.056800
N -23.648900 -14.375400 -5.050000
N -22.564000 -12.407700 -4.603700
H -22.472700 -11.508100 -4.722400
H -21.895100 -12.917400 -4.319800
30
Fragment
H -30.773800 -18.570100 -9.328800
H -30.196200 -19.979400 -8.926200
N -30.104900 -19.079800 -9.044900
N -29.020000 -17.112100 -8.598600
C -29.000300 -18.455800 -8.591800
H -28.555300 -14.716000 -8.318800
N -27.992700 -19.233800 -8.174100
C -27.888200 -16.548700 -8.149600
N -27.807400 -15.205700 -8.142700
H -27.183800 -14.872200 -7.629500
C -26.917700 -18.557900 -7.751000
N -26.801700 -17.216400 -7.719600
H -25.876600 -20.126800 -7.431600
N -25.866300 -19.260100 -7.295200
H -25.024400 -18.816900 -7.274700
H -27.644500 -12.670600 -6.373900
N -26.802600 -12.227400 -6.353400
H -26.792300 -11.360700 -6.216900
N -25.867200 -14.271100 -5.928900
C -25.751200 -12.929600 -5.897500
H -25.485100 -16.615300 -6.019000
N -24.861500 -16.281800 -5.505800
C -24.780700 -14.938800 -5.499000
N -24.676200 -12.253700 -5.474400
H -24.113600 -16.771500 -5.329800
C -23.668600 -13.031700 -5.056800
N -23.648900 -14.375400 -5.050000
N -22.564000 -12.407700 -4.603700
H -22.472700 -11.508100 -4.722400
H -21.895100 -12.917400 -4.319800
