15
Fragment
H -30.773800 -18.570100 -9.328800
H -30.196200 -19.979400 -8.926200
N -30.104900 -19.079800 -9.044900
N -29.020000 -17.112100 -8.598600
C -29.000300 -18.455800 -8.591800
H -28.555300 -14.716000 -8.318800
N -27.992700 -19.233800 -8.174100
C -27.888200 -16.548700 -8.149600
N -27.807400 -15.205700 -8.142700
H -27.183800 -14.872200 -7.629500
C -26.917700 -18.557900 -7.751000
N -26.801700 -17.216400 -7.719600
H -25.876600 -20.126800 -7.431600
N -25.866300 -19.260100 -7.295200
H -25.024400 -18.816900 -7.274700
22
Fragment
H -35.731200 -22.676000 -8.584900
N -35.002100 -22.175300 -8.690000
H -34.986700 -21.289300 -8.735100
N -33.929100 -24.170700 -8.466200
C -33.858600 -22.821400 -8.575400
C -32.788900 -24.835100 -8.473700
N -32.777600 -26.164900 -8.438900
N -32.723200 -22.077000 -8.580200
H -32.310600 -28.546600 -8.509900
N -31.572700 -28.099600 -8.530400
C -31.572700 -26.773900 -8.530400
N -31.572700 -24.133700 -8.530400
C -31.572700 -22.728400 -8.530400
H -30.834800 -28.546600 -8.550800
N -30.422200 -22.077000 -8.480500
N -30.367700 -26.164900 -8.621800
C -30.356400 -24.835100 -8.587000
C -29.286700 -22.821400 -8.485300
N -29.216200 -24.170700 -8.594500
H -28.158600 -21.289300 -8.325600
N -28.143200 -22.175300 -8.370700
H -27.414100 -22.676000 -8.475800
37
Fragment
H -30.773800 -18.570100 -9.328800
H -30.196200 -19.979400 -8.926200
N -30.104900 -19.079800 -9.044900
N -29.020000 -17.112100 -8.598600
C -29.000300 -18.455800 -8.591800
H -28.555300 -14.716000 -8.318800
N -27.992700 -19.233800 -8.174100
C -27.888200 -16.548700 -8.149600
N -27.807400 -15.205700 -8.142700
H -27.183800 -14.872200 -7.629500
C -26.917700 -18.557900 -7.751000
N -26.801700 -17.216400 -7.719600
H -25.876600 -20.126800 -7.431600
N -25.866300 -19.260100 -7.295200
H -25.024400 -18.816900 -7.274700
H -35.731200 -22.676000 -8.584900
N -35.002100 -22.175300 -8.690000
H -34.986700 -21.289300 -8.735100
N -33.929100 -24.170700 -8.466200
C -33.858600 -22.821400 -8.575400
C -32.788900 -24.835100 -8.473700
N -32.777600 -26.164900 -8.438900
N -32.723200 -22.077000 -8.580200
H -32.310600 -28.546600 -8.509900
N -31.572700 -28.099600 -8.530400
C -31.572700 -26.773900 -8.530400
N -31.572700 -24.133700 -8.530400
C -31.572700 -22.728400 -8.530400
H -30.834800 -28.546600 -8.550800
N -30.422200 -22.077000 -8.480500
N -30.367700 -26.164900 -8.621800
C -30.356400 -24.835100 -8.587000
C -29.286700 -22.821400 -8.485300
N -29.216200 -24.170700 -8.594500
H -28.158600 -21.289300 -8.325600
N -28.143200 -22.175300 -8.370700
H -27.414100 -22.676000 -8.475800
