31
Fragment
O -28.164400 -10.975800 -29.291000
H -27.028200 -9.402000 -30.749400
C -26.984500 -10.917800 -29.600800
N -26.470800 -9.954500 -30.375100
H -26.407800 -12.504700 -28.589900
N -26.087000 -11.857300 -29.111700
H -25.308200 -9.982600 -32.880300
O -25.254600 -10.623700 -32.275800
C -25.184800 -9.988800 -31.023100
H -24.900700 -9.014900 -31.167600
C -24.737500 -11.830500 -29.245500
H -24.544900 -9.370700 -28.506300
O -24.248500 -13.037300 -31.474400
C -24.165700 -10.672400 -30.067100
O -24.012900 -12.605200 -28.659900
C -23.734800 -9.629800 -29.020900
H -23.406400 -8.777700 -29.422500
C -23.195300 -12.429800 -31.454600
H -23.073900 -10.038700 -28.445400
N -23.012800 -11.211800 -30.825400
H -22.218000 -13.697100 -32.509600
N -22.068200 -12.936700 -32.062500
C -21.786900 -10.581300 -30.864900
H -21.722800 -9.707900 -30.428100
C -20.816600 -12.363600 -32.117300
C -20.695200 -11.086300 -31.472900
O -19.901600 -12.962300 -32.702600
H -19.459400 -9.389500 -31.213200
C -19.368400 -10.385900 -31.471500
H -18.951200 -10.432100 -32.344200
H -18.724500 -10.869100 -30.918600
31
Fragment
H -23.616700 -10.981400 -35.613800
H -23.390000 -11.418400 -34.188100
C -22.972700 -11.464600 -35.060900
H -22.881700 -12.461000 -35.319200
O -22.439600 -8.888200 -33.829800
C -21.646000 -10.764200 -35.059500
C -21.524600 -9.486900 -34.415100
H -20.618300 -12.142600 -36.104300
C -20.554200 -11.269200 -35.667400
N -20.273000 -8.913800 -34.469900
H -20.123100 -8.153400 -34.022800
N -19.328400 -10.638700 -35.707000
H -19.267200 -11.811800 -38.086900
C -19.145800 -9.420700 -35.077800
H -18.934800 -13.072800 -37.109900
C -18.606400 -12.220700 -37.511500
O -18.328200 -9.245300 -37.872500
C -18.175500 -11.178100 -36.465300
O -18.092600 -8.813200 -35.058000
H -17.796300 -12.479800 -38.026100
C -17.603600 -10.020000 -37.286800
H -17.440400 -12.835600 -35.364800
C -17.156400 -11.861700 -35.509300
O -17.086600 -11.226800 -34.256600
H -17.033000 -11.867900 -33.652100
N -16.254200 -9.993200 -37.420700
H -15.933300 -9.345800 -37.942500
N -15.870400 -11.896000 -36.157300
C -15.356700 -10.932700 -36.931600
H -15.313000 -12.448500 -35.783000
O -14.176800 -10.874700 -37.241400
62
Fragment
O -28.164400 -10.975800 -29.291000
H -27.028200 -9.402000 -30.749400
C -26.984500 -10.917800 -29.600800
N -26.470800 -9.954500 -30.375100
H -26.407800 -12.504700 -28.589900
N -26.087000 -11.857300 -29.111700
H -25.308200 -9.982600 -32.880300
O -25.254600 -10.623700 -32.275800
C -25.184800 -9.988800 -31.023100
H -24.900700 -9.014900 -31.167600
C -24.737500 -11.830500 -29.245500
H -24.544900 -9.370700 -28.506300
O -24.248500 -13.037300 -31.474400
C -24.165700 -10.672400 -30.067100
O -24.012900 -12.605200 -28.659900
C -23.734800 -9.629800 -29.020900
H -23.406400 -8.777700 -29.422500
C -23.195300 -12.429800 -31.454600
H -23.073900 -10.038700 -28.445400
N -23.012800 -11.211800 -30.825400
H -22.218000 -13.697100 -32.509600
N -22.068200 -12.936700 -32.062500
C -21.786900 -10.581300 -30.864900
H -21.722800 -9.707900 -30.428100
C -20.816600 -12.363600 -32.117300
C -20.695200 -11.086300 -31.472900
O -19.901600 -12.962300 -32.702600
H -19.459400 -9.389500 -31.213200
C -19.368400 -10.385900 -31.471500
H -18.951200 -10.432100 -32.344200
H -18.724500 -10.869100 -30.918600
H -23.616700 -10.981400 -35.613800
H -23.390000 -11.418400 -34.188100
C -22.972700 -11.464600 -35.060900
H -22.881700 -12.461000 -35.319200
O -22.439600 -8.888200 -33.829800
C -21.646000 -10.764200 -35.059500
C -21.524600 -9.486900 -34.415100
H -20.618300 -12.142600 -36.104300
C -20.554200 -11.269200 -35.667400
N -20.273000 -8.913800 -34.469900
H -20.123100 -8.153400 -34.022800
N -19.328400 -10.638700 -35.707000
H -19.267200 -11.811800 -38.086900
C -19.145800 -9.420700 -35.077800
H -18.934800 -13.072800 -37.109900
C -18.606400 -12.220700 -37.511500
O -18.328200 -9.245300 -37.872500
C -18.175500 -11.178100 -36.465300
O -18.092600 -8.813200 -35.058000
H -17.796300 -12.479800 -38.026100
C -17.603600 -10.020000 -37.286800
H -17.440400 -12.835600 -35.364800
C -17.156400 -11.861700 -35.509300
O -17.086600 -11.226800 -34.256600
H -17.033000 -11.867900 -33.652100
N -16.254200 -9.993200 -37.420700
H -15.933300 -9.345800 -37.942500
N -15.870400 -11.896000 -36.157300
C -15.356700 -10.932700 -36.931600
H -15.313000 -12.448500 -35.783000
O -14.176800 -10.874700 -37.241400
