31
Fragment
O -28.164400 -10.975800 -29.291000
H -27.028200 -9.402000 -30.749400
C -26.984500 -10.917800 -29.600800
N -26.470800 -9.954500 -30.375100
H -26.407800 -12.504700 -28.589900
N -26.087000 -11.857300 -29.111700
H -25.308200 -9.982600 -32.880300
O -25.254600 -10.623700 -32.275800
C -25.184800 -9.988800 -31.023100
H -24.900700 -9.014900 -31.167600
C -24.737500 -11.830500 -29.245500
H -24.544900 -9.370700 -28.506300
O -24.248500 -13.037300 -31.474400
C -24.165700 -10.672400 -30.067100
O -24.012900 -12.605200 -28.659900
C -23.734800 -9.629800 -29.020900
H -23.406400 -8.777700 -29.422500
C -23.195300 -12.429800 -31.454600
H -23.073900 -10.038700 -28.445400
N -23.012800 -11.211800 -30.825400
H -22.218000 -13.697100 -32.509600
N -22.068200 -12.936700 -32.062500
C -21.786900 -10.581300 -30.864900
H -21.722800 -9.707900 -30.428100
C -20.816600 -12.363600 -32.117300
C -20.695200 -11.086300 -31.472900
O -19.901600 -12.962300 -32.702600
H -19.459400 -9.389500 -31.213200
C -19.368400 -10.385900 -31.471500
H -18.951200 -10.432100 -32.344200
H -18.724500 -10.869100 -30.918600
31
Fragment
O -16.959900 -10.874700 -29.291000
H -15.823700 -12.448500 -30.749400
C -15.780000 -10.932700 -29.600800
N -15.266300 -11.896000 -30.375100
H -15.203300 -9.345800 -28.589900
N -14.882500 -9.993200 -29.111700
H -14.103700 -11.867900 -32.880300
O -14.050100 -11.226800 -32.275800
C -13.980300 -11.861700 -31.023100
H -13.696200 -12.835600 -31.167600
C -13.533000 -10.020000 -29.245500
H -13.340400 -12.479800 -28.506300
O -13.044000 -8.813200 -31.474400
C -12.961200 -11.178100 -30.067100
O -12.808400 -9.245300 -28.659900
C -12.530300 -12.220700 -29.020900
H -12.201900 -13.072800 -29.422500
C -11.990800 -9.420700 -31.454600
H -11.869400 -11.811800 -28.445400
N -11.808300 -10.638700 -30.825400
H -11.013500 -8.153400 -32.509600
N -10.863700 -8.913800 -32.062500
C -10.582400 -11.269200 -30.864900
H -10.518300 -12.142600 -30.428100
C -9.612100 -9.486900 -32.117300
C -9.490700 -10.764200 -31.472900
O -8.697100 -8.888200 -32.702600
H -8.254900 -12.461000 -31.213200
C -8.163900 -11.464600 -31.471500
H -7.746700 -11.418400 -32.344200
H -7.520000 -10.981400 -30.918600
62
Fragment
O -28.164400 -10.975800 -29.291000
H -27.028200 -9.402000 -30.749400
C -26.984500 -10.917800 -29.600800
N -26.470800 -9.954500 -30.375100
H -26.407800 -12.504700 -28.589900
N -26.087000 -11.857300 -29.111700
H -25.308200 -9.982600 -32.880300
O -25.254600 -10.623700 -32.275800
C -25.184800 -9.988800 -31.023100
H -24.900700 -9.014900 -31.167600
C -24.737500 -11.830500 -29.245500
H -24.544900 -9.370700 -28.506300
O -24.248500 -13.037300 -31.474400
C -24.165700 -10.672400 -30.067100
O -24.012900 -12.605200 -28.659900
C -23.734800 -9.629800 -29.020900
H -23.406400 -8.777700 -29.422500
C -23.195300 -12.429800 -31.454600
H -23.073900 -10.038700 -28.445400
N -23.012800 -11.211800 -30.825400
H -22.218000 -13.697100 -32.509600
N -22.068200 -12.936700 -32.062500
C -21.786900 -10.581300 -30.864900
H -21.722800 -9.707900 -30.428100
C -20.816600 -12.363600 -32.117300
C -20.695200 -11.086300 -31.472900
O -19.901600 -12.962300 -32.702600
H -19.459400 -9.389500 -31.213200
C -19.368400 -10.385900 -31.471500
H -18.951200 -10.432100 -32.344200
H -18.724500 -10.869100 -30.918600
O -16.959900 -10.874700 -29.291000
H -15.823700 -12.448500 -30.749400
C -15.780000 -10.932700 -29.600800
N -15.266300 -11.896000 -30.375100
H -15.203300 -9.345800 -28.589900
N -14.882500 -9.993200 -29.111700
H -14.103700 -11.867900 -32.880300
O -14.050100 -11.226800 -32.275800
C -13.980300 -11.861700 -31.023100
H -13.696200 -12.835600 -31.167600
C -13.533000 -10.020000 -29.245500
H -13.340400 -12.479800 -28.506300
O -13.044000 -8.813200 -31.474400
C -12.961200 -11.178100 -30.067100
O -12.808400 -9.245300 -28.659900
C -12.530300 -12.220700 -29.020900
H -12.201900 -13.072800 -29.422500
C -11.990800 -9.420700 -31.454600
H -11.869400 -11.811800 -28.445400
N -11.808300 -10.638700 -30.825400
H -11.013500 -8.153400 -32.509600
N -10.863700 -8.913800 -32.062500
C -10.582400 -11.269200 -30.864900
H -10.518300 -12.142600 -30.428100
C -9.612100 -9.486900 -32.117300
C -9.490700 -10.764200 -31.472900
O -8.697100 -8.888200 -32.702600
H -8.254900 -12.461000 -31.213200
C -8.163900 -11.464600 -31.471500
H -7.746700 -11.418400 -32.344200
H -7.520000 -10.981400 -30.918600
