31
Fragment
O -28.164400 -10.975800 -29.291000
H -27.028200 -9.402000 -30.749400
C -26.984500 -10.917800 -29.600800
N -26.470800 -9.954500 -30.375100
H -26.407800 -12.504700 -28.589900
N -26.087000 -11.857300 -29.111700
H -25.308200 -9.982600 -32.880300
O -25.254600 -10.623700 -32.275800
C -25.184800 -9.988800 -31.023100
H -24.900700 -9.014900 -31.167600
C -24.737500 -11.830500 -29.245500
H -24.544900 -9.370700 -28.506300
O -24.248500 -13.037300 -31.474400
C -24.165700 -10.672400 -30.067100
O -24.012900 -12.605200 -28.659900
C -23.734800 -9.629800 -29.020900
H -23.406400 -8.777700 -29.422500
C -23.195300 -12.429800 -31.454600
H -23.073900 -10.038700 -28.445400
N -23.012800 -11.211800 -30.825400
H -22.218000 -13.697100 -32.509600
N -22.068200 -12.936700 -32.062500
C -21.786900 -10.581300 -30.864900
H -21.722800 -9.707900 -30.428100
C -20.816600 -12.363600 -32.117300
C -20.695200 -11.086300 -31.472900
O -19.901600 -12.962300 -32.702600
H -19.459400 -9.389500 -31.213200
C -19.368400 -10.385900 -31.471500
H -18.951200 -10.432100 -32.344200
H -18.724500 -10.869100 -30.918600
31
Fragment
H -36.775700 -7.859900 -26.109200
H -36.548900 -8.296900 -24.683500
C -36.131700 -8.343100 -25.556200
H -36.040700 -9.339500 -25.814600
O -35.598500 -5.766700 -24.325200
C -34.804900 -7.642700 -25.554900
C -34.683600 -6.365400 -24.910500
H -33.777300 -9.021100 -26.599600
C -33.713200 -8.147700 -26.162800
N -33.432000 -5.792300 -24.965200
H -33.282100 -5.031900 -24.518100
N -32.487400 -7.517200 -26.202400
H -32.426200 -8.690300 -28.582300
C -32.304800 -6.299200 -25.573100
H -32.093800 -9.951300 -27.605200
C -31.765400 -9.099200 -28.006900
O -31.487200 -6.123800 -28.367900
C -31.334500 -8.056600 -26.960600
O -31.251600 -5.691700 -25.553400
H -30.955200 -9.358300 -28.521500
C -30.762600 -6.898500 -27.782200
H -30.599400 -9.714100 -25.860200
C -30.315400 -8.740200 -26.004700
O -30.245600 -8.105300 -24.751900
H -30.191900 -8.746400 -24.147500
N -29.413200 -6.871700 -27.916000
H -29.092300 -6.224300 -28.437800
N -29.029400 -8.774500 -26.652700
C -28.515700 -7.811200 -27.426900
H -28.471900 -9.327000 -26.278400
O -27.335700 -7.753200 -27.736800
62
Fragment
O -28.164400 -10.975800 -29.291000
H -27.028200 -9.402000 -30.749400
C -26.984500 -10.917800 -29.600800
N -26.470800 -9.954500 -30.375100
H -26.407800 -12.504700 -28.589900
N -26.087000 -11.857300 -29.111700
H -25.308200 -9.982600 -32.880300
O -25.254600 -10.623700 -32.275800
C -25.184800 -9.988800 -31.023100
H -24.900700 -9.014900 -31.167600
C -24.737500 -11.830500 -29.245500
H -24.544900 -9.370700 -28.506300
O -24.248500 -13.037300 -31.474400
C -24.165700 -10.672400 -30.067100
O -24.012900 -12.605200 -28.659900
C -23.734800 -9.629800 -29.020900
H -23.406400 -8.777700 -29.422500
C -23.195300 -12.429800 -31.454600
H -23.073900 -10.038700 -28.445400
N -23.012800 -11.211800 -30.825400
H -22.218000 -13.697100 -32.509600
N -22.068200 -12.936700 -32.062500
C -21.786900 -10.581300 -30.864900
H -21.722800 -9.707900 -30.428100
C -20.816600 -12.363600 -32.117300
C -20.695200 -11.086300 -31.472900
O -19.901600 -12.962300 -32.702600
H -19.459400 -9.389500 -31.213200
C -19.368400 -10.385900 -31.471500
H -18.951200 -10.432100 -32.344200
H -18.724500 -10.869100 -30.918600
H -36.775700 -7.859900 -26.109200
H -36.548900 -8.296900 -24.683500
C -36.131700 -8.343100 -25.556200
H -36.040700 -9.339500 -25.814600
O -35.598500 -5.766700 -24.325200
C -34.804900 -7.642700 -25.554900
C -34.683600 -6.365400 -24.910500
H -33.777300 -9.021100 -26.599600
C -33.713200 -8.147700 -26.162800
N -33.432000 -5.792300 -24.965200
H -33.282100 -5.031900 -24.518100
N -32.487400 -7.517200 -26.202400
H -32.426200 -8.690300 -28.582300
C -32.304800 -6.299200 -25.573100
H -32.093800 -9.951300 -27.605200
C -31.765400 -9.099200 -28.006900
O -31.487200 -6.123800 -28.367900
C -31.334500 -8.056600 -26.960600
O -31.251600 -5.691700 -25.553400
H -30.955200 -9.358300 -28.521500
C -30.762600 -6.898500 -27.782200
H -30.599400 -9.714100 -25.860200
C -30.315400 -8.740200 -26.004700
O -30.245600 -8.105300 -24.751900
H -30.191900 -8.746400 -24.147500
N -29.413200 -6.871700 -27.916000
H -29.092300 -6.224300 -28.437800
N -29.029400 -8.774500 -26.652700
C -28.515700 -7.811200 -27.426900
H -28.471900 -9.327000 -26.278400
O -27.335700 -7.753200 -27.736800
