20
Fragment
H -8.632400 -25.550600 -29.107600
H -8.546900 -24.137500 -29.788000
C -8.023400 -24.891000 -29.475300
N -7.285800 -25.473000 -30.589400
H -7.244300 -24.881000 -27.545800
H -7.155700 -23.469500 -28.228500
H -7.052200 -27.301300 -29.761700
C -7.044300 -24.420800 -28.376600
H -6.895100 -23.689300 -31.435700
C -6.472500 -26.603900 -30.107200
C -6.380400 -24.450500 -31.123400
H -5.957400 -26.974800 -30.841200
H -5.886200 -24.810800 -31.875200
H -5.713800 -26.602300 -28.178300
N -5.670300 -24.695200 -28.764600
C -5.523400 -26.119700 -28.998900
H -5.485700 -23.039500 -29.895000
C -5.400700 -23.996100 -30.030400
H -4.606900 -26.311800 -29.252300
H -4.491200 -24.180100 -30.313400
20
Fragment
H -10.759500 -29.583600 -27.239600
H -10.663800 -28.285600 -26.358700
C -10.147300 -28.998400 -26.766900
N -9.444400 -29.755200 -25.727700
H -9.313800 -28.731700 -28.650300
H -9.244900 -31.420700 -26.835100
H -9.218700 -27.435100 -27.770700
C -9.127100 -28.400700 -27.758100
H -9.032200 -28.127300 -24.617700
C -8.655200 -30.812700 -26.361600
C -8.526000 -28.842900 -25.034300
H -8.182500 -31.318700 -25.682200
H -8.054000 -29.323900 -24.338000
H -7.794400 -30.555400 -28.241200
N -7.761000 -28.752000 -27.387300
C -7.638200 -30.197400 -27.352800
H -7.591700 -27.281200 -26.015500
C -7.518100 -28.248600 -26.021600
H -6.738000 -30.439000 -27.085600
H -6.618700 -28.483200 -25.744400
40
Fragment
H -8.632400 -25.550600 -29.107600
H -8.546900 -24.137500 -29.788000
C -8.023400 -24.891000 -29.475300
N -7.285800 -25.473000 -30.589400
H -7.244300 -24.881000 -27.545800
H -7.155700 -23.469500 -28.228500
H -7.052200 -27.301300 -29.761700
C -7.044300 -24.420800 -28.376600
H -6.895100 -23.689300 -31.435700
C -6.472500 -26.603900 -30.107200
C -6.380400 -24.450500 -31.123400
H -5.957400 -26.974800 -30.841200
H -5.886200 -24.810800 -31.875200
H -5.713800 -26.602300 -28.178300
N -5.670300 -24.695200 -28.764600
C -5.523400 -26.119700 -28.998900
H -5.485700 -23.039500 -29.895000
C -5.400700 -23.996100 -30.030400
H -4.606900 -26.311800 -29.252300
H -4.491200 -24.180100 -30.313400
H -10.759500 -29.583600 -27.239600
H -10.663800 -28.285600 -26.358700
C -10.147300 -28.998400 -26.766900
N -9.444400 -29.755200 -25.727700
H -9.313800 -28.731700 -28.650300
H -9.244900 -31.420700 -26.835100
H -9.218700 -27.435100 -27.770700
C -9.127100 -28.400700 -27.758100
H -9.032200 -28.127300 -24.617700
C -8.655200 -30.812700 -26.361600
C -8.526000 -28.842900 -25.034300
H -8.182500 -31.318700 -25.682200
H -8.054000 -29.323900 -24.338000
H -7.794400 -30.555400 -28.241200
N -7.761000 -28.752000 -27.387300
C -7.638200 -30.197400 -27.352800
H -7.591700 -27.281200 -26.015500
C -7.518100 -28.248600 -26.021600
H -6.738000 -30.439000 -27.085600
H -6.618700 -28.483200 -25.744400
