34
Fragment
H -11.471900 -15.144500 -14.845600
H -11.173400 -17.064200 -13.248900
O -10.889400 -19.384900 -14.175200
H -10.812700 -16.186200 -15.866100
C -10.631300 -15.448000 -15.247600
H -10.216700 -14.706700 -15.736500
C -10.214700 -17.197800 -13.457300
C -10.070500 -18.464100 -14.268300
H -9.736500 -17.317000 -12.598600
C -9.680600 -15.927600 -14.143800
H -9.575100 -15.203800 -13.462000
N -8.977700 -18.592600 -15.068700
H -8.851300 -19.341500 -15.513100
C -8.336500 -16.276100 -14.706400
C -8.058200 -17.558400 -15.194600
H -7.575900 -13.721600 -14.425000
C -7.225700 -15.528100 -15.043600
N -6.978300 -14.222300 -14.833000
N -6.888600 -17.704500 -15.797800
N -6.348600 -16.405900 -15.703900
H -6.218900 -13.869100 -15.103100
C -5.115400 -16.046000 -16.250400
O -4.815800 -14.863700 -16.296700
H -4.641200 -18.665000 -15.547200
C -4.185800 -17.087700 -16.769900
C -4.069600 -18.380000 -16.250400
H -3.362900 -15.773700 -18.107700
C -3.307600 -16.661500 -17.774300
C -3.110500 -19.248700 -16.769600
H -3.035500 -20.130200 -16.423300
C -2.355300 -17.536000 -18.283500
C -2.264100 -18.833900 -17.789800
H -1.765400 -17.247400 -18.970100
H -1.623400 -19.435700 -18.150100
34
Fragment
H -8.166600 -7.470900 -12.596300
H -8.024600 -9.659200 -11.776300
C -7.525900 -8.072700 -12.956600
C -7.434800 -9.370600 -12.462800
H -6.754600 -6.776400 -14.323100
C -6.679500 -7.657900 -13.976800
C -6.482500 -10.245100 -12.972100
H -6.427100 -11.132900 -12.638700
C -5.720400 -8.526600 -14.496000
C -5.604300 -9.818900 -13.976500
H -5.148800 -8.241600 -15.199200
O -4.974300 -12.042900 -14.449700
C -4.674700 -10.860600 -14.496000
H -3.571100 -13.037500 -15.643200
N -3.441500 -10.500700 -15.042500
N -2.901500 -9.202100 -14.948600
N -2.811800 -12.684300 -15.913400
C -2.564300 -11.378500 -15.702800
H -2.214100 -13.185000 -16.321400
C -1.731900 -9.348200 -15.551800
C -1.453500 -10.630500 -16.040000
H -0.938800 -7.565100 -15.233300
N -0.812400 -8.314000 -15.677700
H -0.214900 -11.702800 -17.284400
C -0.109400 -10.979000 -16.602500
H -0.053500 -9.589600 -18.147700
C 0.280500 -8.442500 -16.478100
C 0.424700 -9.708800 -17.289100
H 0.426700 -12.199900 -15.009900
C 0.841300 -11.458600 -15.498700
H 1.022700 -10.720400 -14.880300
O 1.099300 -7.521700 -16.571200
H 1.383300 -9.842400 -17.497500
H 1.681900 -11.762100 -15.900800
68
Fragment
H -11.471900 -15.144500 -14.845600
H -11.173400 -17.064200 -13.248900
O -10.889400 -19.384900 -14.175200
H -10.812700 -16.186200 -15.866100
C -10.631300 -15.448000 -15.247600
H -10.216700 -14.706700 -15.736500
C -10.214700 -17.197800 -13.457300
C -10.070500 -18.464100 -14.268300
H -9.736500 -17.317000 -12.598600
C -9.680600 -15.927600 -14.143800
H -9.575100 -15.203800 -13.462000
N -8.977700 -18.592600 -15.068700
H -8.851300 -19.341500 -15.513100
C -8.336500 -16.276100 -14.706400
C -8.058200 -17.558400 -15.194600
H -7.575900 -13.721600 -14.425000
C -7.225700 -15.528100 -15.043600
N -6.978300 -14.222300 -14.833000
N -6.888600 -17.704500 -15.797800
N -6.348600 -16.405900 -15.703900
H -6.218900 -13.869100 -15.103100
C -5.115400 -16.046000 -16.250400
O -4.815800 -14.863700 -16.296700
H -4.641200 -18.665000 -15.547200
C -4.185800 -17.087700 -16.769900
C -4.069600 -18.380000 -16.250400
H -3.362900 -15.773700 -18.107700
C -3.307600 -16.661500 -17.774300
C -3.110500 -19.248700 -16.769600
H -3.035500 -20.130200 -16.423300
C -2.355300 -17.536000 -18.283500
C -2.264100 -18.833900 -17.789800
H -1.765400 -17.247400 -18.970100
H -1.623400 -19.435700 -18.150100
H -8.166600 -7.470900 -12.596300
H -8.024600 -9.659200 -11.776300
C -7.525900 -8.072700 -12.956600
C -7.434800 -9.370600 -12.462800
H -6.754600 -6.776400 -14.323100
C -6.679500 -7.657900 -13.976800
C -6.482500 -10.245100 -12.972100
H -6.427100 -11.132900 -12.638700
C -5.720400 -8.526600 -14.496000
C -5.604300 -9.818900 -13.976500
H -5.148800 -8.241600 -15.199200
O -4.974300 -12.042900 -14.449700
C -4.674700 -10.860600 -14.496000
H -3.571100 -13.037500 -15.643200
N -3.441500 -10.500700 -15.042500
N -2.901500 -9.202100 -14.948600
N -2.811800 -12.684300 -15.913400
C -2.564300 -11.378500 -15.702800
H -2.214100 -13.185000 -16.321400
C -1.731900 -9.348200 -15.551800
C -1.453500 -10.630500 -16.040000
H -0.938800 -7.565100 -15.233300
N -0.812400 -8.314000 -15.677700
H -0.214900 -11.702800 -17.284400
C -0.109400 -10.979000 -16.602500
H -0.053500 -9.589600 -18.147700
C 0.280500 -8.442500 -16.478100
C 0.424700 -9.708800 -17.289100
H 0.426700 -12.199900 -15.009900
C 0.841300 -11.458600 -15.498700
H 1.022700 -10.720400 -14.880300
O 1.099300 -7.521700 -16.571200
H 1.383300 -9.842400 -17.497500
H 1.681900 -11.762100 -15.900800
