34
Fragment
H -11.471900 -15.144500 -14.845600
H -11.173400 -17.064200 -13.248900
O -10.889400 -19.384900 -14.175200
H -10.812700 -16.186200 -15.866100
C -10.631300 -15.448000 -15.247600
H -10.216700 -14.706700 -15.736500
C -10.214700 -17.197800 -13.457300
C -10.070500 -18.464100 -14.268300
H -9.736500 -17.317000 -12.598600
C -9.680600 -15.927600 -14.143800
H -9.575100 -15.203800 -13.462000
N -8.977700 -18.592600 -15.068700
H -8.851300 -19.341500 -15.513100
C -8.336500 -16.276100 -14.706400
C -8.058200 -17.558400 -15.194600
H -7.575900 -13.721600 -14.425000
C -7.225700 -15.528100 -15.043600
N -6.978300 -14.222300 -14.833000
N -6.888600 -17.704500 -15.797800
N -6.348600 -16.405900 -15.703900
H -6.218900 -13.869100 -15.103100
C -5.115400 -16.046000 -16.250400
O -4.815800 -14.863700 -16.296700
H -4.641200 -18.665000 -15.547200
C -4.185800 -17.087700 -16.769900
C -4.069600 -18.380000 -16.250400
H -3.362900 -15.773700 -18.107700
C -3.307600 -16.661500 -17.774300
C -3.110500 -19.248700 -16.769600
H -3.035500 -20.130200 -16.423300
C -2.355300 -17.536000 -18.283500
C -2.264100 -18.833900 -17.789800
H -1.765400 -17.247400 -18.970100
H -1.623400 -19.435700 -18.150100
34
Fragment
H -18.192300 -20.924200 -12.596300
H -18.050300 -23.112500 -11.776300
C -17.551600 -21.526000 -12.956600
C -17.460500 -22.823900 -12.462800
H -16.780300 -20.229700 -14.323100
C -16.705200 -21.111200 -13.976800
C -16.508200 -23.698400 -12.972100
H -16.452800 -24.586200 -12.638700
C -15.746100 -21.979900 -14.496000
C -15.630000 -23.272200 -13.976500
H -15.174500 -21.694900 -15.199200
O -15.000000 -25.496200 -14.449700
C -14.700400 -24.313900 -14.496000
H -13.596800 -26.490800 -15.643200
N -13.467200 -23.954000 -15.042500
N -12.927200 -22.655400 -14.948600
N -12.837500 -26.137600 -15.913400
C -12.590000 -24.831800 -15.702800
H -12.239800 -26.638300 -16.321400
C -11.757600 -22.801500 -15.551800
C -11.479200 -24.083800 -16.040000
H -10.964500 -21.018400 -15.233300
N -10.838100 -21.767300 -15.677700
H -10.240600 -25.156100 -17.284400
C -10.135100 -24.432300 -16.602500
H -10.079200 -23.042900 -18.147700
C -9.745200 -21.895800 -16.478100
C -9.601000 -23.162100 -17.289100
H -9.599000 -25.653200 -15.009900
C -9.184400 -24.911900 -15.498700
H -9.003000 -24.173700 -14.880300
O -8.926400 -20.975000 -16.571200
H -8.642400 -23.295700 -17.497500
H -8.343800 -25.215400 -15.900800
68
Fragment
H -11.471900 -15.144500 -14.845600
H -11.173400 -17.064200 -13.248900
O -10.889400 -19.384900 -14.175200
H -10.812700 -16.186200 -15.866100
C -10.631300 -15.448000 -15.247600
H -10.216700 -14.706700 -15.736500
C -10.214700 -17.197800 -13.457300
C -10.070500 -18.464100 -14.268300
H -9.736500 -17.317000 -12.598600
C -9.680600 -15.927600 -14.143800
H -9.575100 -15.203800 -13.462000
N -8.977700 -18.592600 -15.068700
H -8.851300 -19.341500 -15.513100
C -8.336500 -16.276100 -14.706400
C -8.058200 -17.558400 -15.194600
H -7.575900 -13.721600 -14.425000
C -7.225700 -15.528100 -15.043600
N -6.978300 -14.222300 -14.833000
N -6.888600 -17.704500 -15.797800
N -6.348600 -16.405900 -15.703900
H -6.218900 -13.869100 -15.103100
C -5.115400 -16.046000 -16.250400
O -4.815800 -14.863700 -16.296700
H -4.641200 -18.665000 -15.547200
C -4.185800 -17.087700 -16.769900
C -4.069600 -18.380000 -16.250400
H -3.362900 -15.773700 -18.107700
C -3.307600 -16.661500 -17.774300
C -3.110500 -19.248700 -16.769600
H -3.035500 -20.130200 -16.423300
C -2.355300 -17.536000 -18.283500
C -2.264100 -18.833900 -17.789800
H -1.765400 -17.247400 -18.970100
H -1.623400 -19.435700 -18.150100
H -18.192300 -20.924200 -12.596300
H -18.050300 -23.112500 -11.776300
C -17.551600 -21.526000 -12.956600
C -17.460500 -22.823900 -12.462800
H -16.780300 -20.229700 -14.323100
C -16.705200 -21.111200 -13.976800
C -16.508200 -23.698400 -12.972100
H -16.452800 -24.586200 -12.638700
C -15.746100 -21.979900 -14.496000
C -15.630000 -23.272200 -13.976500
H -15.174500 -21.694900 -15.199200
O -15.000000 -25.496200 -14.449700
C -14.700400 -24.313900 -14.496000
H -13.596800 -26.490800 -15.643200
N -13.467200 -23.954000 -15.042500
N -12.927200 -22.655400 -14.948600
N -12.837500 -26.137600 -15.913400
C -12.590000 -24.831800 -15.702800
H -12.239800 -26.638300 -16.321400
C -11.757600 -22.801500 -15.551800
C -11.479200 -24.083800 -16.040000
H -10.964500 -21.018400 -15.233300
N -10.838100 -21.767300 -15.677700
H -10.240600 -25.156100 -17.284400
C -10.135100 -24.432300 -16.602500
H -10.079200 -23.042900 -18.147700
C -9.745200 -21.895800 -16.478100
C -9.601000 -23.162100 -17.289100
H -9.599000 -25.653200 -15.009900
C -9.184400 -24.911900 -15.498700
H -9.003000 -24.173700 -14.880300
O -8.926400 -20.975000 -16.571200
H -8.642400 -23.295700 -17.497500
H -8.343800 -25.215400 -15.900800
