34
Fragment
H -11.471900 -15.144500 -14.845600
H -11.173400 -17.064200 -13.248900
O -10.889400 -19.384900 -14.175200
H -10.812700 -16.186200 -15.866100
C -10.631300 -15.448000 -15.247600
H -10.216700 -14.706700 -15.736500
C -10.214700 -17.197800 -13.457300
C -10.070500 -18.464100 -14.268300
H -9.736500 -17.317000 -12.598600
C -9.680600 -15.927600 -14.143800
H -9.575100 -15.203800 -13.462000
N -8.977700 -18.592600 -15.068700
H -8.851300 -19.341500 -15.513100
C -8.336500 -16.276100 -14.706400
C -8.058200 -17.558400 -15.194600
H -7.575900 -13.721600 -14.425000
C -7.225700 -15.528100 -15.043600
N -6.978300 -14.222300 -14.833000
N -6.888600 -17.704500 -15.797800
N -6.348600 -16.405900 -15.703900
H -6.218900 -13.869100 -15.103100
C -5.115400 -16.046000 -16.250400
O -4.815800 -14.863700 -16.296700
H -4.641200 -18.665000 -15.547200
C -4.185800 -17.087700 -16.769900
C -4.069600 -18.380000 -16.250400
H -3.362900 -15.773700 -18.107700
C -3.307600 -16.661500 -17.774300
C -3.110500 -19.248700 -16.769600
H -3.035500 -20.130200 -16.423300
C -2.355300 -17.536000 -18.283500
C -2.264100 -18.833900 -17.789800
H -1.765400 -17.247400 -18.970100
H -1.623400 -19.435700 -18.150100
34
Fragment
H -8.166600 -20.924200 -12.596300
H -8.024600 -23.112500 -11.776300
C -7.525900 -21.526000 -12.956600
C -7.434800 -22.823900 -12.462800
H -6.754600 -20.229700 -14.323100
C -6.679500 -21.111200 -13.976800
C -6.482500 -23.698400 -12.972100
H -6.427100 -24.586200 -12.638700
C -5.720400 -21.979900 -14.496000
C -5.604300 -23.272200 -13.976500
H -5.148800 -21.694900 -15.199200
O -4.974300 -25.496200 -14.449700
C -4.674700 -24.313900 -14.496000
H -3.571100 -26.490800 -15.643200
N -3.441500 -23.954000 -15.042500
N -2.901500 -22.655400 -14.948600
N -2.811800 -26.137600 -15.913400
C -2.564300 -24.831800 -15.702800
H -2.214100 -26.638300 -16.321400
C -1.731900 -22.801500 -15.551800
C -1.453500 -24.083800 -16.040000
H -0.938800 -21.018400 -15.233300
N -0.812400 -21.767300 -15.677700
H -0.214900 -25.156100 -17.284400
C -0.109400 -24.432300 -16.602500
H -0.053500 -23.042900 -18.147700
C 0.280500 -21.895800 -16.478100
C 0.424700 -23.162100 -17.289100
H 0.426700 -25.653200 -15.009900
C 0.841300 -24.911900 -15.498700
H 1.022700 -24.173700 -14.880300
O 1.099300 -20.975000 -16.571200
H 1.383300 -23.295700 -17.497500
H 1.681900 -25.215400 -15.900800
68
Fragment
H -11.471900 -15.144500 -14.845600
H -11.173400 -17.064200 -13.248900
O -10.889400 -19.384900 -14.175200
H -10.812700 -16.186200 -15.866100
C -10.631300 -15.448000 -15.247600
H -10.216700 -14.706700 -15.736500
C -10.214700 -17.197800 -13.457300
C -10.070500 -18.464100 -14.268300
H -9.736500 -17.317000 -12.598600
C -9.680600 -15.927600 -14.143800
H -9.575100 -15.203800 -13.462000
N -8.977700 -18.592600 -15.068700
H -8.851300 -19.341500 -15.513100
C -8.336500 -16.276100 -14.706400
C -8.058200 -17.558400 -15.194600
H -7.575900 -13.721600 -14.425000
C -7.225700 -15.528100 -15.043600
N -6.978300 -14.222300 -14.833000
N -6.888600 -17.704500 -15.797800
N -6.348600 -16.405900 -15.703900
H -6.218900 -13.869100 -15.103100
C -5.115400 -16.046000 -16.250400
O -4.815800 -14.863700 -16.296700
H -4.641200 -18.665000 -15.547200
C -4.185800 -17.087700 -16.769900
C -4.069600 -18.380000 -16.250400
H -3.362900 -15.773700 -18.107700
C -3.307600 -16.661500 -17.774300
C -3.110500 -19.248700 -16.769600
H -3.035500 -20.130200 -16.423300
C -2.355300 -17.536000 -18.283500
C -2.264100 -18.833900 -17.789800
H -1.765400 -17.247400 -18.970100
H -1.623400 -19.435700 -18.150100
H -8.166600 -20.924200 -12.596300
H -8.024600 -23.112500 -11.776300
C -7.525900 -21.526000 -12.956600
C -7.434800 -22.823900 -12.462800
H -6.754600 -20.229700 -14.323100
C -6.679500 -21.111200 -13.976800
C -6.482500 -23.698400 -12.972100
H -6.427100 -24.586200 -12.638700
C -5.720400 -21.979900 -14.496000
C -5.604300 -23.272200 -13.976500
H -5.148800 -21.694900 -15.199200
O -4.974300 -25.496200 -14.449700
C -4.674700 -24.313900 -14.496000
H -3.571100 -26.490800 -15.643200
N -3.441500 -23.954000 -15.042500
N -2.901500 -22.655400 -14.948600
N -2.811800 -26.137600 -15.913400
C -2.564300 -24.831800 -15.702800
H -2.214100 -26.638300 -16.321400
C -1.731900 -22.801500 -15.551800
C -1.453500 -24.083800 -16.040000
H -0.938800 -21.018400 -15.233300
N -0.812400 -21.767300 -15.677700
H -0.214900 -25.156100 -17.284400
C -0.109400 -24.432300 -16.602500
H -0.053500 -23.042900 -18.147700
C 0.280500 -21.895800 -16.478100
C 0.424700 -23.162100 -17.289100
H 0.426700 -25.653200 -15.009900
C 0.841300 -24.911900 -15.498700
H 1.022700 -24.173700 -14.880300
O 1.099300 -20.975000 -16.571200
H 1.383300 -23.295700 -17.497500
H 1.681900 -25.215400 -15.900800
