34
Fragment
H -11.471900 -15.144500 -14.845600
H -11.173400 -17.064200 -13.248900
O -10.889400 -19.384900 -14.175200
H -10.812700 -16.186200 -15.866100
C -10.631300 -15.448000 -15.247600
H -10.216700 -14.706700 -15.736500
C -10.214700 -17.197800 -13.457300
C -10.070500 -18.464100 -14.268300
H -9.736500 -17.317000 -12.598600
C -9.680600 -15.927600 -14.143800
H -9.575100 -15.203800 -13.462000
N -8.977700 -18.592600 -15.068700
H -8.851300 -19.341500 -15.513100
C -8.336500 -16.276100 -14.706400
C -8.058200 -17.558400 -15.194600
H -7.575900 -13.721600 -14.425000
C -7.225700 -15.528100 -15.043600
N -6.978300 -14.222300 -14.833000
N -6.888600 -17.704500 -15.797800
N -6.348600 -16.405900 -15.703900
H -6.218900 -13.869100 -15.103100
C -5.115400 -16.046000 -16.250400
O -4.815800 -14.863700 -16.296700
H -4.641200 -18.665000 -15.547200
C -4.185800 -17.087700 -16.769900
C -4.069600 -18.380000 -16.250400
H -3.362900 -15.773700 -18.107700
C -3.307600 -16.661500 -17.774300
C -3.110500 -19.248700 -16.769600
H -3.035500 -20.130200 -16.423300
C -2.355300 -17.536000 -18.283500
C -2.264100 -18.833900 -17.789800
H -1.765400 -17.247400 -18.970100
H -1.623400 -19.435700 -18.150100
34
Fragment
H 0.264000 -18.488700 -19.970000
H 0.562600 -16.569100 -18.373300
O 0.846500 -14.248400 -19.299600
H 0.923200 -17.447000 -20.990400
C 1.104600 -18.185200 -20.372000
H 1.519200 -18.926500 -20.860900
C 1.521200 -16.435500 -18.581700
C 1.665400 -15.169100 -19.392700
H 1.999400 -16.316300 -17.723000
C 2.055300 -17.705600 -19.268200
H 2.160800 -18.429400 -18.586400
N 2.758300 -15.040700 -20.193100
H 2.884600 -14.291700 -20.637500
C 3.399400 -17.357200 -19.830800
C 3.677700 -16.074800 -20.318900
H 4.160000 -19.911700 -19.549400
C 4.510200 -18.105200 -20.168000
N 4.757600 -19.411000 -19.957400
N 4.847300 -15.928700 -20.922200
N 5.387400 -17.227400 -20.828300
H 5.517000 -19.764100 -20.227500
C 6.620500 -17.587200 -21.374800
O 6.920100 -18.769500 -21.421100
H 7.094700 -14.968300 -20.671600
C 7.550200 -16.545500 -21.894300
C 7.666300 -15.253200 -21.374800
H 8.373000 -17.859500 -23.232100
C 8.428400 -16.971700 -22.898700
C 8.625400 -14.384500 -21.894000
H 8.700400 -13.503100 -21.547700
C 9.380600 -16.097300 -23.407900
C 9.471800 -14.799300 -22.914100
H 9.970500 -16.385900 -24.094500
H 10.112500 -14.197500 -23.274500
68
Fragment
H -11.471900 -15.144500 -14.845600
H -11.173400 -17.064200 -13.248900
O -10.889400 -19.384900 -14.175200
H -10.812700 -16.186200 -15.866100
C -10.631300 -15.448000 -15.247600
H -10.216700 -14.706700 -15.736500
C -10.214700 -17.197800 -13.457300
C -10.070500 -18.464100 -14.268300
H -9.736500 -17.317000 -12.598600
C -9.680600 -15.927600 -14.143800
H -9.575100 -15.203800 -13.462000
N -8.977700 -18.592600 -15.068700
H -8.851300 -19.341500 -15.513100
C -8.336500 -16.276100 -14.706400
C -8.058200 -17.558400 -15.194600
H -7.575900 -13.721600 -14.425000
C -7.225700 -15.528100 -15.043600
N -6.978300 -14.222300 -14.833000
N -6.888600 -17.704500 -15.797800
N -6.348600 -16.405900 -15.703900
H -6.218900 -13.869100 -15.103100
C -5.115400 -16.046000 -16.250400
O -4.815800 -14.863700 -16.296700
H -4.641200 -18.665000 -15.547200
C -4.185800 -17.087700 -16.769900
C -4.069600 -18.380000 -16.250400
H -3.362900 -15.773700 -18.107700
C -3.307600 -16.661500 -17.774300
C -3.110500 -19.248700 -16.769600
H -3.035500 -20.130200 -16.423300
C -2.355300 -17.536000 -18.283500
C -2.264100 -18.833900 -17.789800
H -1.765400 -17.247400 -18.970100
H -1.623400 -19.435700 -18.150100
H 0.264000 -18.488700 -19.970000
H 0.562600 -16.569100 -18.373300
O 0.846500 -14.248400 -19.299600
H 0.923200 -17.447000 -20.990400
C 1.104600 -18.185200 -20.372000
H 1.519200 -18.926500 -20.860900
C 1.521200 -16.435500 -18.581700
C 1.665400 -15.169100 -19.392700
H 1.999400 -16.316300 -17.723000
C 2.055300 -17.705600 -19.268200
H 2.160800 -18.429400 -18.586400
N 2.758300 -15.040700 -20.193100
H 2.884600 -14.291700 -20.637500
C 3.399400 -17.357200 -19.830800
C 3.677700 -16.074800 -20.318900
H 4.160000 -19.911700 -19.549400
C 4.510200 -18.105200 -20.168000
N 4.757600 -19.411000 -19.957400
N 4.847300 -15.928700 -20.922200
N 5.387400 -17.227400 -20.828300
H 5.517000 -19.764100 -20.227500
C 6.620500 -17.587200 -21.374800
O 6.920100 -18.769500 -21.421100
H 7.094700 -14.968300 -20.671600
C 7.550200 -16.545500 -21.894300
C 7.666300 -15.253200 -21.374800
H 8.373000 -17.859500 -23.232100
C 8.428400 -16.971700 -22.898700
C 8.625400 -14.384500 -21.894000
H 8.700400 -13.503100 -21.547700
C 9.380600 -16.097300 -23.407900
C 9.471800 -14.799300 -22.914100
H 9.970500 -16.385900 -24.094500
H 10.112500 -14.197500 -23.274500
