15
Fragment
N -5.089300 -32.846100 -16.991600
H -5.040500 -33.831300 -18.681800
H -4.940500 -32.230700 -15.140800
C -4.851600 -33.902800 -17.773700
C -4.797500 -32.965000 -15.694100
C -4.340600 -35.094300 -17.305100
C -4.295400 -34.119700 -15.129900
H -4.186400 -35.804500 -17.887000
H -4.117200 -34.164800 -14.217600
C -4.060500 -35.218800 -15.955400
O -3.753600 -36.686700 -14.116000
C -3.583900 -36.500900 -15.325300
N -3.012200 -37.392900 -16.131800
H -2.896700 -37.248700 -17.035900
H -2.694500 -38.118000 -15.749300
15
Fragment
H -6.214600 -30.873900 -23.594500
H -6.012400 -31.743200 -22.308000
N -5.896900 -31.599000 -23.212100
C -5.325200 -32.491000 -24.018500
O -5.155500 -32.305200 -25.227800
C -4.848600 -33.773100 -23.388500
H -4.791900 -34.827100 -25.126300
H -4.722700 -33.187400 -21.456800
C -4.613700 -34.872200 -24.213900
C -4.568500 -33.897600 -22.038700
C -4.111600 -36.026900 -23.649700
C -4.057500 -35.089100 -21.570100
H -3.968600 -36.761200 -24.203000
H -3.868600 -35.160600 -20.662100
N -3.819800 -36.145800 -22.352300
30
Fragment
N -5.089300 -32.846100 -16.991600
H -5.040500 -33.831300 -18.681800
H -4.940500 -32.230700 -15.140800
C -4.851600 -33.902800 -17.773700
C -4.797500 -32.965000 -15.694100
C -4.340600 -35.094300 -17.305100
C -4.295400 -34.119700 -15.129900
H -4.186400 -35.804500 -17.887000
H -4.117200 -34.164800 -14.217600
C -4.060500 -35.218800 -15.955400
O -3.753600 -36.686700 -14.116000
C -3.583900 -36.500900 -15.325300
N -3.012200 -37.392900 -16.131800
H -2.896700 -37.248700 -17.035900
H -2.694500 -38.118000 -15.749300
H -6.214600 -30.873900 -23.594500
H -6.012400 -31.743200 -22.308000
N -5.896900 -31.599000 -23.212100
C -5.325200 -32.491000 -24.018500
O -5.155500 -32.305200 -25.227800
C -4.848600 -33.773100 -23.388500
H -4.791900 -34.827100 -25.126300
H -4.722700 -33.187400 -21.456800
C -4.613700 -34.872200 -24.213900
C -4.568500 -33.897600 -22.038700
C -4.111600 -36.026900 -23.649700
C -4.057500 -35.089100 -21.570100
H -3.968600 -36.761200 -24.203000
H -3.868600 -35.160600 -20.662100
N -3.819800 -36.145800 -22.352300
