15
Fragment
N -5.089300 -32.846100 -16.991600
H -5.040500 -33.831300 -18.681800
H -4.940500 -32.230700 -15.140800
C -4.851600 -33.902800 -17.773700
C -4.797500 -32.965000 -15.694100
C -4.340600 -35.094300 -17.305100
C -4.295400 -34.119700 -15.129900
H -4.186400 -35.804500 -17.887000
H -4.117200 -34.164800 -14.217600
C -4.060500 -35.218800 -15.955400
O -3.753600 -36.686700 -14.116000
C -3.583900 -36.500900 -15.325300
N -3.012200 -37.392900 -16.131800
H -2.896700 -37.248700 -17.035900
H -2.694500 -38.118000 -15.749300
14
Fragment
H -4.852700 -26.808000 -19.489600
N -4.722900 -27.869300 -21.112300
N -4.519900 -27.553100 -19.800300
H -4.243500 -29.567600 -22.061400
C -4.237200 -29.094300 -21.261800
C -3.919300 -28.552800 -19.139700
C -3.711400 -29.584200 -20.051600
N -3.581000 -28.547000 -17.813700
C -3.058400 -30.776800 -19.609600
C -3.016600 -29.664400 -17.447300
H -2.771600 -29.742400 -16.553300
O -2.761200 -31.775800 -20.277900
N -2.754700 -30.724400 -18.253600
H -2.304400 -31.481000 -17.855500
29
Fragment
N -5.089300 -32.846100 -16.991600
H -5.040500 -33.831300 -18.681800
H -4.940500 -32.230700 -15.140800
C -4.851600 -33.902800 -17.773700
C -4.797500 -32.965000 -15.694100
C -4.340600 -35.094300 -17.305100
C -4.295400 -34.119700 -15.129900
H -4.186400 -35.804500 -17.887000
H -4.117200 -34.164800 -14.217600
C -4.060500 -35.218800 -15.955400
O -3.753600 -36.686700 -14.116000
C -3.583900 -36.500900 -15.325300
N -3.012200 -37.392900 -16.131800
H -2.896700 -37.248700 -17.035900
H -2.694500 -38.118000 -15.749300
H -4.852700 -26.808000 -19.489600
N -4.722900 -27.869300 -21.112300
N -4.519900 -27.553100 -19.800300
H -4.243500 -29.567600 -22.061400
C -4.237200 -29.094300 -21.261800
C -3.919300 -28.552800 -19.139700
C -3.711400 -29.584200 -20.051600
N -3.581000 -28.547000 -17.813700
C -3.058400 -30.776800 -19.609600
C -3.016600 -29.664400 -17.447300
H -2.771600 -29.742400 -16.553300
O -2.761200 -31.775800 -20.277900
N -2.754700 -30.724400 -18.253600
H -2.304400 -31.481000 -17.855500
