15
Fragment
N -5.089300 -32.846100 -16.991600
H -5.040500 -33.831300 -18.681800
H -4.940500 -32.230700 -15.140800
C -4.851600 -33.902800 -17.773700
C -4.797500 -32.965000 -15.694100
C -4.340600 -35.094300 -17.305100
C -4.295400 -34.119700 -15.129900
H -4.186400 -35.804500 -17.887000
H -4.117200 -34.164800 -14.217600
C -4.060500 -35.218800 -15.955400
O -3.753600 -36.686700 -14.116000
C -3.583900 -36.500900 -15.325300
N -3.012200 -37.392900 -16.131800
H -2.896700 -37.248700 -17.035900
H -2.694500 -38.118000 -15.749300
15
Fragment
N -8.785100 -32.846100 -16.991600
H -8.736300 -33.831300 -18.681800
H -8.636300 -32.230700 -15.140800
C -8.547400 -33.902800 -17.773700
C -8.493300 -32.965000 -15.694100
C -8.036400 -35.094300 -17.305100
C -7.991200 -34.119700 -15.129900
H -7.882200 -35.804500 -17.887000
H -7.813000 -34.164800 -14.217600
C -7.756300 -35.218800 -15.955400
O -7.449400 -36.686700 -14.116000
C -7.279700 -36.500900 -15.325300
N -6.708000 -37.392900 -16.131800
H -6.592500 -37.248700 -17.035900
H -6.390300 -38.118000 -15.749300
30
Fragment
N -5.089300 -32.846100 -16.991600
H -5.040500 -33.831300 -18.681800
H -4.940500 -32.230700 -15.140800
C -4.851600 -33.902800 -17.773700
C -4.797500 -32.965000 -15.694100
C -4.340600 -35.094300 -17.305100
C -4.295400 -34.119700 -15.129900
H -4.186400 -35.804500 -17.887000
H -4.117200 -34.164800 -14.217600
C -4.060500 -35.218800 -15.955400
O -3.753600 -36.686700 -14.116000
C -3.583900 -36.500900 -15.325300
N -3.012200 -37.392900 -16.131800
H -2.896700 -37.248700 -17.035900
H -2.694500 -38.118000 -15.749300
N -8.785100 -32.846100 -16.991600
H -8.736300 -33.831300 -18.681800
H -8.636300 -32.230700 -15.140800
C -8.547400 -33.902800 -17.773700
C -8.493300 -32.965000 -15.694100
C -8.036400 -35.094300 -17.305100
C -7.991200 -34.119700 -15.129900
H -7.882200 -35.804500 -17.887000
H -7.813000 -34.164800 -14.217600
C -7.756300 -35.218800 -15.955400
O -7.449400 -36.686700 -14.116000
C -7.279700 -36.500900 -15.325300
N -6.708000 -37.392900 -16.131800
H -6.592500 -37.248700 -17.035900
H -6.390300 -38.118000 -15.749300
