15
Fragment
N -5.089300 -32.846100 -16.991600
H -5.040500 -33.831300 -18.681800
H -4.940500 -32.230700 -15.140800
C -4.851600 -33.902800 -17.773700
C -4.797500 -32.965000 -15.694100
C -4.340600 -35.094300 -17.305100
C -4.295400 -34.119700 -15.129900
H -4.186400 -35.804500 -17.887000
H -4.117200 -34.164800 -14.217600
C -4.060500 -35.218800 -15.955400
O -3.753600 -36.686700 -14.116000
C -3.583900 -36.500900 -15.325300
N -3.012200 -37.392900 -16.131800
H -2.896700 -37.248700 -17.035900
H -2.694500 -38.118000 -15.749300
14
Fragment
H -6.967800 -42.979700 -14.931000
N -6.517500 -42.223000 -14.533000
O -6.510900 -43.274500 -12.508600
H -6.500600 -41.241100 -16.233300
C -6.255500 -41.163100 -15.339200
C -6.213700 -42.275500 -13.176900
N -5.691100 -40.045700 -14.972800
C -5.560800 -41.082800 -12.734900
C -5.352800 -40.051400 -13.646800
C -5.035000 -40.593000 -11.524700
H -5.028600 -41.066300 -10.725100
N -4.752300 -39.051700 -12.986200
N -4.549200 -39.367900 -11.674200
H -4.419400 -38.306600 -13.296900
29
Fragment
N -5.089300 -32.846100 -16.991600
H -5.040500 -33.831300 -18.681800
H -4.940500 -32.230700 -15.140800
C -4.851600 -33.902800 -17.773700
C -4.797500 -32.965000 -15.694100
C -4.340600 -35.094300 -17.305100
C -4.295400 -34.119700 -15.129900
H -4.186400 -35.804500 -17.887000
H -4.117200 -34.164800 -14.217600
C -4.060500 -35.218800 -15.955400
O -3.753600 -36.686700 -14.116000
C -3.583900 -36.500900 -15.325300
N -3.012200 -37.392900 -16.131800
H -2.896700 -37.248700 -17.035900
H -2.694500 -38.118000 -15.749300
H -6.967800 -42.979700 -14.931000
N -6.517500 -42.223000 -14.533000
O -6.510900 -43.274500 -12.508600
H -6.500600 -41.241100 -16.233300
C -6.255500 -41.163100 -15.339200
C -6.213700 -42.275500 -13.176900
N -5.691100 -40.045700 -14.972800
C -5.560800 -41.082800 -12.734900
C -5.352800 -40.051400 -13.646800
C -5.035000 -40.593000 -11.524700
H -5.028600 -41.066300 -10.725100
N -4.752300 -39.051700 -12.986200
N -4.549200 -39.367900 -11.674200
H -4.419400 -38.306600 -13.296900
