15
Fragment
N -5.089300 -32.846100 -16.991600
H -5.040500 -33.831300 -18.681800
H -4.940500 -32.230700 -15.140800
C -4.851600 -33.902800 -17.773700
C -4.797500 -32.965000 -15.694100
C -4.340600 -35.094300 -17.305100
C -4.295400 -34.119700 -15.129900
H -4.186400 -35.804500 -17.887000
H -4.117200 -34.164800 -14.217600
C -4.060500 -35.218800 -15.955400
O -3.753600 -36.686700 -14.116000
C -3.583900 -36.500900 -15.325300
N -3.012200 -37.392900 -16.131800
H -2.896700 -37.248700 -17.035900
H -2.694500 -38.118000 -15.749300
14
Fragment
H -2.908900 -37.510900 -21.488300
N -2.458600 -38.267500 -21.090300
O -2.452100 -37.216100 -19.065900
H -2.441700 -39.249500 -22.790600
C -2.196700 -39.327500 -21.896600
C -2.154900 -38.215100 -19.734200
N -1.632300 -40.444900 -21.530100
C -1.501900 -39.407700 -19.292300
C -1.294000 -40.439100 -20.204100
C -0.976100 -39.897600 -18.082000
H -0.969800 -39.424300 -17.282400
N -0.693400 -41.438800 -19.543500
N -0.490300 -41.122600 -18.231500
H -0.360600 -42.183900 -19.854200
29
Fragment
N -5.089300 -32.846100 -16.991600
H -5.040500 -33.831300 -18.681800
H -4.940500 -32.230700 -15.140800
C -4.851600 -33.902800 -17.773700
C -4.797500 -32.965000 -15.694100
C -4.340600 -35.094300 -17.305100
C -4.295400 -34.119700 -15.129900
H -4.186400 -35.804500 -17.887000
H -4.117200 -34.164800 -14.217600
C -4.060500 -35.218800 -15.955400
O -3.753600 -36.686700 -14.116000
C -3.583900 -36.500900 -15.325300
N -3.012200 -37.392900 -16.131800
H -2.896700 -37.248700 -17.035900
H -2.694500 -38.118000 -15.749300
H -2.908900 -37.510900 -21.488300
N -2.458600 -38.267500 -21.090300
O -2.452100 -37.216100 -19.065900
H -2.441700 -39.249500 -22.790600
C -2.196700 -39.327500 -21.896600
C -2.154900 -38.215100 -19.734200
N -1.632300 -40.444900 -21.530100
C -1.501900 -39.407700 -19.292300
C -1.294000 -40.439100 -20.204100
C -0.976100 -39.897600 -18.082000
H -0.969800 -39.424300 -17.282400
N -0.693400 -41.438800 -19.543500
N -0.490300 -41.122600 -18.231500
H -0.360600 -42.183900 -19.854200
