14
Fragment
H -22.732000 -10.086500 -21.080500
C -21.803600 -10.139200 -21.070500
H -21.800300 -10.445200 -19.121100
N -21.245400 -10.395900 -19.872100
N -21.212900 -9.953400 -22.223200
C -19.874600 -10.506700 -19.721700
C -19.856600 -10.041900 -22.101700
O -19.372700 -10.762100 -18.611900
C -19.146600 -10.303400 -20.936900
H -19.110000 -9.708800 -23.926400
N -18.960900 -9.883100 -23.085200
C -17.794200 -10.280400 -21.332100
N -17.681300 -10.028400 -22.628600
H -17.075900 -10.422900 -20.759200
14
Fragment
H -22.770400 -10.182400 -13.908300
C -21.842100 -10.129700 -13.898300
H -21.838700 -9.823700 -11.948900
N -21.283800 -9.873000 -12.700000
N -21.251300 -10.315500 -15.051000
C -19.913000 -9.762200 -12.549500
C -19.895100 -10.227000 -14.929500
O -19.411100 -9.506800 -11.439700
C -19.185000 -9.965500 -13.764700
H -19.148400 -10.560100 -16.754300
N -18.999300 -10.385800 -15.913000
C -17.832600 -9.988500 -14.159900
N -17.719800 -10.240500 -15.456400
H -17.114300 -9.846000 -13.587000
28
Fragment
H -22.732000 -10.086500 -21.080500
C -21.803600 -10.139200 -21.070500
H -21.800300 -10.445200 -19.121100
N -21.245400 -10.395900 -19.872100
N -21.212900 -9.953400 -22.223200
C -19.874600 -10.506700 -19.721700
C -19.856600 -10.041900 -22.101700
O -19.372700 -10.762100 -18.611900
C -19.146600 -10.303400 -20.936900
H -19.110000 -9.708800 -23.926400
N -18.960900 -9.883100 -23.085200
C -17.794200 -10.280400 -21.332100
N -17.681300 -10.028400 -22.628600
H -17.075900 -10.422900 -20.759200
H -22.770400 -10.182400 -13.908300
C -21.842100 -10.129700 -13.898300
H -21.838700 -9.823700 -11.948900
N -21.283800 -9.873000 -12.700000
N -21.251300 -10.315500 -15.051000
C -19.913000 -9.762200 -12.549500
C -19.895100 -10.227000 -14.929500
O -19.411100 -9.506800 -11.439700
C -19.185000 -9.965500 -13.764700
H -19.148400 -10.560100 -16.754300
N -18.999300 -10.385800 -15.913000
C -17.832600 -9.988500 -14.159900
N -17.719800 -10.240500 -15.456400
H -17.114300 -9.846000 -13.587000
