14
Fragment
H -22.732000 -10.086500 -21.080500
C -21.803600 -10.139200 -21.070500
H -21.800300 -10.445200 -19.121100
N -21.245400 -10.395900 -19.872100
N -21.212900 -9.953400 -22.223200
C -19.874600 -10.506700 -19.721700
C -19.856600 -10.041900 -22.101700
O -19.372700 -10.762100 -18.611900
C -19.146600 -10.303400 -20.936900
H -19.110000 -9.708800 -23.926400
N -18.960900 -9.883100 -23.085200
C -17.794200 -10.280400 -21.332100
N -17.681300 -10.028400 -22.628600
H -17.075900 -10.422900 -20.759200
16
Fragment
H -18.040700 -7.087400 -18.948900
N -17.465900 -7.101500 -18.302300
H -17.199000 -9.096700 -18.320700
H -17.197500 -5.099700 -18.312100
C -16.643800 -8.309600 -18.441200
C -16.641500 -5.884100 -18.436400
H -16.262800 -8.343400 -19.331900
H -16.261200 -5.844900 -19.327600
H -15.923300 -5.844900 -16.533300
H -15.921700 -8.343400 -16.529000
C -15.542900 -5.884100 -17.424600
C -15.540700 -8.309600 -17.419800
H -14.987000 -5.099700 -17.548900
H -14.985400 -9.096700 -17.540300
N -14.718500 -7.101500 -17.558700
H -14.143800 -7.087400 -16.912000
30
Fragment
H -22.732000 -10.086500 -21.080500
C -21.803600 -10.139200 -21.070500
H -21.800300 -10.445200 -19.121100
N -21.245400 -10.395900 -19.872100
N -21.212900 -9.953400 -22.223200
C -19.874600 -10.506700 -19.721700
C -19.856600 -10.041900 -22.101700
O -19.372700 -10.762100 -18.611900
C -19.146600 -10.303400 -20.936900
H -19.110000 -9.708800 -23.926400
N -18.960900 -9.883100 -23.085200
C -17.794200 -10.280400 -21.332100
N -17.681300 -10.028400 -22.628600
H -17.075900 -10.422900 -20.759200
H -18.040700 -7.087400 -18.948900
N -17.465900 -7.101500 -18.302300
H -17.199000 -9.096700 -18.320700
H -17.197500 -5.099700 -18.312100
C -16.643800 -8.309600 -18.441200
C -16.641500 -5.884100 -18.436400
H -16.262800 -8.343400 -19.331900
H -16.261200 -5.844900 -19.327600
H -15.923300 -5.844900 -16.533300
H -15.921700 -8.343400 -16.529000
C -15.542900 -5.884100 -17.424600
C -15.540700 -8.309600 -17.419800
H -14.987000 -5.099700 -17.548900
H -14.985400 -9.096700 -17.540300
N -14.718500 -7.101500 -17.558700
H -14.143800 -7.087400 -16.912000
