14
Fragment
H -22.732000 -10.086500 -21.080500
C -21.803600 -10.139200 -21.070500
H -21.800300 -10.445200 -19.121100
N -21.245400 -10.395900 -19.872100
N -21.212900 -9.953400 -22.223200
C -19.874600 -10.506700 -19.721700
C -19.856600 -10.041900 -22.101700
O -19.372700 -10.762100 -18.611900
C -19.146600 -10.303400 -20.936900
H -19.110000 -9.708800 -23.926400
N -18.960900 -9.883100 -23.085200
C -17.794200 -10.280400 -21.332100
N -17.681300 -10.028400 -22.628600
H -17.075900 -10.422900 -20.759200
16
Fragment
H -18.002300 -13.181500 -26.121100
N -17.427500 -13.167400 -25.474500
H -17.160600 -11.172200 -25.492900
H -17.159000 -15.169200 -25.484300
C -16.605300 -11.959300 -25.613400
C -16.603100 -14.384800 -25.608600
H -16.224400 -11.925500 -26.504100
H -16.222800 -14.424000 -26.499800
H -15.884800 -14.424000 -23.705500
H -15.883200 -11.925500 -23.701200
C -15.504500 -14.384800 -24.596800
C -15.502200 -11.959300 -24.592000
H -14.948600 -15.169200 -24.721100
H -14.947000 -11.172200 -24.712500
N -14.680100 -13.167400 -24.730900
H -14.105300 -13.181500 -24.084200
30
Fragment
H -22.732000 -10.086500 -21.080500
C -21.803600 -10.139200 -21.070500
H -21.800300 -10.445200 -19.121100
N -21.245400 -10.395900 -19.872100
N -21.212900 -9.953400 -22.223200
C -19.874600 -10.506700 -19.721700
C -19.856600 -10.041900 -22.101700
O -19.372700 -10.762100 -18.611900
C -19.146600 -10.303400 -20.936900
H -19.110000 -9.708800 -23.926400
N -18.960900 -9.883100 -23.085200
C -17.794200 -10.280400 -21.332100
N -17.681300 -10.028400 -22.628600
H -17.075900 -10.422900 -20.759200
H -18.002300 -13.181500 -26.121100
N -17.427500 -13.167400 -25.474500
H -17.160600 -11.172200 -25.492900
H -17.159000 -15.169200 -25.484300
C -16.605300 -11.959300 -25.613400
C -16.603100 -14.384800 -25.608600
H -16.224400 -11.925500 -26.504100
H -16.222800 -14.424000 -26.499800
H -15.884800 -14.424000 -23.705500
H -15.883200 -11.925500 -23.701200
C -15.504500 -14.384800 -24.596800
C -15.502200 -11.959300 -24.592000
H -14.948600 -15.169200 -24.721100
H -14.947000 -11.172200 -24.712500
N -14.680100 -13.167400 -24.730900
H -14.105300 -13.181500 -24.084200
