17
Fragment
H -31.383800 -14.293200 -20.970500
H -31.039300 -11.921100 -20.900700
C -30.827300 -13.875500 -20.205100
C -30.622800 -12.509400 -20.167100
H -30.450200 -15.682100 -19.153500
C -30.278500 -14.659300 -19.209700
C -29.881500 -11.983600 -19.131800
H -29.721800 -11.144300 -19.069300
C -29.537200 -14.046200 -18.206100
N -29.333100 -12.718400 -18.153500
N -28.965600 -16.145600 -17.039400
C -28.899300 -14.824000 -17.127300
N -28.238600 -16.414000 -15.926200
N -28.168500 -14.243200 -16.133600
H -28.127100 -17.234700 -15.683500
C -27.776700 -15.288300 -15.409000
H -27.163100 -15.270400 -14.604700
17
Fragment
H -29.716100 -14.492600 -12.568500
C -29.102500 -14.474700 -11.764200
H -28.752100 -12.528300 -11.489700
N -28.710700 -15.519800 -11.039600
N -28.640600 -13.349000 -11.247000
C -27.979900 -14.939000 -10.045900
N -27.913600 -13.617400 -10.133800
N -27.546100 -17.044600 -9.019700
C -27.342000 -15.716800 -8.967200
H -27.157400 -18.618700 -8.104000
C -26.997700 -17.779400 -8.041500
C -26.600700 -15.103700 -7.963600
H -26.429000 -14.080900 -8.019700
C -26.256400 -17.253600 -7.006200
C -26.051900 -15.887500 -6.968100
H -25.839900 -17.841900 -6.272500
H -25.495300 -15.469800 -6.202700
34
Fragment
H -31.383800 -14.293200 -20.970500
H -31.039300 -11.921100 -20.900700
C -30.827300 -13.875500 -20.205100
C -30.622800 -12.509400 -20.167100
H -30.450200 -15.682100 -19.153500
C -30.278500 -14.659300 -19.209700
C -29.881500 -11.983600 -19.131800
H -29.721800 -11.144300 -19.069300
C -29.537200 -14.046200 -18.206100
N -29.333100 -12.718400 -18.153500
N -28.965600 -16.145600 -17.039400
C -28.899300 -14.824000 -17.127300
N -28.238600 -16.414000 -15.926200
N -28.168500 -14.243200 -16.133600
H -28.127100 -17.234700 -15.683500
C -27.776700 -15.288300 -15.409000
H -27.163100 -15.270400 -14.604700
H -29.716100 -14.492600 -12.568500
C -29.102500 -14.474700 -11.764200
H -28.752100 -12.528300 -11.489700
N -28.710700 -15.519800 -11.039600
N -28.640600 -13.349000 -11.247000
C -27.979900 -14.939000 -10.045900
N -27.913600 -13.617400 -10.133800
N -27.546100 -17.044600 -9.019700
C -27.342000 -15.716800 -8.967200
H -27.157400 -18.618700 -8.104000
C -26.997700 -17.779400 -8.041500
C -26.600700 -15.103700 -7.963600
H -26.429000 -14.080900 -8.019700
C -26.256400 -17.253600 -7.006200
C -26.051900 -15.887500 -6.968100
H -25.839900 -17.841900 -6.272500
H -25.495300 -15.469800 -6.202700
