17
Fragment
H -31.383800 -14.293200 -20.970500
H -31.039300 -11.921100 -20.900700
C -30.827300 -13.875500 -20.205100
C -30.622800 -12.509400 -20.167100
H -30.450200 -15.682100 -19.153500
C -30.278500 -14.659300 -19.209700
C -29.881500 -11.983600 -19.131800
H -29.721800 -11.144300 -19.069300
C -29.537200 -14.046200 -18.206100
N -29.333100 -12.718400 -18.153500
N -28.965600 -16.145600 -17.039400
C -28.899300 -14.824000 -17.127300
N -28.238600 -16.414000 -15.926200
N -28.168500 -14.243200 -16.133600
H -28.127100 -17.234700 -15.683500
C -27.776700 -15.288300 -15.409000
H -27.163100 -15.270400 -14.604700
17
Fragment
H -30.491200 -10.509300 -25.499300
H -30.146700 -12.881400 -25.429600
C -29.934700 -10.927000 -24.734000
C -29.730100 -12.293100 -24.695900
H -29.557500 -9.120400 -23.682400
C -29.385900 -10.143200 -23.738500
C -28.988900 -12.818900 -23.660600
H -28.829200 -13.658200 -23.598100
C -28.644600 -10.756300 -22.734900
N -28.440400 -12.084100 -22.682400
N -28.072900 -8.656900 -21.568300
C -28.006700 -9.978500 -21.656100
N -27.346000 -8.388500 -20.455100
N -27.275800 -10.559300 -20.662500
H -27.234500 -7.567800 -20.212300
C -26.884100 -9.514200 -19.937900
H -26.270500 -9.532100 -19.133600
34
Fragment
H -31.383800 -14.293200 -20.970500
H -31.039300 -11.921100 -20.900700
C -30.827300 -13.875500 -20.205100
C -30.622800 -12.509400 -20.167100
H -30.450200 -15.682100 -19.153500
C -30.278500 -14.659300 -19.209700
C -29.881500 -11.983600 -19.131800
H -29.721800 -11.144300 -19.069300
C -29.537200 -14.046200 -18.206100
N -29.333100 -12.718400 -18.153500
N -28.965600 -16.145600 -17.039400
C -28.899300 -14.824000 -17.127300
N -28.238600 -16.414000 -15.926200
N -28.168500 -14.243200 -16.133600
H -28.127100 -17.234700 -15.683500
C -27.776700 -15.288300 -15.409000
H -27.163100 -15.270400 -14.604700
H -30.491200 -10.509300 -25.499300
H -30.146700 -12.881400 -25.429600
C -29.934700 -10.927000 -24.734000
C -29.730100 -12.293100 -24.695900
H -29.557500 -9.120400 -23.682400
C -29.385900 -10.143200 -23.738500
C -28.988900 -12.818900 -23.660600
H -28.829200 -13.658200 -23.598100
C -28.644600 -10.756300 -22.734900
N -28.440400 -12.084100 -22.682400
N -28.072900 -8.656900 -21.568300
C -28.006700 -9.978500 -21.656100
N -27.346000 -8.388500 -20.455100
N -27.275800 -10.559300 -20.662500
H -27.234500 -7.567800 -20.212300
C -26.884100 -9.514200 -19.937900
H -26.270500 -9.532100 -19.133600
