17
Fragment
H -31.383800 -14.293200 -20.970500
H -31.039300 -11.921100 -20.900700
C -30.827300 -13.875500 -20.205100
C -30.622800 -12.509400 -20.167100
H -30.450200 -15.682100 -19.153500
C -30.278500 -14.659300 -19.209700
C -29.881500 -11.983600 -19.131800
H -29.721800 -11.144300 -19.069300
C -29.537200 -14.046200 -18.206100
N -29.333100 -12.718400 -18.153500
N -28.965600 -16.145600 -17.039400
C -28.899300 -14.824000 -17.127300
N -28.238600 -16.414000 -15.926200
N -28.168500 -14.243200 -16.133600
H -28.127100 -17.234700 -15.683500
C -27.776700 -15.288300 -15.409000
H -27.163100 -15.270400 -14.604700
14
Fragment
H -26.175200 -12.708800 -13.687100
O -25.850100 -13.320900 -13.221100
C -24.505800 -13.438000 -13.485200
H -24.380400 -12.098700 -15.067500
H -24.167600 -14.888400 -11.949000
C -23.872200 -12.746500 -14.509600
C -23.767700 -14.307100 -12.693500
C -22.513300 -12.930000 -14.739700
C -22.409800 -14.489600 -12.923600
H -22.086000 -12.298100 -15.448900
H -21.857000 -15.089800 -12.295000
C -21.772400 -13.796100 -13.944400
O -20.432000 -14.020100 -14.130100
H -20.081500 -13.351700 -14.491500
31
Fragment
H -31.383800 -14.293200 -20.970500
H -31.039300 -11.921100 -20.900700
C -30.827300 -13.875500 -20.205100
C -30.622800 -12.509400 -20.167100
H -30.450200 -15.682100 -19.153500
C -30.278500 -14.659300 -19.209700
C -29.881500 -11.983600 -19.131800
H -29.721800 -11.144300 -19.069300
C -29.537200 -14.046200 -18.206100
N -29.333100 -12.718400 -18.153500
N -28.965600 -16.145600 -17.039400
C -28.899300 -14.824000 -17.127300
N -28.238600 -16.414000 -15.926200
N -28.168500 -14.243200 -16.133600
H -28.127100 -17.234700 -15.683500
C -27.776700 -15.288300 -15.409000
H -27.163100 -15.270400 -14.604700
H -26.175200 -12.708800 -13.687100
O -25.850100 -13.320900 -13.221100
C -24.505800 -13.438000 -13.485200
H -24.380400 -12.098700 -15.067500
H -24.167600 -14.888400 -11.949000
C -23.872200 -12.746500 -14.509600
C -23.767700 -14.307100 -12.693500
C -22.513300 -12.930000 -14.739700
C -22.409800 -14.489600 -12.923600
H -22.086000 -12.298100 -15.448900
H -21.857000 -15.089800 -12.295000
C -21.772400 -13.796100 -13.944400
O -20.432000 -14.020100 -14.130100
H -20.081500 -13.351700 -14.491500
