17
Fragment
H -31.383800 -14.293200 -20.970500
H -31.039300 -11.921100 -20.900700
C -30.827300 -13.875500 -20.205100
C -30.622800 -12.509400 -20.167100
H -30.450200 -15.682100 -19.153500
C -30.278500 -14.659300 -19.209700
C -29.881500 -11.983600 -19.131800
H -29.721800 -11.144300 -19.069300
C -29.537200 -14.046200 -18.206100
N -29.333100 -12.718400 -18.153500
N -28.965600 -16.145600 -17.039400
C -28.899300 -14.824000 -17.127300
N -28.238600 -16.414000 -15.926200
N -28.168500 -14.243200 -16.133600
H -28.127100 -17.234700 -15.683500
C -27.776700 -15.288300 -15.409000
H -27.163100 -15.270400 -14.604700
17
Fragment
H -39.554300 -15.865700 -14.993300
C -38.729100 -15.899400 -15.534900
H -38.463800 -17.833700 -15.738700
N -38.171800 -17.033100 -15.928900
N -38.042800 -14.861800 -15.986900
N -37.069400 -16.769500 -16.676200
C -37.035600 -15.442000 -16.688900
C -35.990600 -14.670200 -17.381800
N -35.951100 -13.361800 -17.086500
H -35.246900 -16.284300 -18.519500
C -35.102800 -15.273400 -18.255900
C -34.977700 -12.636400 -17.663500
H -34.945500 -11.708800 -17.409900
C -34.094400 -14.508500 -18.819300
C -34.027100 -13.163200 -18.511300
H -33.450000 -14.891400 -19.501300
H -33.341900 -12.616500 -18.870900
34
Fragment
H -31.383800 -14.293200 -20.970500
H -31.039300 -11.921100 -20.900700
C -30.827300 -13.875500 -20.205100
C -30.622800 -12.509400 -20.167100
H -30.450200 -15.682100 -19.153500
C -30.278500 -14.659300 -19.209700
C -29.881500 -11.983600 -19.131800
H -29.721800 -11.144300 -19.069300
C -29.537200 -14.046200 -18.206100
N -29.333100 -12.718400 -18.153500
N -28.965600 -16.145600 -17.039400
C -28.899300 -14.824000 -17.127300
N -28.238600 -16.414000 -15.926200
N -28.168500 -14.243200 -16.133600
H -28.127100 -17.234700 -15.683500
C -27.776700 -15.288300 -15.409000
H -27.163100 -15.270400 -14.604700
H -39.554300 -15.865700 -14.993300
C -38.729100 -15.899400 -15.534900
H -38.463800 -17.833700 -15.738700
N -38.171800 -17.033100 -15.928900
N -38.042800 -14.861800 -15.986900
N -37.069400 -16.769500 -16.676200
C -37.035600 -15.442000 -16.688900
C -35.990600 -14.670200 -17.381800
N -35.951100 -13.361800 -17.086500
H -35.246900 -16.284300 -18.519500
C -35.102800 -15.273400 -18.255900
C -34.977700 -12.636400 -17.663500
H -34.945500 -11.708800 -17.409900
C -34.094400 -14.508500 -18.819300
C -34.027100 -13.163200 -18.511300
H -33.450000 -14.891400 -19.501300
H -33.341900 -12.616500 -18.870900
