17
Fragment
H -31.383800 -14.293200 -20.970500
H -31.039300 -11.921100 -20.900700
C -30.827300 -13.875500 -20.205100
C -30.622800 -12.509400 -20.167100
H -30.450200 -15.682100 -19.153500
C -30.278500 -14.659300 -19.209700
C -29.881500 -11.983600 -19.131800
H -29.721800 -11.144300 -19.069300
C -29.537200 -14.046200 -18.206100
N -29.333100 -12.718400 -18.153500
N -28.965600 -16.145600 -17.039400
C -28.899300 -14.824000 -17.127300
N -28.238600 -16.414000 -15.926200
N -28.168500 -14.243200 -16.133600
H -28.127100 -17.234700 -15.683500
C -27.776700 -15.288300 -15.409000
H -27.163100 -15.270400 -14.604700
17
Fragment
H -27.930800 -14.492600 -21.626300
C -27.317200 -14.474700 -20.821900
H -26.966800 -12.528300 -20.547500
N -26.925500 -15.519800 -20.097300
N -26.855300 -13.349000 -20.304700
C -26.194600 -14.939000 -19.103700
N -26.128300 -13.617400 -19.191500
N -25.760800 -17.044600 -18.077400
C -25.556700 -15.716800 -18.024900
H -25.372100 -18.618700 -17.161700
C -25.212400 -17.779400 -17.099200
C -24.815400 -15.103700 -17.021300
H -24.643700 -14.080900 -17.077500
C -24.471100 -17.253600 -16.063900
C -24.266600 -15.887500 -16.025900
H -24.054600 -17.841900 -15.330200
H -23.710100 -15.469800 -15.260500
34
Fragment
H -31.383800 -14.293200 -20.970500
H -31.039300 -11.921100 -20.900700
C -30.827300 -13.875500 -20.205100
C -30.622800 -12.509400 -20.167100
H -30.450200 -15.682100 -19.153500
C -30.278500 -14.659300 -19.209700
C -29.881500 -11.983600 -19.131800
H -29.721800 -11.144300 -19.069300
C -29.537200 -14.046200 -18.206100
N -29.333100 -12.718400 -18.153500
N -28.965600 -16.145600 -17.039400
C -28.899300 -14.824000 -17.127300
N -28.238600 -16.414000 -15.926200
N -28.168500 -14.243200 -16.133600
H -28.127100 -17.234700 -15.683500
C -27.776700 -15.288300 -15.409000
H -27.163100 -15.270400 -14.604700
H -27.930800 -14.492600 -21.626300
C -27.317200 -14.474700 -20.821900
H -26.966800 -12.528300 -20.547500
N -26.925500 -15.519800 -20.097300
N -26.855300 -13.349000 -20.304700
C -26.194600 -14.939000 -19.103700
N -26.128300 -13.617400 -19.191500
N -25.760800 -17.044600 -18.077400
C -25.556700 -15.716800 -18.024900
H -25.372100 -18.618700 -17.161700
C -25.212400 -17.779400 -17.099200
C -24.815400 -15.103700 -17.021300
H -24.643700 -14.080900 -17.077500
C -24.471100 -17.253600 -16.063900
C -24.266600 -15.887500 -16.025900
H -24.054600 -17.841900 -15.330200
H -23.710100 -15.469800 -15.260500
