17
Fragment
H -31.383800 -14.293200 -20.970500
H -31.039300 -11.921100 -20.900700
C -30.827300 -13.875500 -20.205100
C -30.622800 -12.509400 -20.167100
H -30.450200 -15.682100 -19.153500
C -30.278500 -14.659300 -19.209700
C -29.881500 -11.983600 -19.131800
H -29.721800 -11.144300 -19.069300
C -29.537200 -14.046200 -18.206100
N -29.333100 -12.718400 -18.153500
N -28.965600 -16.145600 -17.039400
C -28.899300 -14.824000 -17.127300
N -28.238600 -16.414000 -15.926200
N -28.168500 -14.243200 -16.133600
H -28.127100 -17.234700 -15.683500
C -27.776700 -15.288300 -15.409000
H -27.163100 -15.270400 -14.604700
17
Fragment
H -38.661600 -8.936800 -19.522100
C -37.836500 -8.903100 -20.063800
H -37.571200 -6.968800 -20.267600
N -37.279200 -7.769400 -20.457800
N -37.150100 -9.940700 -20.515800
N -36.176800 -8.033000 -21.205100
C -36.143000 -9.360500 -21.217800
C -35.098000 -10.132300 -21.910700
N -35.058500 -11.440700 -21.615400
H -34.354300 -8.518200 -23.048300
C -34.210200 -9.529100 -22.784700
C -34.085100 -12.166100 -22.192400
H -34.052900 -13.093700 -21.938800
C -33.201700 -10.294000 -23.348100
C -33.134400 -11.639300 -23.040200
H -32.557400 -9.911100 -24.030200
H -32.449300 -12.186000 -23.399800
34
Fragment
H -31.383800 -14.293200 -20.970500
H -31.039300 -11.921100 -20.900700
C -30.827300 -13.875500 -20.205100
C -30.622800 -12.509400 -20.167100
H -30.450200 -15.682100 -19.153500
C -30.278500 -14.659300 -19.209700
C -29.881500 -11.983600 -19.131800
H -29.721800 -11.144300 -19.069300
C -29.537200 -14.046200 -18.206100
N -29.333100 -12.718400 -18.153500
N -28.965600 -16.145600 -17.039400
C -28.899300 -14.824000 -17.127300
N -28.238600 -16.414000 -15.926200
N -28.168500 -14.243200 -16.133600
H -28.127100 -17.234700 -15.683500
C -27.776700 -15.288300 -15.409000
H -27.163100 -15.270400 -14.604700
H -38.661600 -8.936800 -19.522100
C -37.836500 -8.903100 -20.063800
H -37.571200 -6.968800 -20.267600
N -37.279200 -7.769400 -20.457800
N -37.150100 -9.940700 -20.515800
N -36.176800 -8.033000 -21.205100
C -36.143000 -9.360500 -21.217800
C -35.098000 -10.132300 -21.910700
N -35.058500 -11.440700 -21.615400
H -34.354300 -8.518200 -23.048300
C -34.210200 -9.529100 -22.784700
C -34.085100 -12.166100 -22.192400
H -34.052900 -13.093700 -21.938800
C -33.201700 -10.294000 -23.348100
C -33.134400 -11.639300 -23.040200
H -32.557400 -9.911100 -24.030200
H -32.449300 -12.186000 -23.399800
