16
Fragment
H -7.492100 -16.054500 -22.438300
H -7.058600 -15.128900 -23.589600
N -6.969700 -15.403600 -22.746600
H -6.754100 -15.696200 -20.392300
C -6.112400 -14.781500 -21.924100
N -6.095200 -15.171700 -20.625500
O -5.330500 -14.997500 -18.501700
N -5.308700 -13.840900 -22.397400
C -5.265500 -14.606300 -19.691200
C -4.432500 -13.278600 -21.539400
C -4.376500 -13.636900 -20.212200
H -3.817000 -12.015500 -23.018100
H -3.568600 -11.431300 -21.549000
C -3.529400 -12.235500 -22.106900
Br -3.161500 -12.883900 -19.002300
H -2.610900 -12.575900 -22.127300
16
Fragment
H -1.051500 -10.276700 -17.721500
Br -0.794900 -9.851900 -21.393100
H -0.734400 -11.142600 -19.028300
C -0.341100 -10.603100 -18.312100
H 0.286200 -11.152600 -17.796500
C 0.320700 -8.999700 -20.153600
C 0.385400 -9.442600 -18.904100
O 1.071900 -7.435000 -21.783600
C 1.117800 -7.877000 -20.609200
N 1.252400 -8.804600 -18.042100
H 1.424200 -8.997700 -17.200500
N 1.949100 -7.294700 -19.698000
C 1.980900 -7.759500 -18.447200
H 2.745600 -7.405200 -16.736700
N 2.801900 -7.180200 -17.582400
H 3.461900 -6.688600 -17.882500
32
Fragment
H -7.492100 -16.054500 -22.438300
H -7.058600 -15.128900 -23.589600
N -6.969700 -15.403600 -22.746600
H -6.754100 -15.696200 -20.392300
C -6.112400 -14.781500 -21.924100
N -6.095200 -15.171700 -20.625500
O -5.330500 -14.997500 -18.501700
N -5.308700 -13.840900 -22.397400
C -5.265500 -14.606300 -19.691200
C -4.432500 -13.278600 -21.539400
C -4.376500 -13.636900 -20.212200
H -3.817000 -12.015500 -23.018100
H -3.568600 -11.431300 -21.549000
C -3.529400 -12.235500 -22.106900
Br -3.161500 -12.883900 -19.002300
H -2.610900 -12.575900 -22.127300
H -1.051500 -10.276700 -17.721500
Br -0.794900 -9.851900 -21.393100
H -0.734400 -11.142600 -19.028300
C -0.341100 -10.603100 -18.312100
H 0.286200 -11.152600 -17.796500
C 0.320700 -8.999700 -20.153600
C 0.385400 -9.442600 -18.904100
O 1.071900 -7.435000 -21.783600
C 1.117800 -7.877000 -20.609200
N 1.252400 -8.804600 -18.042100
H 1.424200 -8.997700 -17.200500
N 1.949100 -7.294700 -19.698000
C 1.980900 -7.759500 -18.447200
H 2.745600 -7.405200 -16.736700
N 2.801900 -7.180200 -17.582400
H 3.461900 -6.688600 -17.882500
