16
Fragment
H -7.492100 -16.054500 -22.438300
H -7.058600 -15.128900 -23.589600
N -6.969700 -15.403600 -22.746600
H -6.754100 -15.696200 -20.392300
C -6.112400 -14.781500 -21.924100
N -6.095200 -15.171700 -20.625500
O -5.330500 -14.997500 -18.501700
N -5.308700 -13.840900 -22.397400
C -5.265500 -14.606300 -19.691200
C -4.432500 -13.278600 -21.539400
C -4.376500 -13.636900 -20.212200
H -3.817000 -12.015500 -23.018100
H -3.568600 -11.431300 -21.549000
C -3.529400 -12.235500 -22.106900
Br -3.161500 -12.883900 -19.002300
H -2.610900 -12.575900 -22.127300
16
Fragment
H 0.035300 -13.217800 -23.038500
N 0.695300 -12.726200 -23.338600
H 0.751600 -12.501200 -24.184300
C 1.516300 -12.146900 -22.473800
N 1.548100 -12.611700 -21.223000
H 2.073000 -10.908700 -23.720500
N 2.244800 -11.101800 -22.878900
C 2.379500 -12.029400 -20.311800
O 2.425300 -12.471400 -19.137400
C 3.111800 -10.463800 -22.016900
C 3.176500 -10.906700 -20.767400
H 3.211100 -8.753800 -23.124400
C 3.838400 -9.303300 -22.608800
H 4.231600 -8.763800 -21.892700
Br 4.292100 -10.054500 -19.527900
H 4.548800 -9.629700 -23.199500
32
Fragment
H -7.492100 -16.054500 -22.438300
H -7.058600 -15.128900 -23.589600
N -6.969700 -15.403600 -22.746600
H -6.754100 -15.696200 -20.392300
C -6.112400 -14.781500 -21.924100
N -6.095200 -15.171700 -20.625500
O -5.330500 -14.997500 -18.501700
N -5.308700 -13.840900 -22.397400
C -5.265500 -14.606300 -19.691200
C -4.432500 -13.278600 -21.539400
C -4.376500 -13.636900 -20.212200
H -3.817000 -12.015500 -23.018100
H -3.568600 -11.431300 -21.549000
C -3.529400 -12.235500 -22.106900
Br -3.161500 -12.883900 -19.002300
H -2.610900 -12.575900 -22.127300
H 0.035300 -13.217800 -23.038500
N 0.695300 -12.726200 -23.338600
H 0.751600 -12.501200 -24.184300
C 1.516300 -12.146900 -22.473800
N 1.548100 -12.611700 -21.223000
H 2.073000 -10.908700 -23.720500
N 2.244800 -11.101800 -22.878900
C 2.379500 -12.029400 -20.311800
O 2.425300 -12.471400 -19.137400
C 3.111800 -10.463800 -22.016900
C 3.176500 -10.906700 -20.767400
H 3.211100 -8.753800 -23.124400
C 3.838400 -9.303300 -22.608800
H 4.231600 -8.763800 -21.892700
Br 4.292100 -10.054500 -19.527900
H 4.548800 -9.629700 -23.199500
