16
Fragment
H -7.492100 -16.054500 -22.438300
H -7.058600 -15.128900 -23.589600
N -6.969700 -15.403600 -22.746600
H -6.754100 -15.696200 -20.392300
C -6.112400 -14.781500 -21.924100
N -6.095200 -15.171700 -20.625500
O -5.330500 -14.997500 -18.501700
N -5.308700 -13.840900 -22.397400
C -5.265500 -14.606300 -19.691200
C -4.432500 -13.278600 -21.539400
C -4.376500 -13.636900 -20.212200
H -3.817000 -12.015500 -23.018100
H -3.568600 -11.431300 -21.549000
C -3.529400 -12.235500 -22.106900
Br -3.161500 -12.883900 -19.002300
H -2.610900 -12.575900 -22.127300
16
Fragment
H -6.396200 -17.552500 -25.613800
Br -5.845600 -17.860500 -28.738800
C -5.477700 -17.212100 -25.634300
H -5.438500 -16.407900 -26.192200
H -5.190100 -16.992100 -24.723100
C -4.630600 -18.613500 -27.528900
C -4.574600 -18.255200 -26.201700
C -3.741700 -19.582900 -28.050000
N -3.698400 -18.817500 -25.343700
O -3.676600 -19.974100 -29.239400
N -2.911900 -20.148300 -27.115600
C -2.894700 -19.758100 -25.817100
H -2.253000 -20.672800 -27.348900
N -2.037400 -20.380200 -24.994500
H -1.948500 -20.105500 -24.151600
H -1.515100 -21.031100 -25.302800
32
Fragment
H -7.492100 -16.054500 -22.438300
H -7.058600 -15.128900 -23.589600
N -6.969700 -15.403600 -22.746600
H -6.754100 -15.696200 -20.392300
C -6.112400 -14.781500 -21.924100
N -6.095200 -15.171700 -20.625500
O -5.330500 -14.997500 -18.501700
N -5.308700 -13.840900 -22.397400
C -5.265500 -14.606300 -19.691200
C -4.432500 -13.278600 -21.539400
C -4.376500 -13.636900 -20.212200
H -3.817000 -12.015500 -23.018100
H -3.568600 -11.431300 -21.549000
C -3.529400 -12.235500 -22.106900
Br -3.161500 -12.883900 -19.002300
H -2.610900 -12.575900 -22.127300
H -6.396200 -17.552500 -25.613800
Br -5.845600 -17.860500 -28.738800
C -5.477700 -17.212100 -25.634300
H -5.438500 -16.407900 -26.192200
H -5.190100 -16.992100 -24.723100
C -4.630600 -18.613500 -27.528900
C -4.574600 -18.255200 -26.201700
C -3.741700 -19.582900 -28.050000
N -3.698400 -18.817500 -25.343700
O -3.676600 -19.974100 -29.239400
N -2.911900 -20.148300 -27.115600
C -2.894700 -19.758100 -25.817100
H -2.253000 -20.672800 -27.348900
N -2.037400 -20.380200 -24.994500
H -1.948500 -20.105500 -24.151600
H -1.515100 -21.031100 -25.302800
