16
Fragment
H -7.492100 -16.054500 -22.438300
H -7.058600 -15.128900 -23.589600
N -6.969700 -15.403600 -22.746600
H -6.754100 -15.696200 -20.392300
C -6.112400 -14.781500 -21.924100
N -6.095200 -15.171700 -20.625500
O -5.330500 -14.997500 -18.501700
N -5.308700 -13.840900 -22.397400
C -5.265500 -14.606300 -19.691200
C -4.432500 -13.278600 -21.539400
C -4.376500 -13.636900 -20.212200
H -3.817000 -12.015500 -23.018100
H -3.568600 -11.431300 -21.549000
C -3.529400 -12.235500 -22.106900
Br -3.161500 -12.883900 -19.002300
H -2.610900 -12.575900 -22.127300
16
Fragment
H -4.803100 -8.828500 -15.618200
H -4.369700 -9.754100 -16.769400
N -4.280800 -9.479400 -15.926400
H -4.065200 -9.186800 -13.572100
C -3.423500 -10.101500 -15.103900
N -3.406200 -9.711300 -13.805400
O -2.641500 -9.885500 -11.681600
N -2.619800 -11.042100 -15.577300
C -2.576500 -10.276700 -12.871000
C -1.743600 -11.604400 -14.719300
C -1.687500 -11.246100 -13.392100
H -1.128100 -12.867500 -16.197900
H -0.879700 -13.451700 -14.728800
C -0.840500 -12.647500 -15.286700
Br -0.472600 -11.999100 -12.182200
H 0.078000 -12.307100 -15.307200
32
Fragment
H -7.492100 -16.054500 -22.438300
H -7.058600 -15.128900 -23.589600
N -6.969700 -15.403600 -22.746600
H -6.754100 -15.696200 -20.392300
C -6.112400 -14.781500 -21.924100
N -6.095200 -15.171700 -20.625500
O -5.330500 -14.997500 -18.501700
N -5.308700 -13.840900 -22.397400
C -5.265500 -14.606300 -19.691200
C -4.432500 -13.278600 -21.539400
C -4.376500 -13.636900 -20.212200
H -3.817000 -12.015500 -23.018100
H -3.568600 -11.431300 -21.549000
C -3.529400 -12.235500 -22.106900
Br -3.161500 -12.883900 -19.002300
H -2.610900 -12.575900 -22.127300
H -4.803100 -8.828500 -15.618200
H -4.369700 -9.754100 -16.769400
N -4.280800 -9.479400 -15.926400
H -4.065200 -9.186800 -13.572100
C -3.423500 -10.101500 -15.103900
N -3.406200 -9.711300 -13.805400
O -2.641500 -9.885500 -11.681600
N -2.619800 -11.042100 -15.577300
C -2.576500 -10.276700 -12.871000
C -1.743600 -11.604400 -14.719300
C -1.687500 -11.246100 -13.392100
H -1.128100 -12.867500 -16.197900
H -0.879700 -13.451700 -14.728800
C -0.840500 -12.647500 -15.286700
Br -0.472600 -11.999100 -12.182200
H 0.078000 -12.307100 -15.307200
