14
Fragment
N -14.084600 -7.372000 -27.614200
N -13.940800 -6.773500 -28.771700
N -13.216200 -8.386900 -27.538900
H -13.138200 -8.913900 -26.864000
C -12.942900 -7.432500 -29.468100
H -12.692100 -6.486000 -31.269200
C -12.471800 -8.471900 -28.679100
C -12.400800 -7.191400 -30.738700
C -11.471500 -9.337600 -29.108600
C -11.417300 -8.047700 -31.158900
H -11.161100 -10.036800 -28.579800
H -11.038100 -7.925600 -31.999300
C -10.972300 -9.095500 -30.358700
H -10.307900 -9.655400 -30.687900
14
Fragment
H -8.667400 -7.046400 -30.593400
C -8.003100 -6.486500 -30.922500
H -7.937200 -5.316600 -29.281900
H -7.814300 -7.427800 -32.701400
C -7.558000 -5.438700 -30.122400
C -7.503800 -6.728600 -32.172700
C -6.574600 -4.582400 -30.542600
C -6.503500 -5.862900 -32.602200
H -6.283300 -3.877000 -30.012100
C -6.032400 -4.823500 -31.813200
H -5.837100 -6.304900 -34.417300
N -5.759200 -5.777900 -33.742300
N -5.034600 -4.164500 -32.509500
N -4.890700 -4.763000 -33.667100
28
Fragment
N -14.084600 -7.372000 -27.614200
N -13.940800 -6.773500 -28.771700
N -13.216200 -8.386900 -27.538900
H -13.138200 -8.913900 -26.864000
C -12.942900 -7.432500 -29.468100
H -12.692100 -6.486000 -31.269200
C -12.471800 -8.471900 -28.679100
C -12.400800 -7.191400 -30.738700
C -11.471500 -9.337600 -29.108600
C -11.417300 -8.047700 -31.158900
H -11.161100 -10.036800 -28.579800
H -11.038100 -7.925600 -31.999300
C -10.972300 -9.095500 -30.358700
H -10.307900 -9.655400 -30.687900
H -8.667400 -7.046400 -30.593400
C -8.003100 -6.486500 -30.922500
H -7.937200 -5.316600 -29.281900
H -7.814300 -7.427800 -32.701400
C -7.558000 -5.438700 -30.122400
C -7.503800 -6.728600 -32.172700
C -6.574600 -4.582400 -30.542600
C -6.503500 -5.862900 -32.602200
H -6.283300 -3.877000 -30.012100
C -6.032400 -4.823500 -31.813200
H -5.837100 -6.304900 -34.417300
N -5.759200 -5.777900 -33.742300
N -5.034600 -4.164500 -32.509500
N -4.890700 -4.763000 -33.667100
