14
Fragment
N -14.084600 -7.372000 -27.614200
N -13.940800 -6.773500 -28.771700
N -13.216200 -8.386900 -27.538900
H -13.138200 -8.913900 -26.864000
C -12.942900 -7.432500 -29.468100
H -12.692100 -6.486000 -31.269200
C -12.471800 -8.471900 -28.679100
C -12.400800 -7.191400 -30.738700
C -11.471500 -9.337600 -29.108600
C -11.417300 -8.047700 -31.158900
H -11.161100 -10.036800 -28.579800
H -11.038100 -7.925600 -31.999300
C -10.972300 -9.095500 -30.358700
H -10.307900 -9.655400 -30.687900
17
Fragment
O -20.764500 -6.401400 -25.591100
H -20.018400 -6.111800 -27.888200
N -19.960000 -7.306200 -25.570100
O -19.814100 -8.045600 -24.620700
C -19.364900 -6.774000 -27.886500
C -19.143900 -7.544700 -26.778200
H -18.716000 -6.500600 -29.773900
C -18.585900 -7.010900 -29.007100
C -18.192100 -8.530900 -26.739600
H -18.071100 -9.039700 -25.971000
C -17.619700 -7.994500 -29.000100
C -17.412100 -8.760000 -27.868800
H -17.104900 -8.143200 -29.759900
C -16.384900 -9.840600 -27.797200
O -16.204300 -10.483000 -26.786700
O -15.719100 -10.007100 -28.927700
H -15.013800 -10.733400 -28.802200
31
Fragment
N -14.084600 -7.372000 -27.614200
N -13.940800 -6.773500 -28.771700
N -13.216200 -8.386900 -27.538900
H -13.138200 -8.913900 -26.864000
C -12.942900 -7.432500 -29.468100
H -12.692100 -6.486000 -31.269200
C -12.471800 -8.471900 -28.679100
C -12.400800 -7.191400 -30.738700
C -11.471500 -9.337600 -29.108600
C -11.417300 -8.047700 -31.158900
H -11.161100 -10.036800 -28.579800
H -11.038100 -7.925600 -31.999300
C -10.972300 -9.095500 -30.358700
H -10.307900 -9.655400 -30.687900
O -20.764500 -6.401400 -25.591100
H -20.018400 -6.111800 -27.888200
N -19.960000 -7.306200 -25.570100
O -19.814100 -8.045600 -24.620700
C -19.364900 -6.774000 -27.886500
C -19.143900 -7.544700 -26.778200
H -18.716000 -6.500600 -29.773900
C -18.585900 -7.010900 -29.007100
C -18.192100 -8.530900 -26.739600
H -18.071100 -9.039700 -25.971000
C -17.619700 -7.994500 -29.000100
C -17.412100 -8.760000 -27.868800
H -17.104900 -8.143200 -29.759900
C -16.384900 -9.840600 -27.797200
O -16.204300 -10.483000 -26.786700
O -15.719100 -10.007100 -28.927700
H -15.013800 -10.733400 -28.802200
