14
Fragment
N -14.084600 -7.372000 -27.614200
N -13.940800 -6.773500 -28.771700
N -13.216200 -8.386900 -27.538900
H -13.138200 -8.913900 -26.864000
C -12.942900 -7.432500 -29.468100
H -12.692100 -6.486000 -31.269200
C -12.471800 -8.471900 -28.679100
C -12.400800 -7.191400 -30.738700
C -11.471500 -9.337600 -29.108600
C -11.417300 -8.047700 -31.158900
H -11.161100 -10.036800 -28.579800
H -11.038100 -7.925600 -31.999300
C -10.972300 -9.095500 -30.358700
H -10.307900 -9.655400 -30.687900
17
Fragment
H -13.544000 -10.138600 -23.724600
O -12.838600 -10.864900 -23.599100
O -12.353500 -10.389000 -25.740100
C -12.172800 -11.031400 -24.729600
H -11.452800 -12.728800 -22.766900
C -11.145600 -12.112000 -24.658000
C -10.938000 -12.877500 -23.526800
H -10.486600 -11.832300 -26.555800
C -10.365600 -12.341100 -25.787200
C -9.971900 -13.861100 -23.519800
H -9.841800 -14.371400 -22.752900
C -9.413900 -13.327300 -25.748600
C -9.192800 -14.098000 -24.640300
O -8.743600 -12.826400 -27.906100
N -8.597800 -13.565800 -26.956800
H -8.539300 -14.760200 -24.638600
O -7.793200 -14.470600 -26.935700
31
Fragment
N -14.084600 -7.372000 -27.614200
N -13.940800 -6.773500 -28.771700
N -13.216200 -8.386900 -27.538900
H -13.138200 -8.913900 -26.864000
C -12.942900 -7.432500 -29.468100
H -12.692100 -6.486000 -31.269200
C -12.471800 -8.471900 -28.679100
C -12.400800 -7.191400 -30.738700
C -11.471500 -9.337600 -29.108600
C -11.417300 -8.047700 -31.158900
H -11.161100 -10.036800 -28.579800
H -11.038100 -7.925600 -31.999300
C -10.972300 -9.095500 -30.358700
H -10.307900 -9.655400 -30.687900
H -13.544000 -10.138600 -23.724600
O -12.838600 -10.864900 -23.599100
O -12.353500 -10.389000 -25.740100
C -12.172800 -11.031400 -24.729600
H -11.452800 -12.728800 -22.766900
C -11.145600 -12.112000 -24.658000
C -10.938000 -12.877500 -23.526800
H -10.486600 -11.832300 -26.555800
C -10.365600 -12.341100 -25.787200
C -9.971900 -13.861100 -23.519800
H -9.841800 -14.371400 -22.752900
C -9.413900 -13.327300 -25.748600
C -9.192800 -14.098000 -24.640300
O -8.743600 -12.826400 -27.906100
N -8.597800 -13.565800 -26.956800
H -8.539300 -14.760200 -24.638600
O -7.793200 -14.470600 -26.935700
