32
Fragment
H -14.837700 -23.394000 -16.888100
C -13.943900 -23.475100 -16.644000
N -13.639300 -23.651400 -15.361700
O -13.258400 -21.160600 -13.056600
H -13.236400 -23.256500 -18.499700
C -12.974400 -23.409500 -17.620700
H -12.436100 -19.057400 -13.586900
C -12.336200 -23.767400 -15.078300
N -12.325700 -25.050200 -12.963400
C -12.114100 -20.814600 -13.144800
C -12.015600 -23.975500 -13.653800
N -11.868800 -24.845100 -11.698200
O -11.705600 -19.595600 -13.359000
N -11.681500 -23.556500 -17.357700
N -11.381200 -23.125400 -12.838200
C -11.360700 -23.740900 -16.066600
N -11.299800 -23.688400 -11.610000
C -10.940600 -21.760400 -13.057100
H -10.428500 -21.714900 -13.879900
H -10.361700 -21.488200 -12.328100
C -9.934100 -23.916300 -15.782900
N -9.452900 -24.677500 -14.808900
N -8.957700 -23.326200 -16.506900
N -8.150200 -24.534600 -14.986600
N -7.827600 -23.727900 -15.979300
H -7.461300 -25.908100 -13.710600
O -7.453500 -23.029600 -12.897900
C -7.151300 -25.066300 -14.079600
C -6.892100 -24.100500 -12.973800
H -6.327800 -25.233900 -14.564700
O -5.997400 -24.539000 -12.132500
H -5.705100 -23.766900 -11.438200
32
Fragment
H -13.908900 -20.110500 -21.118300
O -13.616600 -19.338400 -20.424000
H -13.286200 -18.643500 -17.991800
C -12.721900 -19.776900 -19.582700
C -12.462700 -18.811100 -18.476900
O -12.160500 -20.847800 -19.658600
H -12.152800 -17.969300 -18.845900
N -11.786500 -20.149500 -16.577200
N -11.463800 -19.342800 -17.569900
N -10.656400 -20.551200 -16.049600
N -10.161100 -19.199900 -17.747600
C -9.680000 -19.961100 -16.773700
H -9.252300 -22.389200 -20.228400
H -9.185500 -22.162500 -18.676600
C -8.673400 -22.117000 -19.499400
N -8.314200 -20.189000 -20.946500
C -8.253300 -20.136500 -16.489900
N -8.232800 -20.752000 -19.718300
N -7.932500 -20.320900 -15.198800
O -7.908400 -24.281800 -19.197500
N -7.745200 -19.032300 -20.858300
C -7.598400 -19.901900 -18.902700
C -7.499900 -23.062800 -19.411700
N -7.288400 -18.827200 -19.593200
C -7.277800 -20.110000 -17.478200
H -7.178000 -24.820000 -18.969600
C -6.639600 -20.467900 -14.935800
H -6.377600 -20.620900 -14.056800
O -6.355600 -22.716800 -19.499900
N -5.974800 -20.226000 -17.194800
C -5.670200 -20.402300 -15.912500
H -4.776400 -20.483400 -15.668400
64
Fragment
H -14.837700 -23.394000 -16.888100
C -13.943900 -23.475100 -16.644000
N -13.639300 -23.651400 -15.361700
O -13.258400 -21.160600 -13.056600
H -13.236400 -23.256500 -18.499700
C -12.974400 -23.409500 -17.620700
H -12.436100 -19.057400 -13.586900
C -12.336200 -23.767400 -15.078300
N -12.325700 -25.050200 -12.963400
C -12.114100 -20.814600 -13.144800
C -12.015600 -23.975500 -13.653800
N -11.868800 -24.845100 -11.698200
O -11.705600 -19.595600 -13.359000
N -11.681500 -23.556500 -17.357700
N -11.381200 -23.125400 -12.838200
C -11.360700 -23.740900 -16.066600
N -11.299800 -23.688400 -11.610000
C -10.940600 -21.760400 -13.057100
H -10.428500 -21.714900 -13.879900
H -10.361700 -21.488200 -12.328100
C -9.934100 -23.916300 -15.782900
N -9.452900 -24.677500 -14.808900
N -8.957700 -23.326200 -16.506900
N -8.150200 -24.534600 -14.986600
N -7.827600 -23.727900 -15.979300
H -7.461300 -25.908100 -13.710600
O -7.453500 -23.029600 -12.897900
C -7.151300 -25.066300 -14.079600
C -6.892100 -24.100500 -12.973800
H -6.327800 -25.233900 -14.564700
O -5.997400 -24.539000 -12.132500
H -5.705100 -23.766900 -11.438200
H -13.908900 -20.110500 -21.118300
O -13.616600 -19.338400 -20.424000
H -13.286200 -18.643500 -17.991800
C -12.721900 -19.776900 -19.582700
C -12.462700 -18.811100 -18.476900
O -12.160500 -20.847800 -19.658600
H -12.152800 -17.969300 -18.845900
N -11.786500 -20.149500 -16.577200
N -11.463800 -19.342800 -17.569900
N -10.656400 -20.551200 -16.049600
N -10.161100 -19.199900 -17.747600
C -9.680000 -19.961100 -16.773700
H -9.252300 -22.389200 -20.228400
H -9.185500 -22.162500 -18.676600
C -8.673400 -22.117000 -19.499400
N -8.314200 -20.189000 -20.946500
C -8.253300 -20.136500 -16.489900
N -8.232800 -20.752000 -19.718300
N -7.932500 -20.320900 -15.198800
O -7.908400 -24.281800 -19.197500
N -7.745200 -19.032300 -20.858300
C -7.598400 -19.901900 -18.902700
C -7.499900 -23.062800 -19.411700
N -7.288400 -18.827200 -19.593200
C -7.277800 -20.110000 -17.478200
H -7.178000 -24.820000 -18.969600
C -6.639600 -20.467900 -14.935800
H -6.377600 -20.620900 -14.056800
O -6.355600 -22.716800 -19.499900
N -5.974800 -20.226000 -17.194800
C -5.670200 -20.402300 -15.912500
H -4.776400 -20.483400 -15.668400
