32
Fragment
H -14.837700 -23.394000 -16.888100
C -13.943900 -23.475100 -16.644000
N -13.639300 -23.651400 -15.361700
O -13.258400 -21.160600 -13.056600
H -13.236400 -23.256500 -18.499700
C -12.974400 -23.409500 -17.620700
H -12.436100 -19.057400 -13.586900
C -12.336200 -23.767400 -15.078300
N -12.325700 -25.050200 -12.963400
C -12.114100 -20.814600 -13.144800
C -12.015600 -23.975500 -13.653800
N -11.868800 -24.845100 -11.698200
O -11.705600 -19.595600 -13.359000
N -11.681500 -23.556500 -17.357700
N -11.381200 -23.125400 -12.838200
C -11.360700 -23.740900 -16.066600
N -11.299800 -23.688400 -11.610000
C -10.940600 -21.760400 -13.057100
H -10.428500 -21.714900 -13.879900
H -10.361700 -21.488200 -12.328100
C -9.934100 -23.916300 -15.782900
N -9.452900 -24.677500 -14.808900
N -8.957700 -23.326200 -16.506900
N -8.150200 -24.534600 -14.986600
N -7.827600 -23.727900 -15.979300
H -7.461300 -25.908100 -13.710600
O -7.453500 -23.029600 -12.897900
C -7.151300 -25.066300 -14.079600
C -6.892100 -24.100500 -12.973800
H -6.327800 -25.233900 -14.564700
O -5.997400 -24.539000 -12.132500
H -5.705100 -23.766900 -11.438200
32
Fragment
H -5.350000 -23.394000 -16.888100
C -4.456200 -23.475100 -16.644000
N -4.151600 -23.651400 -15.361700
O -3.770700 -21.160600 -13.056600
H -3.748700 -23.256500 -18.499700
C -3.486700 -23.409500 -17.620700
H -2.948400 -19.057400 -13.586900
C -2.848500 -23.767400 -15.078300
N -2.838000 -25.050200 -12.963400
C -2.626400 -20.814600 -13.144800
C -2.527900 -23.975500 -13.653800
N -2.381100 -24.845100 -11.698200
O -2.217900 -19.595600 -13.359000
N -2.193800 -23.556500 -17.357700
N -1.893500 -23.125400 -12.838200
C -1.873000 -23.740900 -16.066600
N -1.812100 -23.688400 -11.610000
C -1.452900 -21.760400 -13.057100
H -0.940800 -21.714900 -13.879900
H -0.874000 -21.488200 -12.328100
C -0.446400 -23.916300 -15.782900
N 0.034800 -24.677500 -14.808900
N 0.530000 -23.326200 -16.506900
N 1.337500 -24.534600 -14.986600
N 1.660100 -23.727900 -15.979300
H 2.026400 -25.908100 -13.710600
O 2.034200 -23.029600 -12.897900
C 2.336400 -25.066300 -14.079600
C 2.595600 -24.100500 -12.973800
H 3.159900 -25.233900 -14.564700
O 3.490300 -24.539000 -12.132500
H 3.782600 -23.766900 -11.438200
64
Fragment
H -14.837700 -23.394000 -16.888100
C -13.943900 -23.475100 -16.644000
N -13.639300 -23.651400 -15.361700
O -13.258400 -21.160600 -13.056600
H -13.236400 -23.256500 -18.499700
C -12.974400 -23.409500 -17.620700
H -12.436100 -19.057400 -13.586900
C -12.336200 -23.767400 -15.078300
N -12.325700 -25.050200 -12.963400
C -12.114100 -20.814600 -13.144800
C -12.015600 -23.975500 -13.653800
N -11.868800 -24.845100 -11.698200
O -11.705600 -19.595600 -13.359000
N -11.681500 -23.556500 -17.357700
N -11.381200 -23.125400 -12.838200
C -11.360700 -23.740900 -16.066600
N -11.299800 -23.688400 -11.610000
C -10.940600 -21.760400 -13.057100
H -10.428500 -21.714900 -13.879900
H -10.361700 -21.488200 -12.328100
C -9.934100 -23.916300 -15.782900
N -9.452900 -24.677500 -14.808900
N -8.957700 -23.326200 -16.506900
N -8.150200 -24.534600 -14.986600
N -7.827600 -23.727900 -15.979300
H -7.461300 -25.908100 -13.710600
O -7.453500 -23.029600 -12.897900
C -7.151300 -25.066300 -14.079600
C -6.892100 -24.100500 -12.973800
H -6.327800 -25.233900 -14.564700
O -5.997400 -24.539000 -12.132500
H -5.705100 -23.766900 -11.438200
H -5.350000 -23.394000 -16.888100
C -4.456200 -23.475100 -16.644000
N -4.151600 -23.651400 -15.361700
O -3.770700 -21.160600 -13.056600
H -3.748700 -23.256500 -18.499700
C -3.486700 -23.409500 -17.620700
H -2.948400 -19.057400 -13.586900
C -2.848500 -23.767400 -15.078300
N -2.838000 -25.050200 -12.963400
C -2.626400 -20.814600 -13.144800
C -2.527900 -23.975500 -13.653800
N -2.381100 -24.845100 -11.698200
O -2.217900 -19.595600 -13.359000
N -2.193800 -23.556500 -17.357700
N -1.893500 -23.125400 -12.838200
C -1.873000 -23.740900 -16.066600
N -1.812100 -23.688400 -11.610000
C -1.452900 -21.760400 -13.057100
H -0.940800 -21.714900 -13.879900
H -0.874000 -21.488200 -12.328100
C -0.446400 -23.916300 -15.782900
N 0.034800 -24.677500 -14.808900
N 0.530000 -23.326200 -16.506900
N 1.337500 -24.534600 -14.986600
N 1.660100 -23.727900 -15.979300
H 2.026400 -25.908100 -13.710600
O 2.034200 -23.029600 -12.897900
C 2.336400 -25.066300 -14.079600
C 2.595600 -24.100500 -12.973800
H 3.159900 -25.233900 -14.564700
O 3.490300 -24.539000 -12.132500
H 3.782600 -23.766900 -11.438200
