32
Fragment
H -14.837700 -23.394000 -16.888100
C -13.943900 -23.475100 -16.644000
N -13.639300 -23.651400 -15.361700
O -13.258400 -21.160600 -13.056600
H -13.236400 -23.256500 -18.499700
C -12.974400 -23.409500 -17.620700
H -12.436100 -19.057400 -13.586900
C -12.336200 -23.767400 -15.078300
N -12.325700 -25.050200 -12.963400
C -12.114100 -20.814600 -13.144800
C -12.015600 -23.975500 -13.653800
N -11.868800 -24.845100 -11.698200
O -11.705600 -19.595600 -13.359000
N -11.681500 -23.556500 -17.357700
N -11.381200 -23.125400 -12.838200
C -11.360700 -23.740900 -16.066600
N -11.299800 -23.688400 -11.610000
C -10.940600 -21.760400 -13.057100
H -10.428500 -21.714900 -13.879900
H -10.361700 -21.488200 -12.328100
C -9.934100 -23.916300 -15.782900
N -9.452900 -24.677500 -14.808900
N -8.957700 -23.326200 -16.506900
N -8.150200 -24.534600 -14.986600
N -7.827600 -23.727900 -15.979300
H -7.461300 -25.908100 -13.710600
O -7.453500 -23.029600 -12.897900
C -7.151300 -25.066300 -14.079600
C -6.892100 -24.100500 -12.973800
H -6.327800 -25.233900 -14.564700
O -5.997400 -24.539000 -12.132500
H -5.705100 -23.766900 -11.438200
32
Fragment
H -16.858600 -20.110500 -10.266200
O -16.566300 -19.338400 -9.571800
H -16.235900 -18.643500 -7.139600
C -15.671600 -19.776900 -8.730600
C -15.412400 -18.811100 -7.624700
O -15.110200 -20.847800 -8.806400
H -15.102500 -17.969300 -7.993700
N -14.736200 -20.149500 -5.725100
N -14.413500 -19.342800 -6.717700
N -13.606000 -20.551200 -5.197400
N -13.110800 -19.199900 -6.895500
C -12.629600 -19.961100 -5.921500
H -12.202000 -22.389200 -9.376300
H -12.135200 -22.162500 -7.824400
C -11.623100 -22.117000 -8.647200
N -11.263900 -20.189000 -10.094400
C -11.203000 -20.136500 -5.637700
N -11.182500 -20.752000 -8.866100
N -10.882200 -20.320900 -4.346600
O -10.858100 -24.281800 -8.345300
N -10.694900 -19.032300 -10.006100
C -10.548100 -19.901900 -8.050600
C -10.449600 -23.062800 -8.559500
N -10.238000 -18.827200 -8.741000
C -10.227500 -20.110000 -6.626000
H -10.127600 -24.820000 -8.117400
C -9.589300 -20.467900 -4.083700
H -9.327300 -20.620900 -3.204600
O -9.305300 -22.716800 -8.647800
N -8.924400 -20.226000 -6.342700
C -8.619900 -20.402300 -5.060400
H -7.726100 -20.483400 -4.816200
64
Fragment
H -14.837700 -23.394000 -16.888100
C -13.943900 -23.475100 -16.644000
N -13.639300 -23.651400 -15.361700
O -13.258400 -21.160600 -13.056600
H -13.236400 -23.256500 -18.499700
C -12.974400 -23.409500 -17.620700
H -12.436100 -19.057400 -13.586900
C -12.336200 -23.767400 -15.078300
N -12.325700 -25.050200 -12.963400
C -12.114100 -20.814600 -13.144800
C -12.015600 -23.975500 -13.653800
N -11.868800 -24.845100 -11.698200
O -11.705600 -19.595600 -13.359000
N -11.681500 -23.556500 -17.357700
N -11.381200 -23.125400 -12.838200
C -11.360700 -23.740900 -16.066600
N -11.299800 -23.688400 -11.610000
C -10.940600 -21.760400 -13.057100
H -10.428500 -21.714900 -13.879900
H -10.361700 -21.488200 -12.328100
C -9.934100 -23.916300 -15.782900
N -9.452900 -24.677500 -14.808900
N -8.957700 -23.326200 -16.506900
N -8.150200 -24.534600 -14.986600
N -7.827600 -23.727900 -15.979300
H -7.461300 -25.908100 -13.710600
O -7.453500 -23.029600 -12.897900
C -7.151300 -25.066300 -14.079600
C -6.892100 -24.100500 -12.973800
H -6.327800 -25.233900 -14.564700
O -5.997400 -24.539000 -12.132500
H -5.705100 -23.766900 -11.438200
H -16.858600 -20.110500 -10.266200
O -16.566300 -19.338400 -9.571800
H -16.235900 -18.643500 -7.139600
C -15.671600 -19.776900 -8.730600
C -15.412400 -18.811100 -7.624700
O -15.110200 -20.847800 -8.806400
H -15.102500 -17.969300 -7.993700
N -14.736200 -20.149500 -5.725100
N -14.413500 -19.342800 -6.717700
N -13.606000 -20.551200 -5.197400
N -13.110800 -19.199900 -6.895500
C -12.629600 -19.961100 -5.921500
H -12.202000 -22.389200 -9.376300
H -12.135200 -22.162500 -7.824400
C -11.623100 -22.117000 -8.647200
N -11.263900 -20.189000 -10.094400
C -11.203000 -20.136500 -5.637700
N -11.182500 -20.752000 -8.866100
N -10.882200 -20.320900 -4.346600
O -10.858100 -24.281800 -8.345300
N -10.694900 -19.032300 -10.006100
C -10.548100 -19.901900 -8.050600
C -10.449600 -23.062800 -8.559500
N -10.238000 -18.827200 -8.741000
C -10.227500 -20.110000 -6.626000
H -10.127600 -24.820000 -8.117400
C -9.589300 -20.467900 -4.083700
H -9.327300 -20.620900 -3.204600
O -9.305300 -22.716800 -8.647800
N -8.924400 -20.226000 -6.342700
C -8.619900 -20.402300 -5.060400
H -7.726100 -20.483400 -4.816200
