32
Fragment
H -14.837700 -23.394000 -16.888100
C -13.943900 -23.475100 -16.644000
N -13.639300 -23.651400 -15.361700
O -13.258400 -21.160600 -13.056600
H -13.236400 -23.256500 -18.499700
C -12.974400 -23.409500 -17.620700
H -12.436100 -19.057400 -13.586900
C -12.336200 -23.767400 -15.078300
N -12.325700 -25.050200 -12.963400
C -12.114100 -20.814600 -13.144800
C -12.015600 -23.975500 -13.653800
N -11.868800 -24.845100 -11.698200
O -11.705600 -19.595600 -13.359000
N -11.681500 -23.556500 -17.357700
N -11.381200 -23.125400 -12.838200
C -11.360700 -23.740900 -16.066600
N -11.299800 -23.688400 -11.610000
C -10.940600 -21.760400 -13.057100
H -10.428500 -21.714900 -13.879900
H -10.361700 -21.488200 -12.328100
C -9.934100 -23.916300 -15.782900
N -9.452900 -24.677500 -14.808900
N -8.957700 -23.326200 -16.506900
N -8.150200 -24.534600 -14.986600
N -7.827600 -23.727900 -15.979300
H -7.461300 -25.908100 -13.710600
O -7.453500 -23.029600 -12.897900
C -7.151300 -25.066300 -14.079600
C -6.892100 -24.100500 -12.973800
H -6.327800 -25.233900 -14.564700
O -5.997400 -24.539000 -12.132500
H -5.705100 -23.766900 -11.438200
32
Fragment
H -8.619000 -27.796300 -22.314200
C -7.725200 -27.715200 -22.070100
N -7.420600 -27.538900 -20.787800
O -7.039700 -30.029700 -18.482700
H -7.017700 -27.933800 -23.925800
C -6.755700 -27.780800 -23.046800
H -6.217400 -32.132900 -19.013000
C -6.117500 -27.422900 -20.504400
N -6.107000 -26.140100 -18.389400
C -5.895400 -30.375700 -18.570900
C -5.796900 -27.214800 -19.079900
N -5.650100 -26.345200 -17.124300
O -5.486900 -31.594700 -18.785100
N -5.462900 -27.633800 -22.783800
N -5.162500 -28.064900 -18.264300
C -5.142000 -27.449400 -21.492700
N -5.081100 -27.501900 -17.036100
C -4.721900 -29.429900 -18.483200
H -4.209800 -29.475400 -19.306000
H -4.143000 -29.702100 -17.754200
C -3.715400 -27.274000 -21.208900
N -3.234200 -26.512800 -20.235000
N -2.739000 -27.864100 -21.933000
N -1.931500 -26.655700 -20.412700
N -1.608900 -27.462400 -21.405400
H -1.242600 -25.282200 -19.136700
O -1.234800 -28.160700 -18.324000
C -0.932600 -26.124000 -19.505700
C -0.673400 -27.089800 -18.399900
H -0.109100 -25.956400 -19.990800
O 0.221300 -26.651300 -17.558600
H 0.513600 -27.423400 -16.864300
64
Fragment
H -14.837700 -23.394000 -16.888100
C -13.943900 -23.475100 -16.644000
N -13.639300 -23.651400 -15.361700
O -13.258400 -21.160600 -13.056600
H -13.236400 -23.256500 -18.499700
C -12.974400 -23.409500 -17.620700
H -12.436100 -19.057400 -13.586900
C -12.336200 -23.767400 -15.078300
N -12.325700 -25.050200 -12.963400
C -12.114100 -20.814600 -13.144800
C -12.015600 -23.975500 -13.653800
N -11.868800 -24.845100 -11.698200
O -11.705600 -19.595600 -13.359000
N -11.681500 -23.556500 -17.357700
N -11.381200 -23.125400 -12.838200
C -11.360700 -23.740900 -16.066600
N -11.299800 -23.688400 -11.610000
C -10.940600 -21.760400 -13.057100
H -10.428500 -21.714900 -13.879900
H -10.361700 -21.488200 -12.328100
C -9.934100 -23.916300 -15.782900
N -9.452900 -24.677500 -14.808900
N -8.957700 -23.326200 -16.506900
N -8.150200 -24.534600 -14.986600
N -7.827600 -23.727900 -15.979300
H -7.461300 -25.908100 -13.710600
O -7.453500 -23.029600 -12.897900
C -7.151300 -25.066300 -14.079600
C -6.892100 -24.100500 -12.973800
H -6.327800 -25.233900 -14.564700
O -5.997400 -24.539000 -12.132500
H -5.705100 -23.766900 -11.438200
H -8.619000 -27.796300 -22.314200
C -7.725200 -27.715200 -22.070100
N -7.420600 -27.538900 -20.787800
O -7.039700 -30.029700 -18.482700
H -7.017700 -27.933800 -23.925800
C -6.755700 -27.780800 -23.046800
H -6.217400 -32.132900 -19.013000
C -6.117500 -27.422900 -20.504400
N -6.107000 -26.140100 -18.389400
C -5.895400 -30.375700 -18.570900
C -5.796900 -27.214800 -19.079900
N -5.650100 -26.345200 -17.124300
O -5.486900 -31.594700 -18.785100
N -5.462900 -27.633800 -22.783800
N -5.162500 -28.064900 -18.264300
C -5.142000 -27.449400 -21.492700
N -5.081100 -27.501900 -17.036100
C -4.721900 -29.429900 -18.483200
H -4.209800 -29.475400 -19.306000
H -4.143000 -29.702100 -17.754200
C -3.715400 -27.274000 -21.208900
N -3.234200 -26.512800 -20.235000
N -2.739000 -27.864100 -21.933000
N -1.931500 -26.655700 -20.412700
N -1.608900 -27.462400 -21.405400
H -1.242600 -25.282200 -19.136700
O -1.234800 -28.160700 -18.324000
C -0.932600 -26.124000 -19.505700
C -0.673400 -27.089800 -18.399900
H -0.109100 -25.956400 -19.990800
O 0.221300 -26.651300 -17.558600
H 0.513600 -27.423400 -16.864300
