6
Fragment
H -10.955300 -23.124400 -39.223600
H -10.916000 -21.530300 -39.087900
C -10.396100 -22.355100 -38.988900
H -10.094800 -22.443100 -38.061000
C -9.239200 -22.307100 -39.872700
N -8.341400 -22.258700 -40.565400
37
Fragment
O -18.316900 -27.962600 -35.879800
O -18.057700 -28.312600 -38.008100
N -17.695900 -27.900700 -36.919200
N -16.466900 -27.265500 -36.926100
O -16.145400 -26.926900 -34.646500
H -16.057100 -27.365900 -37.672600
C -15.749400 -26.999800 -35.768100
O -14.496200 -26.763500 -36.179900
H -13.896700 -25.551900 -34.695700
C -13.571900 -26.412900 -35.131000
H -13.477400 -27.175800 -34.530800
O -12.841600 -23.969500 -36.383200
N -12.452700 -25.034800 -36.835700
H -12.432600 -27.643700 -37.270900
C -12.239600 -26.174000 -35.830400
O -12.230400 -25.253200 -38.022700
C -11.766100 -27.379000 -36.644100
H -11.549800 -24.966500 -34.296700
O -11.538100 -28.423600 -35.677400
O -11.262100 -29.867200 -37.402600
C -11.233700 -25.698100 -34.795500
C -11.218800 -29.605400 -36.235800
H -10.988800 -26.428300 -34.182300
H -10.959100 -27.170800 -37.135200
N -10.900200 -30.456900 -35.192700
H -10.828600 -30.140700 -34.341900
N -10.314800 -31.699300 -35.346700
O -10.144900 -32.335400 -34.323800
O -10.077100 -25.260900 -35.550500
O -10.010100 -32.065500 -36.452900
O -9.080100 -24.764600 -33.589600
C -9.075800 -24.815200 -34.786500
H -8.148500 -24.551400 -36.512700
N -8.059700 -24.457400 -35.643100
N -6.880100 -23.880100 -35.229100
O -6.767000 -23.496600 -34.086000
O -6.028800 -23.802000 -36.096400
43
Fragment
H -10.955300 -23.124400 -39.223600
H -10.916000 -21.530300 -39.087900
C -10.396100 -22.355100 -38.988900
H -10.094800 -22.443100 -38.061000
C -9.239200 -22.307100 -39.872700
N -8.341400 -22.258700 -40.565400
O -18.316900 -27.962600 -35.879800
O -18.057700 -28.312600 -38.008100
N -17.695900 -27.900700 -36.919200
N -16.466900 -27.265500 -36.926100
O -16.145400 -26.926900 -34.646500
H -16.057100 -27.365900 -37.672600
C -15.749400 -26.999800 -35.768100
O -14.496200 -26.763500 -36.179900
H -13.896700 -25.551900 -34.695700
C -13.571900 -26.412900 -35.131000
H -13.477400 -27.175800 -34.530800
O -12.841600 -23.969500 -36.383200
N -12.452700 -25.034800 -36.835700
H -12.432600 -27.643700 -37.270900
C -12.239600 -26.174000 -35.830400
O -12.230400 -25.253200 -38.022700
C -11.766100 -27.379000 -36.644100
H -11.549800 -24.966500 -34.296700
O -11.538100 -28.423600 -35.677400
O -11.262100 -29.867200 -37.402600
C -11.233700 -25.698100 -34.795500
C -11.218800 -29.605400 -36.235800
H -10.988800 -26.428300 -34.182300
H -10.959100 -27.170800 -37.135200
N -10.900200 -30.456900 -35.192700
H -10.828600 -30.140700 -34.341900
N -10.314800 -31.699300 -35.346700
O -10.144900 -32.335400 -34.323800
O -10.077100 -25.260900 -35.550500
O -10.010100 -32.065500 -36.452900
O -9.080100 -24.764600 -33.589600
C -9.075800 -24.815200 -34.786500
H -8.148500 -24.551400 -36.512700
N -8.059700 -24.457400 -35.643100
N -6.880100 -23.880100 -35.229100
O -6.767000 -23.496600 -34.086000
O -6.028800 -23.802000 -36.096400
