6
Fragment
H -10.955300 -23.124400 -39.223600
H -10.916000 -21.530300 -39.087900
C -10.396100 -22.355100 -38.988900
H -10.094800 -22.443100 -38.061000
C -9.239200 -22.307100 -39.872700
N -8.341400 -22.258700 -40.565400
37
Fragment
O -23.690300 -17.739000 -35.350700
O -23.509200 -16.966100 -37.368300
N -23.077000 -17.518600 -36.370100
N -21.783900 -17.958900 -36.470700
H -21.438300 -17.880700 -37.249600
O -21.426400 -18.702100 -34.309500
C -21.055800 -18.469400 -35.420700
O -19.819600 -18.682100 -35.896600
H -19.183300 -19.931200 -34.472300
C -18.867300 -19.116100 -34.905100
H -18.737900 -18.409900 -34.264800
O -18.117800 -21.597400 -36.141300
N -17.819400 -20.521700 -36.631400
H -17.773200 -17.890600 -37.108600
O -17.714200 -20.301800 -37.828200
C -17.574200 -19.364200 -35.659000
C -17.126600 -18.170600 -36.503700
H -16.875100 -20.519900 -34.081200
O -16.871900 -17.117100 -35.561400
O -16.592100 -15.679700 -37.295900
C -16.544900 -15.936900 -36.132800
C -16.532200 -19.827400 -34.644100
H -16.318200 -18.355300 -36.988900
H -16.225900 -19.063000 -34.086500
N -16.167700 -15.111900 -35.084100
H -15.984300 -15.486200 -34.280700
N -15.548800 -13.882600 -35.227800
O -15.535600 -13.382200 -36.327300
O -15.409100 -20.304600 -35.424700
O -15.088400 -13.411400 -34.199100
C -14.391500 -20.748300 -34.678700
O -14.369300 -20.796100 -33.483400
H -13.428200 -20.893600 -36.374400
N -13.393300 -21.121800 -35.563500
N -12.155300 -21.564300 -35.146900
O -12.029100 -22.018100 -34.025300
O -11.279900 -21.484300 -35.993700
43
Fragment
H -10.955300 -23.124400 -39.223600
H -10.916000 -21.530300 -39.087900
C -10.396100 -22.355100 -38.988900
H -10.094800 -22.443100 -38.061000
C -9.239200 -22.307100 -39.872700
N -8.341400 -22.258700 -40.565400
O -23.690300 -17.739000 -35.350700
O -23.509200 -16.966100 -37.368300
N -23.077000 -17.518600 -36.370100
N -21.783900 -17.958900 -36.470700
H -21.438300 -17.880700 -37.249600
O -21.426400 -18.702100 -34.309500
C -21.055800 -18.469400 -35.420700
O -19.819600 -18.682100 -35.896600
H -19.183300 -19.931200 -34.472300
C -18.867300 -19.116100 -34.905100
H -18.737900 -18.409900 -34.264800
O -18.117800 -21.597400 -36.141300
N -17.819400 -20.521700 -36.631400
H -17.773200 -17.890600 -37.108600
O -17.714200 -20.301800 -37.828200
C -17.574200 -19.364200 -35.659000
C -17.126600 -18.170600 -36.503700
H -16.875100 -20.519900 -34.081200
O -16.871900 -17.117100 -35.561400
O -16.592100 -15.679700 -37.295900
C -16.544900 -15.936900 -36.132800
C -16.532200 -19.827400 -34.644100
H -16.318200 -18.355300 -36.988900
H -16.225900 -19.063000 -34.086500
N -16.167700 -15.111900 -35.084100
H -15.984300 -15.486200 -34.280700
N -15.548800 -13.882600 -35.227800
O -15.535600 -13.382200 -36.327300
O -15.409100 -20.304600 -35.424700
O -15.088400 -13.411400 -34.199100
C -14.391500 -20.748300 -34.678700
O -14.369300 -20.796100 -33.483400
H -13.428200 -20.893600 -36.374400
N -13.393300 -21.121800 -35.563500
N -12.155300 -21.564300 -35.146900
O -12.029100 -22.018100 -34.025300
O -11.279900 -21.484300 -35.993700
