6
Fragment
H -10.955300 -23.124400 -39.223600
H -10.916000 -21.530300 -39.087900
C -10.396100 -22.355100 -38.988900
H -10.094800 -22.443100 -38.061000
C -9.239200 -22.307100 -39.872700
N -8.341400 -22.258700 -40.565400
37
Fragment
O -17.078300 -25.806900 -43.712800
O -16.340000 -26.112300 -45.723200
N -16.227000 -25.728800 -44.580100
N -15.047300 -25.151500 -44.166200
H -14.958600 -25.057500 -43.296500
C -14.031200 -24.793700 -45.022800
O -14.026900 -24.844300 -46.219700
O -13.097000 -17.543400 -43.356400
O -13.029900 -24.348000 -44.258700
O -12.962100 -17.273500 -45.485400
N -12.792300 -17.909600 -44.462500
H -12.278400 -19.468200 -45.467300
N -12.206900 -19.152000 -44.616600
H -12.147900 -22.438100 -42.674000
H -12.118200 -23.180600 -45.626900
C -11.888300 -20.003500 -43.573400
C -11.873400 -23.910800 -45.013700
O -11.844900 -19.741700 -42.406600
O -11.569000 -21.185300 -44.131800
H -11.557200 -24.642400 -45.512500
C -11.341000 -22.229900 -43.165100
O -10.876700 -24.355700 -41.786500
C -10.867500 -23.434900 -43.978900
H -10.674500 -21.965200 -42.538300
N -10.654300 -24.574100 -42.973500
O -10.265500 -25.639400 -43.426100
H -9.629700 -22.433100 -45.278400
C -9.535200 -23.196000 -44.678300
H -9.210400 -24.057000 -45.113500
O -8.610900 -22.845400 -43.629300
C -7.357600 -22.609100 -44.041100
H -7.050000 -22.243000 -42.136600
O -6.961600 -22.682000 -45.162700
N -6.640100 -22.343400 -42.883100
N -5.411200 -21.708200 -42.890000
O -5.049300 -21.296300 -41.801100
O -4.790200 -21.646300 -43.929400
43
Fragment
H -10.955300 -23.124400 -39.223600
H -10.916000 -21.530300 -39.087900
C -10.396100 -22.355100 -38.988900
H -10.094800 -22.443100 -38.061000
C -9.239200 -22.307100 -39.872700
N -8.341400 -22.258700 -40.565400
O -17.078300 -25.806900 -43.712800
O -16.340000 -26.112300 -45.723200
N -16.227000 -25.728800 -44.580100
N -15.047300 -25.151500 -44.166200
H -14.958600 -25.057500 -43.296500
C -14.031200 -24.793700 -45.022800
O -14.026900 -24.844300 -46.219700
O -13.097000 -17.543400 -43.356400
O -13.029900 -24.348000 -44.258700
O -12.962100 -17.273500 -45.485400
N -12.792300 -17.909600 -44.462500
H -12.278400 -19.468200 -45.467300
N -12.206900 -19.152000 -44.616600
H -12.147900 -22.438100 -42.674000
H -12.118200 -23.180600 -45.626900
C -11.888300 -20.003500 -43.573400
C -11.873400 -23.910800 -45.013700
O -11.844900 -19.741700 -42.406600
O -11.569000 -21.185300 -44.131800
H -11.557200 -24.642400 -45.512500
C -11.341000 -22.229900 -43.165100
O -10.876700 -24.355700 -41.786500
C -10.867500 -23.434900 -43.978900
H -10.674500 -21.965200 -42.538300
N -10.654300 -24.574100 -42.973500
O -10.265500 -25.639400 -43.426100
H -9.629700 -22.433100 -45.278400
C -9.535200 -23.196000 -44.678300
H -9.210400 -24.057000 -45.113500
O -8.610900 -22.845400 -43.629300
C -7.357600 -22.609100 -44.041100
H -7.050000 -22.243000 -42.136600
O -6.961600 -22.682000 -45.162700
N -6.640100 -22.343400 -42.883100
N -5.411200 -21.708200 -42.890000
O -5.049300 -21.296300 -41.801100
O -4.790200 -21.646300 -43.929400
