6
Fragment
H -10.955300 -23.124400 -39.223600
H -10.916000 -21.530300 -39.087900
C -10.396100 -22.355100 -38.988900
H -10.094800 -22.443100 -38.061000
C -9.239200 -22.307100 -39.872700
N -8.341400 -22.258700 -40.565400
6
Fragment
H -5.871100 -22.692800 -39.141100
H -5.330800 -24.002400 -38.398900
C -5.137500 -23.341200 -39.095400
C -5.004900 -24.010900 -40.373400
N -4.919500 -24.535700 -41.379800
H -4.302500 -22.874700 -38.880400
12
Fragment
H -10.955300 -23.124400 -39.223600
H -10.916000 -21.530300 -39.087900
C -10.396100 -22.355100 -38.988900
H -10.094800 -22.443100 -38.061000
C -9.239200 -22.307100 -39.872700
N -8.341400 -22.258700 -40.565400
H -5.871100 -22.692800 -39.141100
H -5.330800 -24.002400 -38.398900
C -5.137500 -23.341200 -39.095400
C -5.004900 -24.010900 -40.373400
N -4.919500 -24.535700 -41.379800
H -4.302500 -22.874700 -38.880400
