6
Fragment
H -10.955300 -23.124400 -39.223600
H -10.916000 -21.530300 -39.087900
C -10.396100 -22.355100 -38.988900
H -10.094800 -22.443100 -38.061000
C -9.239200 -22.307100 -39.872700
N -8.341400 -22.258700 -40.565400
37
Fragment
O -13.860600 -17.739000 -35.350700
O -13.679500 -16.966100 -37.368300
N -13.247300 -17.518600 -36.370100
N -11.954200 -17.958900 -36.470700
H -11.608600 -17.880700 -37.249600
O -11.596700 -18.702100 -34.309500
C -11.226100 -18.469400 -35.420700
O -9.989900 -18.682100 -35.896600
H -9.353600 -19.931200 -34.472300
C -9.037600 -19.116100 -34.905100
H -8.908200 -18.409900 -34.264800
O -8.288100 -21.597400 -36.141300
N -7.989700 -20.521700 -36.631400
H -7.943500 -17.890600 -37.108600
O -7.884500 -20.301800 -37.828200
C -7.744500 -19.364200 -35.659000
C -7.296900 -18.170600 -36.503700
H -7.045400 -20.519900 -34.081200
O -7.042200 -17.117100 -35.561400
O -6.762400 -15.679700 -37.295900
C -6.715200 -15.936900 -36.132800
C -6.702500 -19.827400 -34.644100
H -6.488500 -18.355300 -36.988900
H -6.396200 -19.063000 -34.086500
N -6.338000 -15.111900 -35.084100
H -6.154600 -15.486200 -34.280700
N -5.719100 -13.882600 -35.227800
O -5.705900 -13.382200 -36.327300
O -5.579400 -20.304600 -35.424700
O -5.258700 -13.411400 -34.199100
C -4.561800 -20.748300 -34.678700
O -4.539600 -20.796100 -33.483400
H -3.598500 -20.893600 -36.374400
N -3.563600 -21.121800 -35.563500
N -2.325600 -21.564300 -35.146900
O -2.199400 -22.018100 -34.025300
O -1.450200 -21.484300 -35.993700
43
Fragment
H -10.955300 -23.124400 -39.223600
H -10.916000 -21.530300 -39.087900
C -10.396100 -22.355100 -38.988900
H -10.094800 -22.443100 -38.061000
C -9.239200 -22.307100 -39.872700
N -8.341400 -22.258700 -40.565400
O -13.860600 -17.739000 -35.350700
O -13.679500 -16.966100 -37.368300
N -13.247300 -17.518600 -36.370100
N -11.954200 -17.958900 -36.470700
H -11.608600 -17.880700 -37.249600
O -11.596700 -18.702100 -34.309500
C -11.226100 -18.469400 -35.420700
O -9.989900 -18.682100 -35.896600
H -9.353600 -19.931200 -34.472300
C -9.037600 -19.116100 -34.905100
H -8.908200 -18.409900 -34.264800
O -8.288100 -21.597400 -36.141300
N -7.989700 -20.521700 -36.631400
H -7.943500 -17.890600 -37.108600
O -7.884500 -20.301800 -37.828200
C -7.744500 -19.364200 -35.659000
C -7.296900 -18.170600 -36.503700
H -7.045400 -20.519900 -34.081200
O -7.042200 -17.117100 -35.561400
O -6.762400 -15.679700 -37.295900
C -6.715200 -15.936900 -36.132800
C -6.702500 -19.827400 -34.644100
H -6.488500 -18.355300 -36.988900
H -6.396200 -19.063000 -34.086500
N -6.338000 -15.111900 -35.084100
H -6.154600 -15.486200 -34.280700
N -5.719100 -13.882600 -35.227800
O -5.705900 -13.382200 -36.327300
O -5.579400 -20.304600 -35.424700
O -5.258700 -13.411400 -34.199100
C -4.561800 -20.748300 -34.678700
O -4.539600 -20.796100 -33.483400
H -3.598500 -20.893600 -36.374400
N -3.563600 -21.121800 -35.563500
N -2.325600 -21.564300 -35.146900
O -2.199400 -22.018100 -34.025300
O -1.450200 -21.484300 -35.993700
