6
Fragment
H -10.955300 -23.124400 -39.223600
H -10.916000 -21.530300 -39.087900
C -10.396100 -22.355100 -38.988900
H -10.094800 -22.443100 -38.061000
C -9.239200 -22.307100 -39.872700
N -8.341400 -22.258700 -40.565400
6
Fragment
H -15.017400 -18.581800 -40.545800
C -14.075400 -18.541700 -40.278900
H -13.854900 -17.627700 -40.000400
C -13.845800 -19.458600 -39.166900
N -13.660100 -20.164400 -38.293500
H -13.509700 -18.798500 -41.035200
12
Fragment
H -10.955300 -23.124400 -39.223600
H -10.916000 -21.530300 -39.087900
C -10.396100 -22.355100 -38.988900
H -10.094800 -22.443100 -38.061000
C -9.239200 -22.307100 -39.872700
N -8.341400 -22.258700 -40.565400
H -15.017400 -18.581800 -40.545800
C -14.075400 -18.541700 -40.278900
H -13.854900 -17.627700 -40.000400
C -13.845800 -19.458600 -39.166900
N -13.660100 -20.164400 -38.293500
H -13.509700 -18.798500 -41.035200
