38
Fragment
O -18.642100 -15.769700 -21.044000
H -17.918700 -12.301300 -23.398600
H -17.614700 -13.675600 -21.921700
C -17.585600 -15.803700 -20.475900
O -17.367500 -16.725400 -19.534600
H -17.255000 -11.331400 -24.436000
C -17.113300 -12.102200 -23.882000
H -17.089600 -10.830800 -21.497700
H -16.875900 -12.852500 -24.431700
C -16.716500 -13.842800 -21.627700
C -16.482000 -14.893800 -20.805200
H -16.425900 -9.860900 -22.535100
H -16.354000 -15.739000 -18.162300
C -16.294100 -10.649300 -22.003700
C -16.208600 -16.519100 -18.703600
H -16.106900 -17.272600 -18.118500
C -15.986600 -11.827200 -22.906800
N -15.738400 -13.020300 -22.040400
H -15.557300 -10.511800 -21.404400
H -15.365900 -17.643400 -20.994600
N -15.184800 -15.135000 -20.358600
C -14.936600 -16.328000 -19.492200
H -14.816300 -10.882600 -24.280500
C -14.714500 -11.636200 -23.695400
C -14.629000 -17.505900 -20.395300
H -14.569200 -12.416200 -24.236700
H -14.497300 -18.294300 -19.863900
C -14.441100 -13.261400 -21.593800
C -14.206700 -14.312500 -20.771300
H -14.047300 -15.302700 -17.967300
H -13.833600 -17.324400 -20.901300
C -13.809900 -16.053000 -18.517100
H -13.668100 -16.823800 -17.963100
O -13.555600 -11.429900 -22.864400
C -13.337600 -12.351500 -21.923100
H -13.308500 -14.479700 -20.477300
H -13.004500 -15.853900 -19.000400
O -12.281100 -12.385500 -21.355000
38
Fragment
O -23.575900 -7.341000 -21.044000
H -22.852400 -3.872600 -23.398600
H -22.548500 -5.246900 -21.921700
C -22.519400 -7.375100 -20.475900
O -22.301300 -8.296700 -19.534600
H -22.188800 -2.902700 -24.436000
C -22.047100 -3.673600 -23.882000
H -22.023300 -2.402200 -21.497700
H -21.809700 -4.423800 -24.431700
C -21.650200 -5.414100 -21.627700
C -21.415800 -6.465100 -20.805200
H -21.359700 -1.432300 -22.535100
H -21.287700 -7.310400 -18.162300
C -21.227900 -2.220600 -22.003700
C -21.142400 -8.090400 -18.703600
H -21.040600 -8.843900 -18.118500
C -20.920400 -3.398500 -22.906800
N -20.672200 -4.591600 -22.040400
H -20.491100 -2.083100 -21.404400
H -20.299600 -9.214700 -20.994600
N -20.118600 -6.706300 -20.358600
C -19.870300 -7.899300 -19.492200
H -19.750100 -2.453900 -24.280500
C -19.648300 -3.207500 -23.695400
C -19.562800 -9.077300 -20.395300
H -19.503000 -3.987500 -24.236700
H -19.431000 -9.865600 -19.863900
C -19.374900 -4.832800 -21.593800
C -19.140500 -5.883800 -20.771300
H -18.981100 -6.874000 -17.967300
H -18.767400 -8.895700 -20.901300
C -18.743600 -7.624300 -18.517100
H -18.601900 -8.395100 -17.963100
O -18.489400 -3.001200 -22.864400
C -18.271300 -3.922800 -21.923100
H -18.242200 -6.051000 -20.477300
H -17.938300 -7.425200 -19.000400
O -17.214900 -3.956900 -21.355000
76
Fragment
O -18.642100 -15.769700 -21.044000
H -17.918700 -12.301300 -23.398600
H -17.614700 -13.675600 -21.921700
C -17.585600 -15.803700 -20.475900
O -17.367500 -16.725400 -19.534600
H -17.255000 -11.331400 -24.436000
C -17.113300 -12.102200 -23.882000
H -17.089600 -10.830800 -21.497700
H -16.875900 -12.852500 -24.431700
C -16.716500 -13.842800 -21.627700
C -16.482000 -14.893800 -20.805200
H -16.425900 -9.860900 -22.535100
H -16.354000 -15.739000 -18.162300
C -16.294100 -10.649300 -22.003700
C -16.208600 -16.519100 -18.703600
H -16.106900 -17.272600 -18.118500
C -15.986600 -11.827200 -22.906800
N -15.738400 -13.020300 -22.040400
H -15.557300 -10.511800 -21.404400
H -15.365900 -17.643400 -20.994600
N -15.184800 -15.135000 -20.358600
C -14.936600 -16.328000 -19.492200
H -14.816300 -10.882600 -24.280500
C -14.714500 -11.636200 -23.695400
C -14.629000 -17.505900 -20.395300
H -14.569200 -12.416200 -24.236700
H -14.497300 -18.294300 -19.863900
C -14.441100 -13.261400 -21.593800
C -14.206700 -14.312500 -20.771300
H -14.047300 -15.302700 -17.967300
H -13.833600 -17.324400 -20.901300
C -13.809900 -16.053000 -18.517100
H -13.668100 -16.823800 -17.963100
O -13.555600 -11.429900 -22.864400
C -13.337600 -12.351500 -21.923100
H -13.308500 -14.479700 -20.477300
H -13.004500 -15.853900 -19.000400
O -12.281100 -12.385500 -21.355000
O -23.575900 -7.341000 -21.044000
H -22.852400 -3.872600 -23.398600
H -22.548500 -5.246900 -21.921700
C -22.519400 -7.375100 -20.475900
O -22.301300 -8.296700 -19.534600
H -22.188800 -2.902700 -24.436000
C -22.047100 -3.673600 -23.882000
H -22.023300 -2.402200 -21.497700
H -21.809700 -4.423800 -24.431700
C -21.650200 -5.414100 -21.627700
C -21.415800 -6.465100 -20.805200
H -21.359700 -1.432300 -22.535100
H -21.287700 -7.310400 -18.162300
C -21.227900 -2.220600 -22.003700
C -21.142400 -8.090400 -18.703600
H -21.040600 -8.843900 -18.118500
C -20.920400 -3.398500 -22.906800
N -20.672200 -4.591600 -22.040400
H -20.491100 -2.083100 -21.404400
H -20.299600 -9.214700 -20.994600
N -20.118600 -6.706300 -20.358600
C -19.870300 -7.899300 -19.492200
H -19.750100 -2.453900 -24.280500
C -19.648300 -3.207500 -23.695400
C -19.562800 -9.077300 -20.395300
H -19.503000 -3.987500 -24.236700
H -19.431000 -9.865600 -19.863900
C -19.374900 -4.832800 -21.593800
C -19.140500 -5.883800 -20.771300
H -18.981100 -6.874000 -17.967300
H -18.767400 -8.895700 -20.901300
C -18.743600 -7.624300 -18.517100
H -18.601900 -8.395100 -17.963100
O -18.489400 -3.001200 -22.864400
C -18.271300 -3.922800 -21.923100
H -18.242200 -6.051000 -20.477300
H -17.938300 -7.425200 -19.000400
O -17.214900 -3.956900 -21.355000
