38
Fragment
O -18.642100 -15.769700 -21.044000
H -17.918700 -12.301300 -23.398600
H -17.614700 -13.675600 -21.921700
C -17.585600 -15.803700 -20.475900
O -17.367500 -16.725400 -19.534600
H -17.255000 -11.331400 -24.436000
C -17.113300 -12.102200 -23.882000
H -17.089600 -10.830800 -21.497700
H -16.875900 -12.852500 -24.431700
C -16.716500 -13.842800 -21.627700
C -16.482000 -14.893800 -20.805200
H -16.425900 -9.860900 -22.535100
H -16.354000 -15.739000 -18.162300
C -16.294100 -10.649300 -22.003700
C -16.208600 -16.519100 -18.703600
H -16.106900 -17.272600 -18.118500
C -15.986600 -11.827200 -22.906800
N -15.738400 -13.020300 -22.040400
H -15.557300 -10.511800 -21.404400
H -15.365900 -17.643400 -20.994600
N -15.184800 -15.135000 -20.358600
C -14.936600 -16.328000 -19.492200
H -14.816300 -10.882600 -24.280500
C -14.714500 -11.636200 -23.695400
C -14.629000 -17.505900 -20.395300
H -14.569200 -12.416200 -24.236700
H -14.497300 -18.294300 -19.863900
C -14.441100 -13.261400 -21.593800
C -14.206700 -14.312500 -20.771300
H -14.047300 -15.302700 -17.967300
H -13.833600 -17.324400 -20.901300
C -13.809900 -16.053000 -18.517100
H -13.668100 -16.823800 -17.963100
O -13.555600 -11.429900 -22.864400
C -13.337600 -12.351500 -21.923100
H -13.308500 -14.479700 -20.477300
H -13.004500 -15.853900 -19.000400
O -12.281100 -12.385500 -21.355000
20
Fragment
N -17.500600 -23.226700 -9.761700
C -17.091600 -23.656200 -10.741100
N -16.640900 -26.751700 -12.117600
C -16.610400 -25.610700 -12.058300
C -16.597300 -24.189800 -11.962200
H -16.460800 -21.550200 -12.103500
C -16.113500 -23.383700 -12.991100
C -16.111500 -21.960500 -12.897800
H -15.655500 -20.230400 -13.798100
C -15.639500 -21.185600 -13.889900
C -15.587100 -23.959300 -14.185300
H -15.578300 -24.914500 -14.275800
C -15.101900 -21.762800 -15.082700
C -15.098300 -23.189400 -15.176000
H -14.740200 -23.602600 -15.964600
N -14.646000 -18.419100 -16.028200
C -14.623400 -19.562200 -16.067800
C -14.594300 -20.982600 -16.120100
C -14.035300 -21.565500 -17.298800
N -13.573400 -22.065300 -18.220300
58
Fragment
O -18.642100 -15.769700 -21.044000
H -17.918700 -12.301300 -23.398600
H -17.614700 -13.675600 -21.921700
C -17.585600 -15.803700 -20.475900
O -17.367500 -16.725400 -19.534600
H -17.255000 -11.331400 -24.436000
C -17.113300 -12.102200 -23.882000
H -17.089600 -10.830800 -21.497700
H -16.875900 -12.852500 -24.431700
C -16.716500 -13.842800 -21.627700
C -16.482000 -14.893800 -20.805200
H -16.425900 -9.860900 -22.535100
H -16.354000 -15.739000 -18.162300
C -16.294100 -10.649300 -22.003700
C -16.208600 -16.519100 -18.703600
H -16.106900 -17.272600 -18.118500
C -15.986600 -11.827200 -22.906800
N -15.738400 -13.020300 -22.040400
H -15.557300 -10.511800 -21.404400
H -15.365900 -17.643400 -20.994600
N -15.184800 -15.135000 -20.358600
C -14.936600 -16.328000 -19.492200
H -14.816300 -10.882600 -24.280500
C -14.714500 -11.636200 -23.695400
C -14.629000 -17.505900 -20.395300
H -14.569200 -12.416200 -24.236700
H -14.497300 -18.294300 -19.863900
C -14.441100 -13.261400 -21.593800
C -14.206700 -14.312500 -20.771300
H -14.047300 -15.302700 -17.967300
H -13.833600 -17.324400 -20.901300
C -13.809900 -16.053000 -18.517100
H -13.668100 -16.823800 -17.963100
O -13.555600 -11.429900 -22.864400
C -13.337600 -12.351500 -21.923100
H -13.308500 -14.479700 -20.477300
H -13.004500 -15.853900 -19.000400
O -12.281100 -12.385500 -21.355000
N -17.500600 -23.226700 -9.761700
C -17.091600 -23.656200 -10.741100
N -16.640900 -26.751700 -12.117600
C -16.610400 -25.610700 -12.058300
C -16.597300 -24.189800 -11.962200
H -16.460800 -21.550200 -12.103500
C -16.113500 -23.383700 -12.991100
C -16.111500 -21.960500 -12.897800
H -15.655500 -20.230400 -13.798100
C -15.639500 -21.185600 -13.889900
C -15.587100 -23.959300 -14.185300
H -15.578300 -24.914500 -14.275800
C -15.101900 -21.762800 -15.082700
C -15.098300 -23.189400 -15.176000
H -14.740200 -23.602600 -15.964600
N -14.646000 -18.419100 -16.028200
C -14.623400 -19.562200 -16.067800
C -14.594300 -20.982600 -16.120100
C -14.035300 -21.565500 -17.298800
N -13.573400 -22.065300 -18.220300
