38
Fragment
O -18.642100 -15.769700 -21.044000
H -17.918700 -12.301300 -23.398600
H -17.614700 -13.675600 -21.921700
C -17.585600 -15.803700 -20.475900
O -17.367500 -16.725400 -19.534600
H -17.255000 -11.331400 -24.436000
C -17.113300 -12.102200 -23.882000
H -17.089600 -10.830800 -21.497700
H -16.875900 -12.852500 -24.431700
C -16.716500 -13.842800 -21.627700
C -16.482000 -14.893800 -20.805200
H -16.425900 -9.860900 -22.535100
H -16.354000 -15.739000 -18.162300
C -16.294100 -10.649300 -22.003700
C -16.208600 -16.519100 -18.703600
H -16.106900 -17.272600 -18.118500
C -15.986600 -11.827200 -22.906800
N -15.738400 -13.020300 -22.040400
H -15.557300 -10.511800 -21.404400
H -15.365900 -17.643400 -20.994600
N -15.184800 -15.135000 -20.358600
C -14.936600 -16.328000 -19.492200
H -14.816300 -10.882600 -24.280500
C -14.714500 -11.636200 -23.695400
C -14.629000 -17.505900 -20.395300
H -14.569200 -12.416200 -24.236700
H -14.497300 -18.294300 -19.863900
C -14.441100 -13.261400 -21.593800
C -14.206700 -14.312500 -20.771300
H -14.047300 -15.302700 -17.967300
H -13.833600 -17.324400 -20.901300
C -13.809900 -16.053000 -18.517100
H -13.668100 -16.823800 -17.963100
O -13.555600 -11.429900 -22.864400
C -13.337600 -12.351500 -21.923100
H -13.308500 -14.479700 -20.477300
H -13.004500 -15.853900 -19.000400
O -12.281100 -12.385500 -21.355000
20
Fragment
N -17.349800 -6.089900 -24.178700
C -16.887900 -6.589700 -25.100200
C -16.328900 -7.172700 -26.278900
C -16.299800 -8.593100 -26.331200
N -16.277200 -9.736200 -26.370800
H -16.182900 -4.552600 -26.434400
C -15.824900 -4.965900 -27.223000
C -15.821300 -6.392400 -27.316300
H -15.344800 -3.240800 -28.123300
C -15.336100 -4.196000 -28.213700
C -15.283700 -6.969600 -28.509100
H -15.267700 -7.924900 -28.601000
C -14.811700 -6.194700 -29.501200
C -14.809700 -4.771500 -29.408000
H -14.462400 -6.605000 -30.295500
C -14.325900 -3.965400 -30.436800
C -14.312800 -2.544600 -30.340700
N -14.282300 -1.403500 -30.281400
C -13.831600 -4.499000 -31.657900
N -13.422600 -4.928600 -32.637400
58
Fragment
O -18.642100 -15.769700 -21.044000
H -17.918700 -12.301300 -23.398600
H -17.614700 -13.675600 -21.921700
C -17.585600 -15.803700 -20.475900
O -17.367500 -16.725400 -19.534600
H -17.255000 -11.331400 -24.436000
C -17.113300 -12.102200 -23.882000
H -17.089600 -10.830800 -21.497700
H -16.875900 -12.852500 -24.431700
C -16.716500 -13.842800 -21.627700
C -16.482000 -14.893800 -20.805200
H -16.425900 -9.860900 -22.535100
H -16.354000 -15.739000 -18.162300
C -16.294100 -10.649300 -22.003700
C -16.208600 -16.519100 -18.703600
H -16.106900 -17.272600 -18.118500
C -15.986600 -11.827200 -22.906800
N -15.738400 -13.020300 -22.040400
H -15.557300 -10.511800 -21.404400
H -15.365900 -17.643400 -20.994600
N -15.184800 -15.135000 -20.358600
C -14.936600 -16.328000 -19.492200
H -14.816300 -10.882600 -24.280500
C -14.714500 -11.636200 -23.695400
C -14.629000 -17.505900 -20.395300
H -14.569200 -12.416200 -24.236700
H -14.497300 -18.294300 -19.863900
C -14.441100 -13.261400 -21.593800
C -14.206700 -14.312500 -20.771300
H -14.047300 -15.302700 -17.967300
H -13.833600 -17.324400 -20.901300
C -13.809900 -16.053000 -18.517100
H -13.668100 -16.823800 -17.963100
O -13.555600 -11.429900 -22.864400
C -13.337600 -12.351500 -21.923100
H -13.308500 -14.479700 -20.477300
H -13.004500 -15.853900 -19.000400
O -12.281100 -12.385500 -21.355000
N -17.349800 -6.089900 -24.178700
C -16.887900 -6.589700 -25.100200
C -16.328900 -7.172700 -26.278900
C -16.299800 -8.593100 -26.331200
N -16.277200 -9.736200 -26.370800
H -16.182900 -4.552600 -26.434400
C -15.824900 -4.965900 -27.223000
C -15.821300 -6.392400 -27.316300
H -15.344800 -3.240800 -28.123300
C -15.336100 -4.196000 -28.213700
C -15.283700 -6.969600 -28.509100
H -15.267700 -7.924900 -28.601000
C -14.811700 -6.194700 -29.501200
C -14.809700 -4.771500 -29.408000
H -14.462400 -6.605000 -30.295500
C -14.325900 -3.965400 -30.436800
C -14.312800 -2.544600 -30.340700
N -14.282300 -1.403500 -30.281400
C -13.831600 -4.499000 -31.657900
N -13.422600 -4.928600 -32.637400
