26
Fragment
H -11.831300 -13.177000 -25.454500
O -11.507500 -12.847500 -27.971800
H -11.477500 -12.681600 -24.009300
C -11.122200 -12.878300 -24.879700
H -10.883900 -11.535700 -29.713900
C -10.868400 -11.835100 -27.979800
H -10.695300 -8.723900 -23.219200
O -10.553300 -11.168400 -29.060000
C -10.506100 -11.658400 -25.448600
H -10.503700 -8.477800 -20.913100
H -10.457700 -13.567400 -24.806100
C -10.382800 -11.201600 -26.743800
C -10.305700 -9.392200 -22.703900
C -10.190500 -9.247100 -21.333500
N -9.942200 -10.672300 -24.714300
O -9.853300 -9.058000 -18.631700
C -9.834300 -10.538000 -23.287400
N -9.768800 -9.992500 -26.739400
C -9.609200 -10.253300 -20.599800
N -9.503400 -9.653700 -25.508300
N -9.476400 -10.097400 -19.136200
C -9.243100 -11.547300 -22.551400
C -9.136000 -11.401500 -21.181500
O -8.992300 -11.011000 -18.500200
H -8.922900 -12.312700 -22.971900
H -8.749700 -12.069700 -20.663100
26
Fragment
H -15.440800 -13.829700 -32.139000
O -15.117100 -14.159200 -34.656200
H -15.087000 -14.325100 -30.693800
C -14.731700 -14.128400 -31.564100
H -14.493400 -15.471000 -36.398400
C -14.478000 -15.171600 -34.664300
H -14.304900 -18.282800 -29.903700
O -14.162900 -15.838300 -35.744500
C -14.115600 -15.348300 -32.133100
H -14.113300 -18.528900 -27.597600
H -14.067300 -13.439300 -31.490600
C -13.992300 -15.805100 -33.428300
C -13.915300 -17.614500 -29.388300
C -13.800100 -17.759600 -28.018000
N -13.551800 -16.334400 -31.398800
O -13.462900 -17.948700 -25.316100
C -13.443800 -16.468700 -29.971900
N -13.378300 -17.014200 -33.423900
C -13.218800 -16.753400 -27.284300
N -13.113000 -17.353000 -32.192700
N -13.085900 -16.909300 -25.820700
C -12.852700 -15.459400 -29.235900
C -12.745500 -15.605200 -27.866000
O -12.601800 -15.995700 -25.184700
H -12.532500 -14.694000 -29.656400
H -12.359300 -14.937000 -27.347600
52
Fragment
H -11.831300 -13.177000 -25.454500
O -11.507500 -12.847500 -27.971800
H -11.477500 -12.681600 -24.009300
C -11.122200 -12.878300 -24.879700
H -10.883900 -11.535700 -29.713900
C -10.868400 -11.835100 -27.979800
H -10.695300 -8.723900 -23.219200
O -10.553300 -11.168400 -29.060000
C -10.506100 -11.658400 -25.448600
H -10.503700 -8.477800 -20.913100
H -10.457700 -13.567400 -24.806100
C -10.382800 -11.201600 -26.743800
C -10.305700 -9.392200 -22.703900
C -10.190500 -9.247100 -21.333500
N -9.942200 -10.672300 -24.714300
O -9.853300 -9.058000 -18.631700
C -9.834300 -10.538000 -23.287400
N -9.768800 -9.992500 -26.739400
C -9.609200 -10.253300 -20.599800
N -9.503400 -9.653700 -25.508300
N -9.476400 -10.097400 -19.136200
C -9.243100 -11.547300 -22.551400
C -9.136000 -11.401500 -21.181500
O -8.992300 -11.011000 -18.500200
H -8.922900 -12.312700 -22.971900
H -8.749700 -12.069700 -20.663100
H -15.440800 -13.829700 -32.139000
O -15.117100 -14.159200 -34.656200
H -15.087000 -14.325100 -30.693800
C -14.731700 -14.128400 -31.564100
H -14.493400 -15.471000 -36.398400
C -14.478000 -15.171600 -34.664300
H -14.304900 -18.282800 -29.903700
O -14.162900 -15.838300 -35.744500
C -14.115600 -15.348300 -32.133100
H -14.113300 -18.528900 -27.597600
H -14.067300 -13.439300 -31.490600
C -13.992300 -15.805100 -33.428300
C -13.915300 -17.614500 -29.388300
C -13.800100 -17.759600 -28.018000
N -13.551800 -16.334400 -31.398800
O -13.462900 -17.948700 -25.316100
C -13.443800 -16.468700 -29.971900
N -13.378300 -17.014200 -33.423900
C -13.218800 -16.753400 -27.284300
N -13.113000 -17.353000 -32.192700
N -13.085900 -16.909300 -25.820700
C -12.852700 -15.459400 -29.235900
C -12.745500 -15.605200 -27.866000
O -12.601800 -15.995700 -25.184700
H -12.532500 -14.694000 -29.656400
H -12.359300 -14.937000 -27.347600
