26
Fragment
H -11.831300 -13.177000 -25.454500
O -11.507500 -12.847500 -27.971800
H -11.477500 -12.681600 -24.009300
C -11.122200 -12.878300 -24.879700
H -10.883900 -11.535700 -29.713900
C -10.868400 -11.835100 -27.979800
H -10.695300 -8.723900 -23.219200
O -10.553300 -11.168400 -29.060000
C -10.506100 -11.658400 -25.448600
H -10.503700 -8.477800 -20.913100
H -10.457700 -13.567400 -24.806100
C -10.382800 -11.201600 -26.743800
C -10.305700 -9.392200 -22.703900
C -10.190500 -9.247100 -21.333500
N -9.942200 -10.672300 -24.714300
O -9.853300 -9.058000 -18.631700
C -9.834300 -10.538000 -23.287400
N -9.768800 -9.992500 -26.739400
C -9.609200 -10.253300 -20.599800
N -9.503400 -9.653700 -25.508300
N -9.476400 -10.097400 -19.136200
C -9.243100 -11.547300 -22.551400
C -9.136000 -11.401500 -21.181500
O -8.992300 -11.011000 -18.500200
H -8.922900 -12.312700 -22.971900
H -8.749700 -12.069700 -20.663100
26
Fragment
H -16.517100 -8.211600 -26.128300
H -16.343900 -8.454600 -23.819500
O -16.274600 -7.152900 -28.291100
C -16.130900 -7.543400 -25.609900
C -16.023700 -7.689200 -24.239900
N -15.790500 -6.239300 -27.655200
N -15.763400 -5.795600 -21.283100
C -15.657600 -6.395200 -26.191500
N -15.498100 -6.134400 -20.052000
C -15.432600 -6.679900 -23.504000
O -15.413500 -5.199900 -28.159700
N -15.324600 -6.814200 -22.077100
C -15.076300 -5.389000 -25.457900
C -14.961100 -5.534100 -24.087500
C -14.884100 -7.343500 -20.047600
H -14.809100 -9.709300 -21.985300
H -14.763100 -4.619700 -25.878300
C -14.760800 -7.800300 -21.342800
O -14.713500 -7.310300 -17.731400
H -14.571500 -4.865800 -23.572200
C -14.398400 -7.977000 -18.811600
H -14.383000 -7.677600 -17.077500
C -14.144700 -9.020200 -21.911700
H -13.789400 -8.823500 -22.782100
O -13.759300 -8.989400 -18.819600
H -13.435600 -9.318900 -21.336900
52
Fragment
H -11.831300 -13.177000 -25.454500
O -11.507500 -12.847500 -27.971800
H -11.477500 -12.681600 -24.009300
C -11.122200 -12.878300 -24.879700
H -10.883900 -11.535700 -29.713900
C -10.868400 -11.835100 -27.979800
H -10.695300 -8.723900 -23.219200
O -10.553300 -11.168400 -29.060000
C -10.506100 -11.658400 -25.448600
H -10.503700 -8.477800 -20.913100
H -10.457700 -13.567400 -24.806100
C -10.382800 -11.201600 -26.743800
C -10.305700 -9.392200 -22.703900
C -10.190500 -9.247100 -21.333500
N -9.942200 -10.672300 -24.714300
O -9.853300 -9.058000 -18.631700
C -9.834300 -10.538000 -23.287400
N -9.768800 -9.992500 -26.739400
C -9.609200 -10.253300 -20.599800
N -9.503400 -9.653700 -25.508300
N -9.476400 -10.097400 -19.136200
C -9.243100 -11.547300 -22.551400
C -9.136000 -11.401500 -21.181500
O -8.992300 -11.011000 -18.500200
H -8.922900 -12.312700 -22.971900
H -8.749700 -12.069700 -20.663100
H -16.517100 -8.211600 -26.128300
H -16.343900 -8.454600 -23.819500
O -16.274600 -7.152900 -28.291100
C -16.130900 -7.543400 -25.609900
C -16.023700 -7.689200 -24.239900
N -15.790500 -6.239300 -27.655200
N -15.763400 -5.795600 -21.283100
C -15.657600 -6.395200 -26.191500
N -15.498100 -6.134400 -20.052000
C -15.432600 -6.679900 -23.504000
O -15.413500 -5.199900 -28.159700
N -15.324600 -6.814200 -22.077100
C -15.076300 -5.389000 -25.457900
C -14.961100 -5.534100 -24.087500
C -14.884100 -7.343500 -20.047600
H -14.809100 -9.709300 -21.985300
H -14.763100 -4.619700 -25.878300
C -14.760800 -7.800300 -21.342800
O -14.713500 -7.310300 -17.731400
H -14.571500 -4.865800 -23.572200
C -14.398400 -7.977000 -18.811600
H -14.383000 -7.677600 -17.077500
C -14.144700 -9.020200 -21.911700
H -13.789400 -8.823500 -22.782100
O -13.759300 -8.989400 -18.819600
H -13.435600 -9.318900 -21.336900
