26
Fragment
H -11.831300 -13.177000 -25.454500
O -11.507500 -12.847500 -27.971800
H -11.477500 -12.681600 -24.009300
C -11.122200 -12.878300 -24.879700
H -10.883900 -11.535700 -29.713900
C -10.868400 -11.835100 -27.979800
H -10.695300 -8.723900 -23.219200
O -10.553300 -11.168400 -29.060000
C -10.506100 -11.658400 -25.448600
H -10.503700 -8.477800 -20.913100
H -10.457700 -13.567400 -24.806100
C -10.382800 -11.201600 -26.743800
C -10.305700 -9.392200 -22.703900
C -10.190500 -9.247100 -21.333500
N -9.942200 -10.672300 -24.714300
O -9.853300 -9.058000 -18.631700
C -9.834300 -10.538000 -23.287400
N -9.768800 -9.992500 -26.739400
C -9.609200 -10.253300 -20.599800
N -9.503400 -9.653700 -25.508300
N -9.476400 -10.097400 -19.136200
C -9.243100 -11.547300 -22.551400
C -9.136000 -11.401500 -21.181500
O -8.992300 -11.011000 -18.500200
H -8.922900 -12.312700 -22.971900
H -8.749700 -12.069700 -20.663100
26
Fragment
H -8.221700 -6.113500 -18.770000
O -7.898000 -6.443000 -21.287300
H -7.867900 -6.608900 -17.324800
C -7.512600 -6.412200 -18.195200
H -7.274300 -7.754800 -23.029400
C -7.258900 -7.455400 -21.295300
H -7.085800 -10.566600 -16.534700
O -6.943800 -8.122100 -22.375500
C -6.896500 -7.632100 -18.764100
H -6.894200 -10.812700 -14.228600
H -6.848200 -5.723100 -18.121600
C -6.773200 -8.088900 -20.059300
C -6.696200 -9.898300 -16.019400
C -6.581000 -10.043400 -14.649000
N -6.332700 -8.618200 -18.029800
O -6.243800 -10.232500 -11.947200
C -6.224700 -8.752500 -16.602900
N -6.159200 -9.298000 -20.054900
C -5.999700 -9.037200 -13.915400
N -5.893900 -9.636800 -18.823800
N -5.866800 -9.193100 -12.451700
C -5.633600 -7.743200 -15.867000
C -5.526400 -7.889000 -14.497000
O -5.382700 -8.279500 -11.815800
H -5.313400 -6.977800 -16.287400
H -5.140200 -7.220800 -13.978600
52
Fragment
H -11.831300 -13.177000 -25.454500
O -11.507500 -12.847500 -27.971800
H -11.477500 -12.681600 -24.009300
C -11.122200 -12.878300 -24.879700
H -10.883900 -11.535700 -29.713900
C -10.868400 -11.835100 -27.979800
H -10.695300 -8.723900 -23.219200
O -10.553300 -11.168400 -29.060000
C -10.506100 -11.658400 -25.448600
H -10.503700 -8.477800 -20.913100
H -10.457700 -13.567400 -24.806100
C -10.382800 -11.201600 -26.743800
C -10.305700 -9.392200 -22.703900
C -10.190500 -9.247100 -21.333500
N -9.942200 -10.672300 -24.714300
O -9.853300 -9.058000 -18.631700
C -9.834300 -10.538000 -23.287400
N -9.768800 -9.992500 -26.739400
C -9.609200 -10.253300 -20.599800
N -9.503400 -9.653700 -25.508300
N -9.476400 -10.097400 -19.136200
C -9.243100 -11.547300 -22.551400
C -9.136000 -11.401500 -21.181500
O -8.992300 -11.011000 -18.500200
H -8.922900 -12.312700 -22.971900
H -8.749700 -12.069700 -20.663100
H -8.221700 -6.113500 -18.770000
O -7.898000 -6.443000 -21.287300
H -7.867900 -6.608900 -17.324800
C -7.512600 -6.412200 -18.195200
H -7.274300 -7.754800 -23.029400
C -7.258900 -7.455400 -21.295300
H -7.085800 -10.566600 -16.534700
O -6.943800 -8.122100 -22.375500
C -6.896500 -7.632100 -18.764100
H -6.894200 -10.812700 -14.228600
H -6.848200 -5.723100 -18.121600
C -6.773200 -8.088900 -20.059300
C -6.696200 -9.898300 -16.019400
C -6.581000 -10.043400 -14.649000
N -6.332700 -8.618200 -18.029800
O -6.243800 -10.232500 -11.947200
C -6.224700 -8.752500 -16.602900
N -6.159200 -9.298000 -20.054900
C -5.999700 -9.037200 -13.915400
N -5.893900 -9.636800 -18.823800
N -5.866800 -9.193100 -12.451700
C -5.633600 -7.743200 -15.867000
C -5.526400 -7.889000 -14.497000
O -5.382700 -8.279500 -11.815800
H -5.313400 -6.977800 -16.287400
H -5.140200 -7.220800 -13.978600
