21
Fragment
H -38.873000 -16.624300 -10.624400
H -38.545300 -14.326500 -10.629000
C -38.077200 -16.277300 -10.959400
C -37.895300 -14.905500 -10.959400
H -37.287800 -18.059900 -11.400800
C -37.125000 -17.144400 -11.437000
C -36.697100 -14.437700 -11.476200
N -36.254300 -13.122000 -11.641800
C -35.935200 -16.693900 -11.968400
C -35.743600 -15.323200 -11.965300
H -35.382600 -10.550600 -11.969900
H -35.297600 -17.277800 -12.309600
C -35.097900 -13.265100 -12.204900
N -34.699300 -14.537200 -12.422800
C -34.612900 -10.854100 -12.396600
N -34.302700 -12.167900 -12.580000
H -33.958100 -14.801100 -12.771000
N -33.704200 -10.089400 -12.888800
C -33.131600 -12.135000 -13.250800
N -32.743700 -10.911100 -13.444100
H -32.665900 -12.888000 -13.535800
21
Fragment
H -46.932200 -12.888000 -5.719600
N -46.854400 -10.911100 -5.811300
C -46.466500 -12.135000 -6.004600
N -45.893900 -10.089400 -6.366600
H -45.640000 -14.801100 -6.484500
N -45.295400 -12.167900 -6.675500
C -44.985300 -10.854100 -6.858800
N -44.898800 -14.537200 -6.832600
C -44.500200 -13.265100 -7.050600
H -44.300600 -17.277800 -6.945800
H -44.215500 -10.550600 -7.285500
C -43.854500 -15.323200 -7.290100
C -43.663000 -16.693900 -7.287000
N -43.343800 -13.122000 -7.613600
C -42.901000 -14.437700 -7.779200
C -42.473100 -17.144400 -7.818500
H -42.310300 -18.059900 -7.854700
C -41.702800 -14.905500 -8.296000
C -41.520900 -16.277300 -8.296000
H -41.052800 -14.326500 -8.626400
H -40.725100 -16.624300 -8.631100
42
Fragment
H -38.873000 -16.624300 -10.624400
H -38.545300 -14.326500 -10.629000
C -38.077200 -16.277300 -10.959400
C -37.895300 -14.905500 -10.959400
H -37.287800 -18.059900 -11.400800
C -37.125000 -17.144400 -11.437000
C -36.697100 -14.437700 -11.476200
N -36.254300 -13.122000 -11.641800
C -35.935200 -16.693900 -11.968400
C -35.743600 -15.323200 -11.965300
H -35.382600 -10.550600 -11.969900
H -35.297600 -17.277800 -12.309600
C -35.097900 -13.265100 -12.204900
N -34.699300 -14.537200 -12.422800
C -34.612900 -10.854100 -12.396600
N -34.302700 -12.167900 -12.580000
H -33.958100 -14.801100 -12.771000
N -33.704200 -10.089400 -12.888800
C -33.131600 -12.135000 -13.250800
N -32.743700 -10.911100 -13.444100
H -32.665900 -12.888000 -13.535800
H -46.932200 -12.888000 -5.719600
N -46.854400 -10.911100 -5.811300
C -46.466500 -12.135000 -6.004600
N -45.893900 -10.089400 -6.366600
H -45.640000 -14.801100 -6.484500
N -45.295400 -12.167900 -6.675500
C -44.985300 -10.854100 -6.858800
N -44.898800 -14.537200 -6.832600
C -44.500200 -13.265100 -7.050600
H -44.300600 -17.277800 -6.945800
H -44.215500 -10.550600 -7.285500
C -43.854500 -15.323200 -7.290100
C -43.663000 -16.693900 -7.287000
N -43.343800 -13.122000 -7.613600
C -42.901000 -14.437700 -7.779200
C -42.473100 -17.144400 -7.818500
H -42.310300 -18.059900 -7.854700
C -41.702800 -14.905500 -8.296000
C -41.520900 -16.277300 -8.296000
H -41.052800 -14.326500 -8.626400
H -40.725100 -16.624300 -8.631100
