20
Fragment
O -13.805800 -11.109200 -22.410800
H -13.784800 -13.100600 -21.380200
N -13.189400 -13.561300 -21.815600
N -12.970500 -14.853200 -21.370400
N -12.958500 -11.089000 -23.307200
O -12.769700 -10.099800 -24.039600
C -12.382000 -13.240900 -22.818100
N -12.184300 -12.149400 -23.591400
C -12.029900 -15.294300 -22.151000
N -11.639600 -14.344100 -23.052300
N -11.435600 -17.415300 -23.170600
C -11.411900 -16.618900 -22.099700
H -11.031000 -14.402200 -23.673100
O -10.808200 -15.757600 -19.425600
N -10.702200 -18.456200 -22.784000
C -10.638500 -17.241700 -21.128900
H -10.568200 -19.112900 -23.331600
N -10.253100 -16.766400 -19.823900
N -10.192100 -18.406500 -21.577700
O -9.379600 -17.379400 -19.229900
20
Fragment
O -7.280100 -17.906900 -17.359000
N -6.467700 -16.879700 -15.011200
N -6.406600 -18.519900 -16.765100
H -6.091600 -16.173300 -13.257400
C -6.021200 -18.044500 -15.460100
N -5.957600 -16.830100 -13.805000
O -5.851600 -19.528700 -17.163400
H -5.628700 -20.884100 -12.915900
C -5.247900 -18.667300 -14.489200
N -5.224100 -17.870900 -13.418400
N -5.020200 -20.942200 -13.536700
C -4.629900 -19.991900 -14.438000
N -4.475500 -23.136800 -12.997600
C -4.277700 -22.045300 -13.770900
O -3.890000 -25.186400 -12.549400
N -3.701300 -24.197200 -13.281800
N -3.689300 -20.433100 -15.218600
N -3.470300 -21.724900 -14.773400
H -2.875000 -22.185600 -15.208800
O -2.853900 -24.177100 -14.178200
40
Fragment
O -13.805800 -11.109200 -22.410800
H -13.784800 -13.100600 -21.380200
N -13.189400 -13.561300 -21.815600
N -12.970500 -14.853200 -21.370400
N -12.958500 -11.089000 -23.307200
O -12.769700 -10.099800 -24.039600
C -12.382000 -13.240900 -22.818100
N -12.184300 -12.149400 -23.591400
C -12.029900 -15.294300 -22.151000
N -11.639600 -14.344100 -23.052300
N -11.435600 -17.415300 -23.170600
C -11.411900 -16.618900 -22.099700
H -11.031000 -14.402200 -23.673100
O -10.808200 -15.757600 -19.425600
N -10.702200 -18.456200 -22.784000
C -10.638500 -17.241700 -21.128900
H -10.568200 -19.112900 -23.331600
N -10.253100 -16.766400 -19.823900
N -10.192100 -18.406500 -21.577700
O -9.379600 -17.379400 -19.229900
O -7.280100 -17.906900 -17.359000
N -6.467700 -16.879700 -15.011200
N -6.406600 -18.519900 -16.765100
H -6.091600 -16.173300 -13.257400
C -6.021200 -18.044500 -15.460100
N -5.957600 -16.830100 -13.805000
O -5.851600 -19.528700 -17.163400
H -5.628700 -20.884100 -12.915900
C -5.247900 -18.667300 -14.489200
N -5.224100 -17.870900 -13.418400
N -5.020200 -20.942200 -13.536700
C -4.629900 -19.991900 -14.438000
N -4.475500 -23.136800 -12.997600
C -4.277700 -22.045300 -13.770900
O -3.890000 -25.186400 -12.549400
N -3.701300 -24.197200 -13.281800
N -3.689300 -20.433100 -15.218600
N -3.470300 -21.724900 -14.773400
H -2.875000 -22.185600 -15.208800
O -2.853900 -24.177100 -14.178200
