21
Fragment
H -38.873000 -16.624300 -10.624400
H -38.545300 -14.326500 -10.629000
C -38.077200 -16.277300 -10.959400
C -37.895300 -14.905500 -10.959400
H -37.287800 -18.059900 -11.400800
C -37.125000 -17.144400 -11.437000
C -36.697100 -14.437700 -11.476200
N -36.254300 -13.122000 -11.641800
C -35.935200 -16.693900 -11.968400
C -35.743600 -15.323200 -11.965300
H -35.382600 -10.550600 -11.969900
H -35.297600 -17.277800 -12.309600
C -35.097900 -13.265100 -12.204900
N -34.699300 -14.537200 -12.422800
C -34.612900 -10.854100 -12.396600
N -34.302700 -12.167900 -12.580000
H -33.958100 -14.801100 -12.771000
N -33.704200 -10.089400 -12.888800
C -33.131600 -12.135000 -13.250800
N -32.743700 -10.911100 -13.444100
H -32.665900 -12.888000 -13.535800
21
Fragment
H -38.873000 -26.291300 -10.624400
H -38.545300 -23.993500 -10.629000
C -38.077200 -25.944300 -10.959400
C -37.895300 -24.572500 -10.959400
H -37.287800 -27.726900 -11.400800
C -37.125000 -26.811400 -11.437000
C -36.697100 -24.104700 -11.476200
N -36.254300 -22.789000 -11.641800
C -35.935200 -26.360900 -11.968400
C -35.743600 -24.990200 -11.965300
H -35.382600 -20.217600 -11.969900
H -35.297600 -26.944800 -12.309600
C -35.097900 -22.932100 -12.204900
N -34.699300 -24.204200 -12.422800
C -34.612900 -20.521100 -12.396600
N -34.302700 -21.834900 -12.580000
H -33.958100 -24.468100 -12.771000
N -33.704200 -19.756400 -12.888800
C -33.131600 -21.802000 -13.250800
N -32.743700 -20.578100 -13.444100
H -32.665900 -22.555000 -13.535800
42
Fragment
H -38.873000 -16.624300 -10.624400
H -38.545300 -14.326500 -10.629000
C -38.077200 -16.277300 -10.959400
C -37.895300 -14.905500 -10.959400
H -37.287800 -18.059900 -11.400800
C -37.125000 -17.144400 -11.437000
C -36.697100 -14.437700 -11.476200
N -36.254300 -13.122000 -11.641800
C -35.935200 -16.693900 -11.968400
C -35.743600 -15.323200 -11.965300
H -35.382600 -10.550600 -11.969900
H -35.297600 -17.277800 -12.309600
C -35.097900 -13.265100 -12.204900
N -34.699300 -14.537200 -12.422800
C -34.612900 -10.854100 -12.396600
N -34.302700 -12.167900 -12.580000
H -33.958100 -14.801100 -12.771000
N -33.704200 -10.089400 -12.888800
C -33.131600 -12.135000 -13.250800
N -32.743700 -10.911100 -13.444100
H -32.665900 -12.888000 -13.535800
H -38.873000 -26.291300 -10.624400
H -38.545300 -23.993500 -10.629000
C -38.077200 -25.944300 -10.959400
C -37.895300 -24.572500 -10.959400
H -37.287800 -27.726900 -11.400800
C -37.125000 -26.811400 -11.437000
C -36.697100 -24.104700 -11.476200
N -36.254300 -22.789000 -11.641800
C -35.935200 -26.360900 -11.968400
C -35.743600 -24.990200 -11.965300
H -35.382600 -20.217600 -11.969900
H -35.297600 -26.944800 -12.309600
C -35.097900 -22.932100 -12.204900
N -34.699300 -24.204200 -12.422800
C -34.612900 -20.521100 -12.396600
N -34.302700 -21.834900 -12.580000
H -33.958100 -24.468100 -12.771000
N -33.704200 -19.756400 -12.888800
C -33.131600 -21.802000 -13.250800
N -32.743700 -20.578100 -13.444100
H -32.665900 -22.555000 -13.535800
