20
Fragment
O -13.805800 -11.109200 -22.410800
H -13.784800 -13.100600 -21.380200
N -13.189400 -13.561300 -21.815600
N -12.970500 -14.853200 -21.370400
N -12.958500 -11.089000 -23.307200
O -12.769700 -10.099800 -24.039600
C -12.382000 -13.240900 -22.818100
N -12.184300 -12.149400 -23.591400
C -12.029900 -15.294300 -22.151000
N -11.639600 -14.344100 -23.052300
N -11.435600 -17.415300 -23.170600
C -11.411900 -16.618900 -22.099700
H -11.031000 -14.402200 -23.673100
O -10.808200 -15.757600 -19.425600
N -10.702200 -18.456200 -22.784000
C -10.638500 -17.241700 -21.128900
H -10.568200 -19.112900 -23.331600
N -10.253100 -16.766400 -19.823900
N -10.192100 -18.406500 -21.577700
O -9.379600 -17.379400 -19.229900
6
Fragment
N -9.629900 -12.539400 -16.429700
C -9.040900 -13.393000 -16.862600
H -8.848500 -15.264200 -17.571200
C -8.261900 -14.493800 -17.417600
H -7.860200 -14.215600 -18.266400
H -7.554200 -14.743200 -16.787000
26
Fragment
O -13.805800 -11.109200 -22.410800
H -13.784800 -13.100600 -21.380200
N -13.189400 -13.561300 -21.815600
N -12.970500 -14.853200 -21.370400
N -12.958500 -11.089000 -23.307200
O -12.769700 -10.099800 -24.039600
C -12.382000 -13.240900 -22.818100
N -12.184300 -12.149400 -23.591400
C -12.029900 -15.294300 -22.151000
N -11.639600 -14.344100 -23.052300
N -11.435600 -17.415300 -23.170600
C -11.411900 -16.618900 -22.099700
H -11.031000 -14.402200 -23.673100
O -10.808200 -15.757600 -19.425600
N -10.702200 -18.456200 -22.784000
C -10.638500 -17.241700 -21.128900
H -10.568200 -19.112900 -23.331600
N -10.253100 -16.766400 -19.823900
N -10.192100 -18.406500 -21.577700
O -9.379600 -17.379400 -19.229900
N -9.629900 -12.539400 -16.429700
C -9.040900 -13.393000 -16.862600
H -8.848500 -15.264200 -17.571200
C -8.261900 -14.493800 -17.417600
H -7.860200 -14.215600 -18.266400
H -7.554200 -14.743200 -16.787000
