20
Fragment
O -13.805800 -11.109200 -22.410800
H -13.784800 -13.100600 -21.380200
N -13.189400 -13.561300 -21.815600
N -12.970500 -14.853200 -21.370400
N -12.958500 -11.089000 -23.307200
O -12.769700 -10.099800 -24.039600
C -12.382000 -13.240900 -22.818100
N -12.184300 -12.149400 -23.591400
C -12.029900 -15.294300 -22.151000
N -11.639600 -14.344100 -23.052300
N -11.435600 -17.415300 -23.170600
C -11.411900 -16.618900 -22.099700
H -11.031000 -14.402200 -23.673100
O -10.808200 -15.757600 -19.425600
N -10.702200 -18.456200 -22.784000
C -10.638500 -17.241700 -21.128900
H -10.568200 -19.112900 -23.331600
N -10.253100 -16.766400 -19.823900
N -10.192100 -18.406500 -21.577700
O -9.379600 -17.379400 -19.229900
20
Fragment
O -9.300500 -11.109200 -22.410800
H -9.279500 -13.100600 -21.380200
N -8.684100 -13.561300 -21.815600
N -8.465200 -14.853200 -21.370400
N -8.453200 -11.089000 -23.307200
O -8.264400 -10.099800 -24.039600
C -7.876700 -13.240900 -22.818100
N -7.679000 -12.149400 -23.591400
C -7.524600 -15.294300 -22.151000
N -7.134300 -14.344100 -23.052300
N -6.930300 -17.415300 -23.170600
C -6.906600 -16.618900 -22.099700
H -6.525700 -14.402200 -23.673100
O -6.302900 -15.757600 -19.425600
N -6.196900 -18.456200 -22.784000
C -6.133200 -17.241700 -21.128900
H -6.062900 -19.112900 -23.331600
N -5.747800 -16.766400 -19.823900
N -5.686800 -18.406500 -21.577700
O -4.874300 -17.379400 -19.229900
40
Fragment
O -13.805800 -11.109200 -22.410800
H -13.784800 -13.100600 -21.380200
N -13.189400 -13.561300 -21.815600
N -12.970500 -14.853200 -21.370400
N -12.958500 -11.089000 -23.307200
O -12.769700 -10.099800 -24.039600
C -12.382000 -13.240900 -22.818100
N -12.184300 -12.149400 -23.591400
C -12.029900 -15.294300 -22.151000
N -11.639600 -14.344100 -23.052300
N -11.435600 -17.415300 -23.170600
C -11.411900 -16.618900 -22.099700
H -11.031000 -14.402200 -23.673100
O -10.808200 -15.757600 -19.425600
N -10.702200 -18.456200 -22.784000
C -10.638500 -17.241700 -21.128900
H -10.568200 -19.112900 -23.331600
N -10.253100 -16.766400 -19.823900
N -10.192100 -18.406500 -21.577700
O -9.379600 -17.379400 -19.229900
O -9.300500 -11.109200 -22.410800
H -9.279500 -13.100600 -21.380200
N -8.684100 -13.561300 -21.815600
N -8.465200 -14.853200 -21.370400
N -8.453200 -11.089000 -23.307200
O -8.264400 -10.099800 -24.039600
C -7.876700 -13.240900 -22.818100
N -7.679000 -12.149400 -23.591400
C -7.524600 -15.294300 -22.151000
N -7.134300 -14.344100 -23.052300
N -6.930300 -17.415300 -23.170600
C -6.906600 -16.618900 -22.099700
H -6.525700 -14.402200 -23.673100
O -6.302900 -15.757600 -19.425600
N -6.196900 -18.456200 -22.784000
C -6.133200 -17.241700 -21.128900
H -6.062900 -19.112900 -23.331600
N -5.747800 -16.766400 -19.823900
N -5.686800 -18.406500 -21.577700
O -4.874300 -17.379400 -19.229900
