20
Fragment
O -13.805800 -11.109200 -22.410800
H -13.784800 -13.100600 -21.380200
N -13.189400 -13.561300 -21.815600
N -12.970500 -14.853200 -21.370400
N -12.958500 -11.089000 -23.307200
O -12.769700 -10.099800 -24.039600
C -12.382000 -13.240900 -22.818100
N -12.184300 -12.149400 -23.591400
C -12.029900 -15.294300 -22.151000
N -11.639600 -14.344100 -23.052300
N -11.435600 -17.415300 -23.170600
C -11.411900 -16.618900 -22.099700
H -11.031000 -14.402200 -23.673100
O -10.808200 -15.757600 -19.425600
N -10.702200 -18.456200 -22.784000
C -10.638500 -17.241700 -21.128900
H -10.568200 -19.112900 -23.331600
N -10.253100 -16.766400 -19.823900
N -10.192100 -18.406500 -21.577700
O -9.379600 -17.379400 -19.229900
20
Fragment
O -17.450100 -0.652500 -22.410800
H -17.429100 -2.644000 -21.380200
N -16.833700 -3.104700 -21.815600
N -16.614800 -4.396500 -21.370400
N -16.602800 -0.632400 -23.307200
O -16.414000 0.356800 -24.039600
C -16.026400 -2.784300 -22.818100
N -15.828600 -1.692800 -23.591400
C -15.674200 -4.837700 -22.151000
N -15.283900 -3.887500 -23.052300
N -15.080000 -6.958700 -23.170600
C -15.056200 -6.162300 -22.099700
H -14.675300 -3.945600 -23.673100
O -14.452500 -5.301000 -19.425600
N -14.346500 -7.999600 -22.784000
C -14.282900 -6.785100 -21.128900
H -14.212500 -8.656300 -23.331600
N -13.897500 -6.309800 -19.823900
N -13.836400 -7.949900 -21.577700
O -13.023900 -6.922800 -19.229900
40
Fragment
O -13.805800 -11.109200 -22.410800
H -13.784800 -13.100600 -21.380200
N -13.189400 -13.561300 -21.815600
N -12.970500 -14.853200 -21.370400
N -12.958500 -11.089000 -23.307200
O -12.769700 -10.099800 -24.039600
C -12.382000 -13.240900 -22.818100
N -12.184300 -12.149400 -23.591400
C -12.029900 -15.294300 -22.151000
N -11.639600 -14.344100 -23.052300
N -11.435600 -17.415300 -23.170600
C -11.411900 -16.618900 -22.099700
H -11.031000 -14.402200 -23.673100
O -10.808200 -15.757600 -19.425600
N -10.702200 -18.456200 -22.784000
C -10.638500 -17.241700 -21.128900
H -10.568200 -19.112900 -23.331600
N -10.253100 -16.766400 -19.823900
N -10.192100 -18.406500 -21.577700
O -9.379600 -17.379400 -19.229900
O -17.450100 -0.652500 -22.410800
H -17.429100 -2.644000 -21.380200
N -16.833700 -3.104700 -21.815600
N -16.614800 -4.396500 -21.370400
N -16.602800 -0.632400 -23.307200
O -16.414000 0.356800 -24.039600
C -16.026400 -2.784300 -22.818100
N -15.828600 -1.692800 -23.591400
C -15.674200 -4.837700 -22.151000
N -15.283900 -3.887500 -23.052300
N -15.080000 -6.958700 -23.170600
C -15.056200 -6.162300 -22.099700
H -14.675300 -3.945600 -23.673100
O -14.452500 -5.301000 -19.425600
N -14.346500 -7.999600 -22.784000
C -14.282900 -6.785100 -21.128900
H -14.212500 -8.656300 -23.331600
N -13.897500 -6.309800 -19.823900
N -13.836400 -7.949900 -21.577700
O -13.023900 -6.922800 -19.229900
