20
Fragment
O -13.805800 -11.109200 -22.410800
H -13.784800 -13.100600 -21.380200
N -13.189400 -13.561300 -21.815600
N -12.970500 -14.853200 -21.370400
N -12.958500 -11.089000 -23.307200
O -12.769700 -10.099800 -24.039600
C -12.382000 -13.240900 -22.818100
N -12.184300 -12.149400 -23.591400
C -12.029900 -15.294300 -22.151000
N -11.639600 -14.344100 -23.052300
N -11.435600 -17.415300 -23.170600
C -11.411900 -16.618900 -22.099700
H -11.031000 -14.402200 -23.673100
O -10.808200 -15.757600 -19.425600
N -10.702200 -18.456200 -22.784000
C -10.638500 -17.241700 -21.128900
H -10.568200 -19.112900 -23.331600
N -10.253100 -16.766400 -19.823900
N -10.192100 -18.406500 -21.577700
O -9.379600 -17.379400 -19.229900
20
Fragment
O -13.474200 -19.212400 -29.555400
N -12.661700 -18.185200 -27.207600
N -12.600600 -19.825300 -28.961400
H -12.285600 -17.478800 -25.453700
C -12.215300 -19.350000 -27.656400
N -12.151600 -18.135500 -26.001400
O -12.045600 -20.834200 -29.359700
H -11.822800 -22.189500 -25.112200
C -11.441900 -19.972800 -26.685600
N -11.418200 -19.176400 -25.614700
N -11.214200 -22.247600 -25.733000
C -10.823900 -21.297400 -26.634300
N -10.669500 -24.442300 -25.194000
C -10.471700 -23.350800 -25.967200
O -10.084100 -26.491900 -24.745700
N -9.895300 -25.502700 -25.478100
N -9.883300 -21.738600 -27.414900
N -9.664400 -23.030400 -26.969700
H -9.069000 -23.491100 -27.405100
O -9.048000 -25.482600 -26.374600
40
Fragment
O -13.805800 -11.109200 -22.410800
H -13.784800 -13.100600 -21.380200
N -13.189400 -13.561300 -21.815600
N -12.970500 -14.853200 -21.370400
N -12.958500 -11.089000 -23.307200
O -12.769700 -10.099800 -24.039600
C -12.382000 -13.240900 -22.818100
N -12.184300 -12.149400 -23.591400
C -12.029900 -15.294300 -22.151000
N -11.639600 -14.344100 -23.052300
N -11.435600 -17.415300 -23.170600
C -11.411900 -16.618900 -22.099700
H -11.031000 -14.402200 -23.673100
O -10.808200 -15.757600 -19.425600
N -10.702200 -18.456200 -22.784000
C -10.638500 -17.241700 -21.128900
H -10.568200 -19.112900 -23.331600
N -10.253100 -16.766400 -19.823900
N -10.192100 -18.406500 -21.577700
O -9.379600 -17.379400 -19.229900
O -13.474200 -19.212400 -29.555400
N -12.661700 -18.185200 -27.207600
N -12.600600 -19.825300 -28.961400
H -12.285600 -17.478800 -25.453700
C -12.215300 -19.350000 -27.656400
N -12.151600 -18.135500 -26.001400
O -12.045600 -20.834200 -29.359700
H -11.822800 -22.189500 -25.112200
C -11.441900 -19.972800 -26.685600
N -11.418200 -19.176400 -25.614700
N -11.214200 -22.247600 -25.733000
C -10.823900 -21.297400 -26.634300
N -10.669500 -24.442300 -25.194000
C -10.471700 -23.350800 -25.967200
O -10.084100 -26.491900 -24.745700
N -9.895300 -25.502700 -25.478100
N -9.883300 -21.738600 -27.414900
N -9.664400 -23.030400 -26.969700
H -9.069000 -23.491100 -27.405100
O -9.048000 -25.482600 -26.374600
