20
Fragment
N -7.126700 -12.340600 -11.307200
C -6.071000 -12.287200 -11.753700
F -5.734500 -9.720100 -12.246700
C -4.748700 -12.353800 -12.305700
C -4.504900 -9.917300 -12.748700
C -4.219600 -13.687300 -12.385500
H -4.189100 -7.990600 -13.172200
C -4.013400 -11.277100 -12.763500
N -3.838800 -14.769500 -12.451000
C -3.810100 -8.861100 -13.206300
C -2.692200 -11.469100 -13.305800
N -2.663500 -5.560600 -14.061100
C -2.488900 -9.053000 -13.748700
H -2.313200 -12.339500 -13.339900
C -2.282600 -6.642900 -14.126600
C -1.997400 -10.412800 -13.763400
C -1.753600 -7.976300 -14.206400
F -0.767700 -10.610000 -14.265500
C -0.431300 -8.042900 -14.758400
N 0.624500 -7.989500 -15.204900
30
Fragment
H -0.727500 -4.024900 -15.458500
H -0.605300 -1.783300 -15.963900
C 0.074500 -3.668300 -15.822100
C 0.144700 -2.343100 -16.127100
H 0.709000 0.148900 -16.813500
H 1.132100 -5.444200 -15.807800
C 1.190500 -4.525400 -16.042000
C 1.339200 -1.782100 -16.692700
C 1.446000 -0.424900 -16.987100
H 2.016400 2.068900 -17.660500
C 2.341300 -4.038000 -16.586300
C 2.456100 -2.656900 -16.948600
C 2.628200 0.114500 -17.538400
C 2.746400 1.488400 -17.841500
H 3.077400 -4.622100 -16.726900
H 3.290700 3.977000 -18.622600
C 3.621700 -2.133500 -17.508000
C 3.739900 -0.759600 -17.811100
C 3.912000 2.011800 -18.400900
C 4.026800 3.392900 -18.763300
H 4.351700 -2.714000 -17.689000
C 4.922100 -0.220200 -18.362400
C 5.029000 1.137000 -18.656800
C 5.177600 3.880300 -19.307500
H 5.236000 4.799100 -19.541700
H 5.659100 -0.794000 -18.536000
C 6.223400 1.698000 -19.222400
C 6.293600 3.023200 -19.527400
H 6.973400 1.138200 -19.385600
H 7.095600 3.379800 -19.891000
50
Fragment
N -7.126700 -12.340600 -11.307200
C -6.071000 -12.287200 -11.753700
F -5.734500 -9.720100 -12.246700
C -4.748700 -12.353800 -12.305700
C -4.504900 -9.917300 -12.748700
C -4.219600 -13.687300 -12.385500
H -4.189100 -7.990600 -13.172200
C -4.013400 -11.277100 -12.763500
N -3.838800 -14.769500 -12.451000
C -3.810100 -8.861100 -13.206300
C -2.692200 -11.469100 -13.305800
N -2.663500 -5.560600 -14.061100
C -2.488900 -9.053000 -13.748700
H -2.313200 -12.339500 -13.339900
C -2.282600 -6.642900 -14.126600
C -1.997400 -10.412800 -13.763400
C -1.753600 -7.976300 -14.206400
F -0.767700 -10.610000 -14.265500
C -0.431300 -8.042900 -14.758400
N 0.624500 -7.989500 -15.204900
H -0.727500 -4.024900 -15.458500
H -0.605300 -1.783300 -15.963900
C 0.074500 -3.668300 -15.822100
C 0.144700 -2.343100 -16.127100
H 0.709000 0.148900 -16.813500
H 1.132100 -5.444200 -15.807800
C 1.190500 -4.525400 -16.042000
C 1.339200 -1.782100 -16.692700
C 1.446000 -0.424900 -16.987100
H 2.016400 2.068900 -17.660500
C 2.341300 -4.038000 -16.586300
C 2.456100 -2.656900 -16.948600
C 2.628200 0.114500 -17.538400
C 2.746400 1.488400 -17.841500
H 3.077400 -4.622100 -16.726900
H 3.290700 3.977000 -18.622600
C 3.621700 -2.133500 -17.508000
C 3.739900 -0.759600 -17.811100
C 3.912000 2.011800 -18.400900
C 4.026800 3.392900 -18.763300
H 4.351700 -2.714000 -17.689000
C 4.922100 -0.220200 -18.362400
C 5.029000 1.137000 -18.656800
C 5.177600 3.880300 -19.307500
H 5.236000 4.799100 -19.541700
H 5.659100 -0.794000 -18.536000
C 6.223400 1.698000 -19.222400
C 6.293600 3.023200 -19.527400
H 6.973400 1.138200 -19.385600
H 7.095600 3.379800 -19.891000
