20
Fragment
N -7.126700 -12.340600 -11.307200
C -6.071000 -12.287200 -11.753700
F -5.734500 -9.720100 -12.246700
C -4.748700 -12.353800 -12.305700
C -4.504900 -9.917300 -12.748700
C -4.219600 -13.687300 -12.385500
H -4.189100 -7.990600 -13.172200
C -4.013400 -11.277100 -12.763500
N -3.838800 -14.769500 -12.451000
C -3.810100 -8.861100 -13.206300
C -2.692200 -11.469100 -13.305800
N -2.663500 -5.560600 -14.061100
C -2.488900 -9.053000 -13.748700
H -2.313200 -12.339500 -13.339900
C -2.282600 -6.642900 -14.126600
C -1.997400 -10.412800 -13.763400
C -1.753600 -7.976300 -14.206400
F -0.767700 -10.610000 -14.265500
C -0.431300 -8.042900 -14.758400
N 0.624500 -7.989500 -15.204900
20
Fragment
N -0.244700 -12.340600 -11.307200
C 0.811000 -12.287200 -11.753700
F 1.147500 -9.720100 -12.246700
C 2.133300 -12.353800 -12.305700
C 2.377100 -9.917300 -12.748700
C 2.662400 -13.687300 -12.385500
H 2.692900 -7.990600 -13.172200
C 2.868600 -11.277100 -12.763500
N 3.043200 -14.769500 -12.451000
C 3.071900 -8.861100 -13.206300
C 4.189800 -11.469100 -13.305800
N 4.218500 -5.560600 -14.061100
C 4.393100 -9.053000 -13.748700
H 4.568800 -12.339500 -13.339900
C 4.599400 -6.642900 -14.126600
C 4.884600 -10.412800 -13.763400
C 5.128400 -7.976300 -14.206400
F 6.114300 -10.610000 -14.265500
C 6.450700 -8.042900 -14.758400
N 7.506500 -7.989500 -15.204900
40
Fragment
N -7.126700 -12.340600 -11.307200
C -6.071000 -12.287200 -11.753700
F -5.734500 -9.720100 -12.246700
C -4.748700 -12.353800 -12.305700
C -4.504900 -9.917300 -12.748700
C -4.219600 -13.687300 -12.385500
H -4.189100 -7.990600 -13.172200
C -4.013400 -11.277100 -12.763500
N -3.838800 -14.769500 -12.451000
C -3.810100 -8.861100 -13.206300
C -2.692200 -11.469100 -13.305800
N -2.663500 -5.560600 -14.061100
C -2.488900 -9.053000 -13.748700
H -2.313200 -12.339500 -13.339900
C -2.282600 -6.642900 -14.126600
C -1.997400 -10.412800 -13.763400
C -1.753600 -7.976300 -14.206400
F -0.767700 -10.610000 -14.265500
C -0.431300 -8.042900 -14.758400
N 0.624500 -7.989500 -15.204900
N -0.244700 -12.340600 -11.307200
C 0.811000 -12.287200 -11.753700
F 1.147500 -9.720100 -12.246700
C 2.133300 -12.353800 -12.305700
C 2.377100 -9.917300 -12.748700
C 2.662400 -13.687300 -12.385500
H 2.692900 -7.990600 -13.172200
C 2.868600 -11.277100 -12.763500
N 3.043200 -14.769500 -12.451000
C 3.071900 -8.861100 -13.206300
C 4.189800 -11.469100 -13.305800
N 4.218500 -5.560600 -14.061100
C 4.393100 -9.053000 -13.748700
H 4.568800 -12.339500 -13.339900
C 4.599400 -6.642900 -14.126600
C 4.884600 -10.412800 -13.763400
C 5.128400 -7.976300 -14.206400
F 6.114300 -10.610000 -14.265500
C 6.450700 -8.042900 -14.758400
N 7.506500 -7.989500 -15.204900
