20
Fragment
N -11.135000 -19.537300 -16.226700
C -10.607800 -19.684800 -17.237700
N -9.992100 -22.523600 -19.020200
C -9.968100 -21.395500 -18.799700
C -9.961500 -19.993100 -18.481200
F -9.918700 -17.247900 -17.910200
C -9.375100 -19.076800 -19.321900
C -9.352700 -17.655700 -19.061300
H -8.847400 -15.840500 -19.659000
C -8.814800 -16.743400 -19.879800
C -8.745000 -19.500200 -20.547700
H -8.712300 -20.403100 -20.768600
C -8.207100 -18.587900 -21.366200
C -8.184600 -17.166800 -21.105600
F -7.641100 -18.995700 -22.517300
C -7.598300 -16.250500 -21.946300
C -7.591700 -14.848100 -21.627800
N -7.567600 -13.720000 -21.407300
C -6.951900 -16.558800 -23.189800
N -6.424700 -16.706300 -24.200800
24
Fragment
H -6.143500 -21.045600 -23.269400
C -5.684000 -21.133700 -24.073200
H -5.675700 -19.142700 -24.560500
H -5.484800 -23.105900 -23.971500
C -5.397000 -19.979800 -24.854700
C -5.291000 -22.361400 -24.494100
C -4.719600 -20.091000 -26.026700
C -4.585600 -22.533800 -25.723500
H -4.532200 -19.325400 -26.520000
H -4.375200 -24.538500 -25.669700
C -4.289300 -21.364100 -26.515600
C -4.183800 -23.785900 -26.181500
C -3.607300 -21.518600 -27.721800
C -3.501800 -23.940400 -27.387700
H -3.415800 -20.766000 -28.233600
H -3.258900 -25.979100 -27.383300
C -3.205400 -22.770700 -28.179900
C -3.071400 -25.213500 -27.876600
C -2.500000 -22.943100 -29.409300
C -2.394000 -25.324700 -29.048600
H -2.306200 -22.198600 -29.931800
H -2.115400 -26.161800 -29.342800
C -2.107100 -24.170800 -29.830100
H -1.647500 -24.258900 -30.633900
44
Fragment
N -11.135000 -19.537300 -16.226700
C -10.607800 -19.684800 -17.237700
N -9.992100 -22.523600 -19.020200
C -9.968100 -21.395500 -18.799700
C -9.961500 -19.993100 -18.481200
F -9.918700 -17.247900 -17.910200
C -9.375100 -19.076800 -19.321900
C -9.352700 -17.655700 -19.061300
H -8.847400 -15.840500 -19.659000
C -8.814800 -16.743400 -19.879800
C -8.745000 -19.500200 -20.547700
H -8.712300 -20.403100 -20.768600
C -8.207100 -18.587900 -21.366200
C -8.184600 -17.166800 -21.105600
F -7.641100 -18.995700 -22.517300
C -7.598300 -16.250500 -21.946300
C -7.591700 -14.848100 -21.627800
N -7.567600 -13.720000 -21.407300
C -6.951900 -16.558800 -23.189800
N -6.424700 -16.706300 -24.200800
H -6.143500 -21.045600 -23.269400
C -5.684000 -21.133700 -24.073200
H -5.675700 -19.142700 -24.560500
H -5.484800 -23.105900 -23.971500
C -5.397000 -19.979800 -24.854700
C -5.291000 -22.361400 -24.494100
C -4.719600 -20.091000 -26.026700
C -4.585600 -22.533800 -25.723500
H -4.532200 -19.325400 -26.520000
H -4.375200 -24.538500 -25.669700
C -4.289300 -21.364100 -26.515600
C -4.183800 -23.785900 -26.181500
C -3.607300 -21.518600 -27.721800
C -3.501800 -23.940400 -27.387700
H -3.415800 -20.766000 -28.233600
H -3.258900 -25.979100 -27.383300
C -3.205400 -22.770700 -28.179900
C -3.071400 -25.213500 -27.876600
C -2.500000 -22.943100 -29.409300
C -2.394000 -25.324700 -29.048600
H -2.306200 -22.198600 -29.931800
H -2.115400 -26.161800 -29.342800
C -2.107100 -24.170800 -29.830100
H -1.647500 -24.258900 -30.633900
