20
Fragment
N -7.126700 -12.340600 -11.307200
C -6.071000 -12.287200 -11.753700
F -5.734500 -9.720100 -12.246700
C -4.748700 -12.353800 -12.305700
C -4.504900 -9.917300 -12.748700
C -4.219600 -13.687300 -12.385500
H -4.189100 -7.990600 -13.172200
C -4.013400 -11.277100 -12.763500
N -3.838800 -14.769500 -12.451000
C -3.810100 -8.861100 -13.206300
C -2.692200 -11.469100 -13.305800
N -2.663500 -5.560600 -14.061100
C -2.488900 -9.053000 -13.748700
H -2.313200 -12.339500 -13.339900
C -2.282600 -6.642900 -14.126600
C -1.997400 -10.412800 -13.763400
C -1.753600 -7.976300 -14.206400
F -0.767700 -10.610000 -14.265500
C -0.431300 -8.042900 -14.758400
N 0.624500 -7.989500 -15.204900
20
Fragment
N -2.114100 -3.520100 -11.307200
C -1.058400 -3.466600 -11.753700
F -0.721900 -0.899500 -12.246700
C 0.263900 -3.533200 -12.305700
C 0.507700 -1.096700 -12.748700
C 0.793000 -4.866700 -12.385500
H 0.823500 0.830000 -13.172200
C 0.999200 -2.456500 -12.763500
N 1.173800 -5.948900 -12.451000
C 1.202500 -0.040500 -13.206300
C 2.320400 -2.648500 -13.305800
N 2.349100 3.259900 -14.061100
C 2.523700 -0.232400 -13.748700
H 2.699400 -3.518900 -13.339900
C 2.730000 2.177700 -14.126600
C 3.015200 -1.592200 -13.763400
C 3.259000 0.844200 -14.206400
F 4.244900 -1.789400 -14.265500
C 4.581300 0.777700 -14.758400
N 5.637100 0.831100 -15.204900
40
Fragment
N -7.126700 -12.340600 -11.307200
C -6.071000 -12.287200 -11.753700
F -5.734500 -9.720100 -12.246700
C -4.748700 -12.353800 -12.305700
C -4.504900 -9.917300 -12.748700
C -4.219600 -13.687300 -12.385500
H -4.189100 -7.990600 -13.172200
C -4.013400 -11.277100 -12.763500
N -3.838800 -14.769500 -12.451000
C -3.810100 -8.861100 -13.206300
C -2.692200 -11.469100 -13.305800
N -2.663500 -5.560600 -14.061100
C -2.488900 -9.053000 -13.748700
H -2.313200 -12.339500 -13.339900
C -2.282600 -6.642900 -14.126600
C -1.997400 -10.412800 -13.763400
C -1.753600 -7.976300 -14.206400
F -0.767700 -10.610000 -14.265500
C -0.431300 -8.042900 -14.758400
N 0.624500 -7.989500 -15.204900
N -2.114100 -3.520100 -11.307200
C -1.058400 -3.466600 -11.753700
F -0.721900 -0.899500 -12.246700
C 0.263900 -3.533200 -12.305700
C 0.507700 -1.096700 -12.748700
C 0.793000 -4.866700 -12.385500
H 0.823500 0.830000 -13.172200
C 0.999200 -2.456500 -12.763500
N 1.173800 -5.948900 -12.451000
C 1.202500 -0.040500 -13.206300
C 2.320400 -2.648500 -13.305800
N 2.349100 3.259900 -14.061100
C 2.523700 -0.232400 -13.748700
H 2.699400 -3.518900 -13.339900
C 2.730000 2.177700 -14.126600
C 3.015200 -1.592200 -13.763400
C 3.259000 0.844200 -14.206400
F 4.244900 -1.789400 -14.265500
C 4.581300 0.777700 -14.758400
N 5.637100 0.831100 -15.204900
