20
Fragment
N -11.135000 -19.537300 -16.226700
C -10.607800 -19.684800 -17.237700
N -9.992100 -22.523600 -19.020200
C -9.968100 -21.395500 -18.799700
C -9.961500 -19.993100 -18.481200
F -9.918700 -17.247900 -17.910200
C -9.375100 -19.076800 -19.321900
C -9.352700 -17.655700 -19.061300
H -8.847400 -15.840500 -19.659000
C -8.814800 -16.743400 -19.879800
C -8.745000 -19.500200 -20.547700
H -8.712300 -20.403100 -20.768600
C -8.207100 -18.587900 -21.366200
C -8.184600 -17.166800 -21.105600
F -7.641100 -18.995700 -22.517300
C -7.598300 -16.250500 -21.946300
C -7.591700 -14.848100 -21.627800
N -7.567600 -13.720000 -21.407300
C -6.951900 -16.558800 -23.189800
N -6.424700 -16.706300 -24.200800
24
Fragment
H -14.933400 -28.789400 -16.531500
C -14.473800 -28.701200 -17.335300
H -14.465500 -30.692300 -17.822600
H -14.274700 -26.729000 -17.233600
C -14.186900 -29.855100 -18.116800
C -14.080900 -27.473600 -17.756200
C -13.509500 -29.743900 -19.288800
C -13.375500 -27.301100 -18.985600
H -13.322000 -30.509600 -19.782100
H -13.165100 -25.296400 -18.931800
C -13.079100 -28.470900 -19.777700
C -12.973600 -26.049000 -19.443600
C -12.397100 -28.316400 -20.983900
C -12.291600 -25.894500 -20.649800
H -12.205700 -29.069000 -21.495700
H -12.048700 -23.855800 -20.645400
C -11.995300 -27.064300 -21.441900
C -11.861300 -24.621500 -21.138700
C -11.289900 -26.891800 -22.671300
C -11.183900 -24.510300 -22.310700
H -11.096100 -27.636400 -23.193900
H -10.905200 -23.673100 -22.604900
C -10.896900 -25.664200 -23.092200
H -10.437400 -25.576000 -23.896000
44
Fragment
N -11.135000 -19.537300 -16.226700
C -10.607800 -19.684800 -17.237700
N -9.992100 -22.523600 -19.020200
C -9.968100 -21.395500 -18.799700
C -9.961500 -19.993100 -18.481200
F -9.918700 -17.247900 -17.910200
C -9.375100 -19.076800 -19.321900
C -9.352700 -17.655700 -19.061300
H -8.847400 -15.840500 -19.659000
C -8.814800 -16.743400 -19.879800
C -8.745000 -19.500200 -20.547700
H -8.712300 -20.403100 -20.768600
C -8.207100 -18.587900 -21.366200
C -8.184600 -17.166800 -21.105600
F -7.641100 -18.995700 -22.517300
C -7.598300 -16.250500 -21.946300
C -7.591700 -14.848100 -21.627800
N -7.567600 -13.720000 -21.407300
C -6.951900 -16.558800 -23.189800
N -6.424700 -16.706300 -24.200800
H -14.933400 -28.789400 -16.531500
C -14.473800 -28.701200 -17.335300
H -14.465500 -30.692300 -17.822600
H -14.274700 -26.729000 -17.233600
C -14.186900 -29.855100 -18.116800
C -14.080900 -27.473600 -17.756200
C -13.509500 -29.743900 -19.288800
C -13.375500 -27.301100 -18.985600
H -13.322000 -30.509600 -19.782100
H -13.165100 -25.296400 -18.931800
C -13.079100 -28.470900 -19.777700
C -12.973600 -26.049000 -19.443600
C -12.397100 -28.316400 -20.983900
C -12.291600 -25.894500 -20.649800
H -12.205700 -29.069000 -21.495700
H -12.048700 -23.855800 -20.645400
C -11.995300 -27.064300 -21.441900
C -11.861300 -24.621500 -21.138700
C -11.289900 -26.891800 -22.671300
C -11.183900 -24.510300 -22.310700
H -11.096100 -27.636400 -23.193900
H -10.905200 -23.673100 -22.604900
C -10.896900 -25.664200 -23.092200
H -10.437400 -25.576000 -23.896000
