20
Fragment
N -11.135000 -19.537300 -16.226700
C -10.607800 -19.684800 -17.237700
N -9.992100 -22.523600 -19.020200
C -9.968100 -21.395500 -18.799700
C -9.961500 -19.993100 -18.481200
F -9.918700 -17.247900 -17.910200
C -9.375100 -19.076800 -19.321900
C -9.352700 -17.655700 -19.061300
H -8.847400 -15.840500 -19.659000
C -8.814800 -16.743400 -19.879800
C -8.745000 -19.500200 -20.547700
H -8.712300 -20.403100 -20.768600
C -8.207100 -18.587900 -21.366200
C -8.184600 -17.166800 -21.105600
F -7.641100 -18.995700 -22.517300
C -7.598300 -16.250500 -21.946300
C -7.591700 -14.848100 -21.627800
N -7.567600 -13.720000 -21.407300
C -6.951900 -16.558800 -23.189800
N -6.424700 -16.706300 -24.200800
20
Fragment
N -12.113900 -21.236800 -9.488700
C -11.586700 -21.089200 -10.499800
N -10.971000 -18.250500 -12.282300
C -10.947000 -19.378500 -12.061800
C -10.940400 -20.780900 -11.743200
F -10.897600 -23.526200 -11.172300
C -10.354000 -21.697200 -12.584000
C -10.331600 -23.118300 -12.323400
H -9.826300 -24.933500 -12.921000
C -9.793700 -24.030700 -13.141900
C -9.723800 -21.273800 -13.809800
H -9.691200 -20.371000 -14.030600
C -9.185900 -22.186200 -14.628300
C -9.163500 -23.607300 -14.367700
F -8.620000 -21.778300 -15.779400
C -8.577100 -24.523600 -15.208400
C -8.570500 -25.926000 -14.889900
N -8.546500 -27.054000 -14.669400
C -7.930800 -24.215300 -16.451800
N -7.403600 -24.067700 -17.462900
40
Fragment
N -11.135000 -19.537300 -16.226700
C -10.607800 -19.684800 -17.237700
N -9.992100 -22.523600 -19.020200
C -9.968100 -21.395500 -18.799700
C -9.961500 -19.993100 -18.481200
F -9.918700 -17.247900 -17.910200
C -9.375100 -19.076800 -19.321900
C -9.352700 -17.655700 -19.061300
H -8.847400 -15.840500 -19.659000
C -8.814800 -16.743400 -19.879800
C -8.745000 -19.500200 -20.547700
H -8.712300 -20.403100 -20.768600
C -8.207100 -18.587900 -21.366200
C -8.184600 -17.166800 -21.105600
F -7.641100 -18.995700 -22.517300
C -7.598300 -16.250500 -21.946300
C -7.591700 -14.848100 -21.627800
N -7.567600 -13.720000 -21.407300
C -6.951900 -16.558800 -23.189800
N -6.424700 -16.706300 -24.200800
N -12.113900 -21.236800 -9.488700
C -11.586700 -21.089200 -10.499800
N -10.971000 -18.250500 -12.282300
C -10.947000 -19.378500 -12.061800
C -10.940400 -20.780900 -11.743200
F -10.897600 -23.526200 -11.172300
C -10.354000 -21.697200 -12.584000
C -10.331600 -23.118300 -12.323400
H -9.826300 -24.933500 -12.921000
C -9.793700 -24.030700 -13.141900
C -9.723800 -21.273800 -13.809800
H -9.691200 -20.371000 -14.030600
C -9.185900 -22.186200 -14.628300
C -9.163500 -23.607300 -14.367700
F -8.620000 -21.778300 -15.779400
C -8.577100 -24.523600 -15.208400
C -8.570500 -25.926000 -14.889900
N -8.546500 -27.054000 -14.669400
C -7.930800 -24.215300 -16.451800
N -7.403600 -24.067700 -17.462900
