20
Fragment
N -11.135000 -19.537300 -16.226700
C -10.607800 -19.684800 -17.237700
N -9.992100 -22.523600 -19.020200
C -9.968100 -21.395500 -18.799700
C -9.961500 -19.993100 -18.481200
F -9.918700 -17.247900 -17.910200
C -9.375100 -19.076800 -19.321900
C -9.352700 -17.655700 -19.061300
H -8.847400 -15.840500 -19.659000
C -8.814800 -16.743400 -19.879800
C -8.745000 -19.500200 -20.547700
H -8.712300 -20.403100 -20.768600
C -8.207100 -18.587900 -21.366200
C -8.184600 -17.166800 -21.105600
F -7.641100 -18.995700 -22.517300
C -7.598300 -16.250500 -21.946300
C -7.591700 -14.848100 -21.627800
N -7.567600 -13.720000 -21.407300
C -6.951900 -16.558800 -23.189800
N -6.424700 -16.706300 -24.200800
20
Fragment
N -12.113900 -12.175900 -9.488700
C -11.586700 -12.028300 -10.499800
N -10.971000 -9.189600 -12.282300
C -10.947000 -10.317600 -12.061800
C -10.940400 -11.720000 -11.743200
F -10.897600 -14.465300 -11.172300
C -10.354000 -12.636300 -12.584000
C -10.331600 -14.057400 -12.323400
H -9.826300 -15.872600 -12.921000
C -9.793700 -14.969800 -13.141900
C -9.723800 -12.212900 -13.809800
H -9.691200 -11.310100 -14.030600
C -9.185900 -13.125300 -14.628300
C -9.163500 -14.546400 -14.367700
F -8.620000 -12.717400 -15.779400
C -8.577100 -15.462700 -15.208400
C -8.570500 -16.865100 -14.889900
N -8.546500 -17.993100 -14.669400
C -7.930800 -15.154400 -16.451800
N -7.403600 -15.006800 -17.462900
40
Fragment
N -11.135000 -19.537300 -16.226700
C -10.607800 -19.684800 -17.237700
N -9.992100 -22.523600 -19.020200
C -9.968100 -21.395500 -18.799700
C -9.961500 -19.993100 -18.481200
F -9.918700 -17.247900 -17.910200
C -9.375100 -19.076800 -19.321900
C -9.352700 -17.655700 -19.061300
H -8.847400 -15.840500 -19.659000
C -8.814800 -16.743400 -19.879800
C -8.745000 -19.500200 -20.547700
H -8.712300 -20.403100 -20.768600
C -8.207100 -18.587900 -21.366200
C -8.184600 -17.166800 -21.105600
F -7.641100 -18.995700 -22.517300
C -7.598300 -16.250500 -21.946300
C -7.591700 -14.848100 -21.627800
N -7.567600 -13.720000 -21.407300
C -6.951900 -16.558800 -23.189800
N -6.424700 -16.706300 -24.200800
N -12.113900 -12.175900 -9.488700
C -11.586700 -12.028300 -10.499800
N -10.971000 -9.189600 -12.282300
C -10.947000 -10.317600 -12.061800
C -10.940400 -11.720000 -11.743200
F -10.897600 -14.465300 -11.172300
C -10.354000 -12.636300 -12.584000
C -10.331600 -14.057400 -12.323400
H -9.826300 -15.872600 -12.921000
C -9.793700 -14.969800 -13.141900
C -9.723800 -12.212900 -13.809800
H -9.691200 -11.310100 -14.030600
C -9.185900 -13.125300 -14.628300
C -9.163500 -14.546400 -14.367700
F -8.620000 -12.717400 -15.779400
C -8.577100 -15.462700 -15.208400
C -8.570500 -16.865100 -14.889900
N -8.546500 -17.993100 -14.669400
C -7.930800 -15.154400 -16.451800
N -7.403600 -15.006800 -17.462900
