20
Fragment
N -11.135000 -19.537300 -16.226700
C -10.607800 -19.684800 -17.237700
N -9.992100 -22.523600 -19.020200
C -9.968100 -21.395500 -18.799700
C -9.961500 -19.993100 -18.481200
F -9.918700 -17.247900 -17.910200
C -9.375100 -19.076800 -19.321900
C -9.352700 -17.655700 -19.061300
H -8.847400 -15.840500 -19.659000
C -8.814800 -16.743400 -19.879800
C -8.745000 -19.500200 -20.547700
H -8.712300 -20.403100 -20.768600
C -8.207100 -18.587900 -21.366200
C -8.184600 -17.166800 -21.105600
F -7.641100 -18.995700 -22.517300
C -7.598300 -16.250500 -21.946300
C -7.591700 -14.848100 -21.627800
N -7.567600 -13.720000 -21.407300
C -6.951900 -16.558800 -23.189800
N -6.424700 -16.706300 -24.200800
24
Fragment
H -14.933400 -19.728500 -16.531500
C -14.473800 -19.640300 -17.335300
H -14.465500 -21.631400 -17.822600
H -14.274700 -17.668100 -17.233600
C -14.186900 -20.794200 -18.116800
C -14.080900 -18.412700 -17.756200
C -13.509500 -20.683000 -19.288800
C -13.375500 -18.240200 -18.985600
H -13.322000 -21.448700 -19.782100
H -13.165100 -16.235500 -18.931800
C -13.079100 -19.410000 -19.777700
C -12.973600 -16.988100 -19.443600
C -12.397100 -19.255500 -20.983900
C -12.291600 -16.833600 -20.649800
H -12.205700 -20.008100 -21.495700
H -12.048700 -14.794900 -20.645400
C -11.995300 -18.003400 -21.441900
C -11.861300 -15.560600 -21.138700
C -11.289900 -17.830900 -22.671300
C -11.183900 -15.449400 -22.310700
H -11.096100 -18.575500 -23.193900
H -10.905200 -14.612200 -22.604900
C -10.896900 -16.603300 -23.092200
H -10.437400 -16.515100 -23.896000
44
Fragment
N -11.135000 -19.537300 -16.226700
C -10.607800 -19.684800 -17.237700
N -9.992100 -22.523600 -19.020200
C -9.968100 -21.395500 -18.799700
C -9.961500 -19.993100 -18.481200
F -9.918700 -17.247900 -17.910200
C -9.375100 -19.076800 -19.321900
C -9.352700 -17.655700 -19.061300
H -8.847400 -15.840500 -19.659000
C -8.814800 -16.743400 -19.879800
C -8.745000 -19.500200 -20.547700
H -8.712300 -20.403100 -20.768600
C -8.207100 -18.587900 -21.366200
C -8.184600 -17.166800 -21.105600
F -7.641100 -18.995700 -22.517300
C -7.598300 -16.250500 -21.946300
C -7.591700 -14.848100 -21.627800
N -7.567600 -13.720000 -21.407300
C -6.951900 -16.558800 -23.189800
N -6.424700 -16.706300 -24.200800
H -14.933400 -19.728500 -16.531500
C -14.473800 -19.640300 -17.335300
H -14.465500 -21.631400 -17.822600
H -14.274700 -17.668100 -17.233600
C -14.186900 -20.794200 -18.116800
C -14.080900 -18.412700 -17.756200
C -13.509500 -20.683000 -19.288800
C -13.375500 -18.240200 -18.985600
H -13.322000 -21.448700 -19.782100
H -13.165100 -16.235500 -18.931800
C -13.079100 -19.410000 -19.777700
C -12.973600 -16.988100 -19.443600
C -12.397100 -19.255500 -20.983900
C -12.291600 -16.833600 -20.649800
H -12.205700 -20.008100 -21.495700
H -12.048700 -14.794900 -20.645400
C -11.995300 -18.003400 -21.441900
C -11.861300 -15.560600 -21.138700
C -11.289900 -17.830900 -22.671300
C -11.183900 -15.449400 -22.310700
H -11.096100 -18.575500 -23.193900
H -10.905200 -14.612200 -22.604900
C -10.896900 -16.603300 -23.092200
H -10.437400 -16.515100 -23.896000
