20
Fragment
N -10.123500 -19.004200 -30.472900
C -10.123500 -17.853900 -30.584300
H -10.123500 -17.076100 -28.500700
C -10.123500 -16.422300 -30.832000
C -10.123500 -16.050900 -32.207000
C -10.123500 -15.903500 -28.458400
N -10.123500 -15.698800 -33.269000
H -10.123500 -15.644500 -26.666700
C -10.123500 -15.504800 -29.818100
C -10.123500 -15.000500 -27.471300
C -10.123500 -14.096500 -30.140700
C -10.123500 -13.592200 -27.793900
H -10.123500 -13.452500 -30.945300
N -10.123500 -13.398200 -24.343000
C -10.123500 -13.193500 -29.153600
C -10.123500 -13.046100 -25.405000
C -10.123500 -12.674700 -26.780000
H -10.123500 -12.020900 -29.111300
C -10.123500 -11.243100 -27.027700
N -10.123500 -10.092800 -27.139100
42
Fragment
H -7.652700 -14.856000 -33.109600
H -7.652700 -14.241000 -24.502400
H -7.645300 -17.107100 -34.108200
H -7.645300 -11.989900 -23.503800
H -7.600000 -18.683200 -27.576900
H -7.600000 -10.413800 -30.035100
H -6.749000 -18.280700 -26.303700
C -6.749000 -18.243800 -27.239000
H -6.749000 -17.747200 -31.926600
O -6.749000 -17.360200 -29.904500
C -6.749000 -17.002300 -31.214200
C -6.749000 -16.793800 -27.625000
C -6.749000 -16.580400 -34.081300
C -6.749000 -16.378700 -28.927000
H -6.749000 -16.241000 -34.887900
H -6.749000 -15.992700 -25.468300
C -6.749000 -15.785100 -26.624400
C -6.749000 -15.729800 -31.671200
C -6.749000 -15.402000 -33.134600
C -6.749000 -15.038300 -29.314900
C -6.749000 -14.639700 -30.701400
C -6.749000 -14.457300 -26.910600
C -6.749000 -14.058700 -28.297100
C -6.749000 -13.695000 -24.477400
C -6.749000 -13.367200 -25.940800
C -6.749000 -13.311900 -30.987600
H -6.749000 -13.104300 -32.143700
H -6.749000 -12.856000 -22.724100
C -6.749000 -12.718300 -28.685000
C -6.749000 -12.516600 -23.530700
C -6.749000 -12.303200 -29.987000
C -6.749000 -12.094700 -26.397800
O -6.749000 -11.736800 -27.707500
H -6.749000 -11.349800 -25.685400
C -6.749000 -10.853200 -30.373000
H -6.749000 -10.816300 -31.308300
H -5.898000 -18.683200 -27.576900
H -5.898000 -10.413800 -30.035100
H -5.852700 -17.107100 -34.108200
H -5.852700 -11.989900 -23.503800
H -5.845300 -14.856000 -33.109600
H -5.845300 -14.241000 -24.502400
62
Fragment
N -10.123500 -19.004200 -30.472900
C -10.123500 -17.853900 -30.584300
H -10.123500 -17.076100 -28.500700
C -10.123500 -16.422300 -30.832000
C -10.123500 -16.050900 -32.207000
C -10.123500 -15.903500 -28.458400
N -10.123500 -15.698800 -33.269000
H -10.123500 -15.644500 -26.666700
C -10.123500 -15.504800 -29.818100
C -10.123500 -15.000500 -27.471300
C -10.123500 -14.096500 -30.140700
C -10.123500 -13.592200 -27.793900
H -10.123500 -13.452500 -30.945300
N -10.123500 -13.398200 -24.343000
C -10.123500 -13.193500 -29.153600
C -10.123500 -13.046100 -25.405000
C -10.123500 -12.674700 -26.780000
H -10.123500 -12.020900 -29.111300
C -10.123500 -11.243100 -27.027700
N -10.123500 -10.092800 -27.139100
H -7.652700 -14.856000 -33.109600
H -7.652700 -14.241000 -24.502400
H -7.645300 -17.107100 -34.108200
H -7.645300 -11.989900 -23.503800
H -7.600000 -18.683200 -27.576900
H -7.600000 -10.413800 -30.035100
H -6.749000 -18.280700 -26.303700
C -6.749000 -18.243800 -27.239000
H -6.749000 -17.747200 -31.926600
O -6.749000 -17.360200 -29.904500
C -6.749000 -17.002300 -31.214200
C -6.749000 -16.793800 -27.625000
C -6.749000 -16.580400 -34.081300
C -6.749000 -16.378700 -28.927000
H -6.749000 -16.241000 -34.887900
H -6.749000 -15.992700 -25.468300
C -6.749000 -15.785100 -26.624400
C -6.749000 -15.729800 -31.671200
C -6.749000 -15.402000 -33.134600
C -6.749000 -15.038300 -29.314900
C -6.749000 -14.639700 -30.701400
C -6.749000 -14.457300 -26.910600
C -6.749000 -14.058700 -28.297100
C -6.749000 -13.695000 -24.477400
C -6.749000 -13.367200 -25.940800
C -6.749000 -13.311900 -30.987600
H -6.749000 -13.104300 -32.143700
H -6.749000 -12.856000 -22.724100
C -6.749000 -12.718300 -28.685000
C -6.749000 -12.516600 -23.530700
C -6.749000 -12.303200 -29.987000
C -6.749000 -12.094700 -26.397800
O -6.749000 -11.736800 -27.707500
H -6.749000 -11.349800 -25.685400
C -6.749000 -10.853200 -30.373000
H -6.749000 -10.816300 -31.308300
H -5.898000 -18.683200 -27.576900
H -5.898000 -10.413800 -30.035100
H -5.852700 -17.107100 -34.108200
H -5.852700 -11.989900 -23.503800
H -5.845300 -14.856000 -33.109600
H -5.845300 -14.241000 -24.502400
