20
Fragment
O -22.485500 -7.462600 -19.216500
H -21.692400 -7.125600 -21.336700
C -21.656900 -8.056100 -19.847400
O -21.293900 -7.791600 -21.071400
N -20.999800 -9.500900 -17.922700
C -20.918100 -9.210300 -19.258700
O -20.833300 -13.207700 -18.801100
C -20.244400 -10.538400 -17.793700
N -20.162800 -10.009500 -19.960900
H -20.089500 -10.990700 -16.996100
N -19.706200 -10.873900 -19.002600
N -19.676400 -13.306500 -18.952800
O -19.214700 -12.875500 -21.467200
O -19.064200 -14.286900 -18.897200
C -18.949800 -12.001200 -19.337600
N -18.649900 -12.029800 -20.830700
O -17.890900 -11.191500 -21.208000
N -17.589000 -12.073100 -18.615500
O -17.541100 -11.512300 -17.564100
O -16.726100 -12.690200 -19.162500
20
Fragment
O -22.485500 -15.625600 -19.216500
H -21.692400 -15.288600 -21.336700
C -21.656900 -16.219100 -19.847400
O -21.293900 -15.954600 -21.071400
N -20.999800 -17.663900 -17.922700
C -20.918100 -17.373300 -19.258700
O -20.833300 -21.370700 -18.801100
C -20.244400 -18.701400 -17.793700
N -20.162800 -18.172500 -19.960900
H -20.089500 -19.153700 -16.996100
N -19.706200 -19.036900 -19.002600
N -19.676400 -21.469500 -18.952800
O -19.214700 -21.038500 -21.467200
O -19.064200 -22.449900 -18.897200
C -18.949800 -20.164200 -19.337600
N -18.649900 -20.192800 -20.830700
O -17.890900 -19.354500 -21.208000
N -17.589000 -20.236100 -18.615500
O -17.541100 -19.675300 -17.564100
O -16.726100 -20.853200 -19.162500
40
Fragment
O -22.485500 -7.462600 -19.216500
H -21.692400 -7.125600 -21.336700
C -21.656900 -8.056100 -19.847400
O -21.293900 -7.791600 -21.071400
N -20.999800 -9.500900 -17.922700
C -20.918100 -9.210300 -19.258700
O -20.833300 -13.207700 -18.801100
C -20.244400 -10.538400 -17.793700
N -20.162800 -10.009500 -19.960900
H -20.089500 -10.990700 -16.996100
N -19.706200 -10.873900 -19.002600
N -19.676400 -13.306500 -18.952800
O -19.214700 -12.875500 -21.467200
O -19.064200 -14.286900 -18.897200
C -18.949800 -12.001200 -19.337600
N -18.649900 -12.029800 -20.830700
O -17.890900 -11.191500 -21.208000
N -17.589000 -12.073100 -18.615500
O -17.541100 -11.512300 -17.564100
O -16.726100 -12.690200 -19.162500
O -22.485500 -15.625600 -19.216500
H -21.692400 -15.288600 -21.336700
C -21.656900 -16.219100 -19.847400
O -21.293900 -15.954600 -21.071400
N -20.999800 -17.663900 -17.922700
C -20.918100 -17.373300 -19.258700
O -20.833300 -21.370700 -18.801100
C -20.244400 -18.701400 -17.793700
N -20.162800 -18.172500 -19.960900
H -20.089500 -19.153700 -16.996100
N -19.706200 -19.036900 -19.002600
N -19.676400 -21.469500 -18.952800
O -19.214700 -21.038500 -21.467200
O -19.064200 -22.449900 -18.897200
C -18.949800 -20.164200 -19.337600
N -18.649900 -20.192800 -20.830700
O -17.890900 -19.354500 -21.208000
N -17.589000 -20.236100 -18.615500
O -17.541100 -19.675300 -17.564100
O -16.726100 -20.853200 -19.162500
