20
Fragment
O -22.485500 -7.462600 -19.216500
H -21.692400 -7.125600 -21.336700
C -21.656900 -8.056100 -19.847400
O -21.293900 -7.791600 -21.071400
N -20.999800 -9.500900 -17.922700
C -20.918100 -9.210300 -19.258700
O -20.833300 -13.207700 -18.801100
C -20.244400 -10.538400 -17.793700
N -20.162800 -10.009500 -19.960900
H -20.089500 -10.990700 -16.996100
N -19.706200 -10.873900 -19.002600
N -19.676400 -13.306500 -18.952800
O -19.214700 -12.875500 -21.467200
O -19.064200 -14.286900 -18.897200
C -18.949800 -12.001200 -19.337600
N -18.649900 -12.029800 -20.830700
O -17.890900 -11.191500 -21.208000
N -17.589000 -12.073100 -18.615500
O -17.541100 -11.512300 -17.564100
O -16.726100 -12.690200 -19.162500
20
Fragment
O -17.440600 -8.608700 -19.048900
O -16.625600 -7.430800 -20.647300
N -16.577600 -7.991600 -19.595900
O -16.275700 -7.110000 -17.003400
N -15.516800 -7.948300 -17.380700
C -15.216800 -7.919700 -18.873800
O -15.102500 -10.205400 -19.314200
O -14.952000 -8.794000 -16.744200
N -14.490300 -9.225000 -19.258500
N -14.460500 -6.792400 -19.208800
H -14.077200 -6.909200 -21.215300
N -14.003900 -5.928000 -18.250500
C -13.922200 -6.456900 -20.417700
O -13.333400 -9.126200 -19.410300
C -13.248600 -5.128800 -18.952700
N -13.166900 -5.419400 -20.288700
O -12.872800 -3.710100 -17.140000
C -12.509700 -3.974600 -18.364000
H -12.474300 -3.044100 -16.874700
O -11.681100 -3.381100 -18.994900
40
Fragment
O -22.485500 -7.462600 -19.216500
H -21.692400 -7.125600 -21.336700
C -21.656900 -8.056100 -19.847400
O -21.293900 -7.791600 -21.071400
N -20.999800 -9.500900 -17.922700
C -20.918100 -9.210300 -19.258700
O -20.833300 -13.207700 -18.801100
C -20.244400 -10.538400 -17.793700
N -20.162800 -10.009500 -19.960900
H -20.089500 -10.990700 -16.996100
N -19.706200 -10.873900 -19.002600
N -19.676400 -13.306500 -18.952800
O -19.214700 -12.875500 -21.467200
O -19.064200 -14.286900 -18.897200
C -18.949800 -12.001200 -19.337600
N -18.649900 -12.029800 -20.830700
O -17.890900 -11.191500 -21.208000
N -17.589000 -12.073100 -18.615500
O -17.541100 -11.512300 -17.564100
O -16.726100 -12.690200 -19.162500
O -17.440600 -8.608700 -19.048900
O -16.625600 -7.430800 -20.647300
N -16.577600 -7.991600 -19.595900
O -16.275700 -7.110000 -17.003400
N -15.516800 -7.948300 -17.380700
C -15.216800 -7.919700 -18.873800
O -15.102500 -10.205400 -19.314200
O -14.952000 -8.794000 -16.744200
N -14.490300 -9.225000 -19.258500
N -14.460500 -6.792400 -19.208800
H -14.077200 -6.909200 -21.215300
N -14.003900 -5.928000 -18.250500
C -13.922200 -6.456900 -20.417700
O -13.333400 -9.126200 -19.410300
C -13.248600 -5.128800 -18.952700
N -13.166900 -5.419400 -20.288700
O -12.872800 -3.710100 -17.140000
C -12.509700 -3.974600 -18.364000
H -12.474300 -3.044100 -16.874700
O -11.681100 -3.381100 -18.994900
