20
Fragment
O -22.485500 -7.462600 -19.216500
H -21.692400 -7.125600 -21.336700
C -21.656900 -8.056100 -19.847400
O -21.293900 -7.791600 -21.071400
N -20.999800 -9.500900 -17.922700
C -20.918100 -9.210300 -19.258700
O -20.833300 -13.207700 -18.801100
C -20.244400 -10.538400 -17.793700
N -20.162800 -10.009500 -19.960900
H -20.089500 -10.990700 -16.996100
N -19.706200 -10.873900 -19.002600
N -19.676400 -13.306500 -18.952800
O -19.214700 -12.875500 -21.467200
O -19.064200 -14.286900 -18.897200
C -18.949800 -12.001200 -19.337600
N -18.649900 -12.029800 -20.830700
O -17.890900 -11.191500 -21.208000
N -17.589000 -12.073100 -18.615500
O -17.541100 -11.512300 -17.564100
O -16.726100 -12.690200 -19.162500
20
Fragment
O -22.485500 0.700400 -19.216500
H -21.692400 1.037400 -21.336700
C -21.656900 0.106900 -19.847400
O -21.293900 0.371400 -21.071400
N -20.999800 -1.337900 -17.922700
C -20.918100 -1.047300 -19.258700
O -20.833300 -5.044700 -18.801100
C -20.244400 -2.375400 -17.793700
N -20.162800 -1.846500 -19.960900
H -20.089500 -2.827700 -16.996100
N -19.706200 -2.710900 -19.002600
N -19.676400 -5.143500 -18.952800
O -19.214700 -4.712500 -21.467200
O -19.064200 -6.123900 -18.897200
C -18.949800 -3.838200 -19.337600
N -18.649900 -3.866800 -20.830700
O -17.890900 -3.028500 -21.208000
N -17.589000 -3.910100 -18.615500
O -17.541100 -3.349300 -17.564100
O -16.726100 -4.527200 -19.162500
40
Fragment
O -22.485500 -7.462600 -19.216500
H -21.692400 -7.125600 -21.336700
C -21.656900 -8.056100 -19.847400
O -21.293900 -7.791600 -21.071400
N -20.999800 -9.500900 -17.922700
C -20.918100 -9.210300 -19.258700
O -20.833300 -13.207700 -18.801100
C -20.244400 -10.538400 -17.793700
N -20.162800 -10.009500 -19.960900
H -20.089500 -10.990700 -16.996100
N -19.706200 -10.873900 -19.002600
N -19.676400 -13.306500 -18.952800
O -19.214700 -12.875500 -21.467200
O -19.064200 -14.286900 -18.897200
C -18.949800 -12.001200 -19.337600
N -18.649900 -12.029800 -20.830700
O -17.890900 -11.191500 -21.208000
N -17.589000 -12.073100 -18.615500
O -17.541100 -11.512300 -17.564100
O -16.726100 -12.690200 -19.162500
O -22.485500 0.700400 -19.216500
H -21.692400 1.037400 -21.336700
C -21.656900 0.106900 -19.847400
O -21.293900 0.371400 -21.071400
N -20.999800 -1.337900 -17.922700
C -20.918100 -1.047300 -19.258700
O -20.833300 -5.044700 -18.801100
C -20.244400 -2.375400 -17.793700
N -20.162800 -1.846500 -19.960900
H -20.089500 -2.827700 -16.996100
N -19.706200 -2.710900 -19.002600
N -19.676400 -5.143500 -18.952800
O -19.214700 -4.712500 -21.467200
O -19.064200 -6.123900 -18.897200
C -18.949800 -3.838200 -19.337600
N -18.649900 -3.866800 -20.830700
O -17.890900 -3.028500 -21.208000
N -17.589000 -3.910100 -18.615500
O -17.541100 -3.349300 -17.564100
O -16.726100 -4.527200 -19.162500
