20
Fragment
O -22.485500 -7.462600 -19.216500
H -21.692400 -7.125600 -21.336700
C -21.656900 -8.056100 -19.847400
O -21.293900 -7.791600 -21.071400
N -20.999800 -9.500900 -17.922700
C -20.918100 -9.210300 -19.258700
O -20.833300 -13.207700 -18.801100
C -20.244400 -10.538400 -17.793700
N -20.162800 -10.009500 -19.960900
H -20.089500 -10.990700 -16.996100
N -19.706200 -10.873900 -19.002600
N -19.676400 -13.306500 -18.952800
O -19.214700 -12.875500 -21.467200
O -19.064200 -14.286900 -18.897200
C -18.949800 -12.001200 -19.337600
N -18.649900 -12.029800 -20.830700
O -17.890900 -11.191500 -21.208000
N -17.589000 -12.073100 -18.615500
O -17.541100 -11.512300 -17.564100
O -16.726100 -12.690200 -19.162500
20
Fragment
O -17.567700 -11.798800 -13.590200
O -16.752700 -12.976700 -15.188500
N -16.704700 -12.415900 -14.137100
O -16.402900 -13.297500 -11.544600
N -15.643900 -12.459200 -11.922000
C -15.344000 -12.487800 -13.415000
O -15.229600 -10.202100 -13.855500
O -15.079100 -11.613500 -11.285500
N -14.617400 -11.182500 -13.799800
N -14.587600 -13.615100 -13.750000
H -14.204300 -13.498300 -15.756500
N -14.131000 -14.479500 -12.791800
C -14.049400 -13.950600 -14.958900
O -13.460500 -11.281300 -13.951500
C -13.375700 -15.278700 -13.494000
N -13.294000 -14.988100 -14.829900
O -12.999900 -16.697400 -11.681200
C -12.636800 -16.432900 -12.905200
H -12.601400 -17.363400 -11.415900
O -11.808300 -17.026400 -13.536100
40
Fragment
O -22.485500 -7.462600 -19.216500
H -21.692400 -7.125600 -21.336700
C -21.656900 -8.056100 -19.847400
O -21.293900 -7.791600 -21.071400
N -20.999800 -9.500900 -17.922700
C -20.918100 -9.210300 -19.258700
O -20.833300 -13.207700 -18.801100
C -20.244400 -10.538400 -17.793700
N -20.162800 -10.009500 -19.960900
H -20.089500 -10.990700 -16.996100
N -19.706200 -10.873900 -19.002600
N -19.676400 -13.306500 -18.952800
O -19.214700 -12.875500 -21.467200
O -19.064200 -14.286900 -18.897200
C -18.949800 -12.001200 -19.337600
N -18.649900 -12.029800 -20.830700
O -17.890900 -11.191500 -21.208000
N -17.589000 -12.073100 -18.615500
O -17.541100 -11.512300 -17.564100
O -16.726100 -12.690200 -19.162500
O -17.567700 -11.798800 -13.590200
O -16.752700 -12.976700 -15.188500
N -16.704700 -12.415900 -14.137100
O -16.402900 -13.297500 -11.544600
N -15.643900 -12.459200 -11.922000
C -15.344000 -12.487800 -13.415000
O -15.229600 -10.202100 -13.855500
O -15.079100 -11.613500 -11.285500
N -14.617400 -11.182500 -13.799800
N -14.587600 -13.615100 -13.750000
H -14.204300 -13.498300 -15.756500
N -14.131000 -14.479500 -12.791800
C -14.049400 -13.950600 -14.958900
O -13.460500 -11.281300 -13.951500
C -13.375700 -15.278700 -13.494000
N -13.294000 -14.988100 -14.829900
O -12.999900 -16.697400 -11.681200
C -12.636800 -16.432900 -12.905200
H -12.601400 -17.363400 -11.415900
O -11.808300 -17.026400 -13.536100
