20
Fragment
O -22.485500 -7.462600 -19.216500
H -21.692400 -7.125600 -21.336700
C -21.656900 -8.056100 -19.847400
O -21.293900 -7.791600 -21.071400
N -20.999800 -9.500900 -17.922700
C -20.918100 -9.210300 -19.258700
O -20.833300 -13.207700 -18.801100
C -20.244400 -10.538400 -17.793700
N -20.162800 -10.009500 -19.960900
H -20.089500 -10.990700 -16.996100
N -19.706200 -10.873900 -19.002600
N -19.676400 -13.306500 -18.952800
O -19.214700 -12.875500 -21.467200
O -19.064200 -14.286900 -18.897200
C -18.949800 -12.001200 -19.337600
N -18.649900 -12.029800 -20.830700
O -17.890900 -11.191500 -21.208000
N -17.589000 -12.073100 -18.615500
O -17.541100 -11.512300 -17.564100
O -16.726100 -12.690200 -19.162500
20
Fragment
O -22.612700 -21.107900 -13.757700
H -21.819500 -21.444900 -15.877900
C -21.784100 -20.514400 -14.388700
O -21.421000 -20.778900 -15.612600
N -21.126900 -19.069600 -12.463900
C -21.045200 -19.360200 -13.799900
O -20.960400 -15.362800 -13.342300
C -20.371600 -18.032100 -12.335000
N -20.289900 -18.561000 -14.502100
H -20.216600 -17.579800 -11.537300
N -19.833300 -17.696600 -13.543900
N -19.803500 -15.264000 -13.494100
O -19.341800 -15.695000 -16.008400
O -19.191300 -14.283600 -13.438400
C -19.077000 -16.569300 -13.878800
N -18.777000 -16.540700 -15.371900
O -18.018000 -17.379000 -15.749200
N -17.716200 -16.497400 -13.156700
O -17.668200 -17.058200 -12.105400
O -16.853200 -15.880300 -13.703700
40
Fragment
O -22.485500 -7.462600 -19.216500
H -21.692400 -7.125600 -21.336700
C -21.656900 -8.056100 -19.847400
O -21.293900 -7.791600 -21.071400
N -20.999800 -9.500900 -17.922700
C -20.918100 -9.210300 -19.258700
O -20.833300 -13.207700 -18.801100
C -20.244400 -10.538400 -17.793700
N -20.162800 -10.009500 -19.960900
H -20.089500 -10.990700 -16.996100
N -19.706200 -10.873900 -19.002600
N -19.676400 -13.306500 -18.952800
O -19.214700 -12.875500 -21.467200
O -19.064200 -14.286900 -18.897200
C -18.949800 -12.001200 -19.337600
N -18.649900 -12.029800 -20.830700
O -17.890900 -11.191500 -21.208000
N -17.589000 -12.073100 -18.615500
O -17.541100 -11.512300 -17.564100
O -16.726100 -12.690200 -19.162500
O -22.612700 -21.107900 -13.757700
H -21.819500 -21.444900 -15.877900
C -21.784100 -20.514400 -14.388700
O -21.421000 -20.778900 -15.612600
N -21.126900 -19.069600 -12.463900
C -21.045200 -19.360200 -13.799900
O -20.960400 -15.362800 -13.342300
C -20.371600 -18.032100 -12.335000
N -20.289900 -18.561000 -14.502100
H -20.216600 -17.579800 -11.537300
N -19.833300 -17.696600 -13.543900
N -19.803500 -15.264000 -13.494100
O -19.341800 -15.695000 -16.008400
O -19.191300 -14.283600 -13.438400
C -19.077000 -16.569300 -13.878800
N -18.777000 -16.540700 -15.371900
O -18.018000 -17.379000 -15.749200
N -17.716200 -16.497400 -13.156700
O -17.668200 -17.058200 -12.105400
O -16.853200 -15.880300 -13.703700
