3
Fragment
H -15.658800 -36.349700 -5.522200
O -15.351700 -35.582300 -5.431200
H -15.156800 -35.451100 -6.390600
3
Fragment
H -14.369500 -35.498300 -8.990500
O -14.174600 -35.367100 -8.031100
H -13.867500 -34.599700 -8.122100
6
Fragment
H -15.658800 -36.349700 -5.522200
O -15.351700 -35.582300 -5.431200
H -15.156800 -35.451100 -6.390600
H -14.369500 -35.498300 -8.990500
O -14.174600 -35.367100 -8.031100
H -13.867500 -34.599700 -8.122100
