16
Fragment
N -11.001600 -26.066500 -16.749700
N -10.673700 -29.978900 -16.785800
C -10.026600 -26.526400 -17.127700
C -9.815800 -29.338300 -17.167200
C -8.806700 -27.130800 -17.588200
C -8.713400 -28.531900 -17.621900
H -7.788400 -25.393000 -17.909200
C -7.722300 -26.352300 -17.960300
C -7.556100 -29.139600 -18.055700
H -7.473400 -30.074200 -18.095200
C -6.561600 -26.960000 -18.372000
C -6.481000 -28.357800 -18.439500
C -5.403400 -26.160100 -18.680200
C -5.287300 -29.000000 -18.918600
N -4.477800 -25.521200 -18.865100
N -4.366700 -29.527200 -19.327900
16
Fragment
N -6.310100 -19.747800 -15.560000
N -6.199000 -23.753800 -16.022900
C -5.389500 -20.275000 -15.969400
C -5.273500 -23.114900 -16.207800
C -4.195800 -20.917200 -16.448500
C -4.115200 -22.315000 -16.516000
H -3.203400 -19.200800 -16.792800
C -3.120700 -20.135400 -16.832300
C -2.954500 -22.922700 -16.927700
H -2.888500 -23.882000 -16.978800
C -1.963400 -20.743100 -17.266100
C -1.870100 -22.144200 -17.299800
C -0.861000 -19.936700 -17.720800
C -0.650200 -22.748600 -17.760300
N -0.003200 -19.296100 -18.102200
N 0.324800 -23.208500 -18.138300
32
Fragment
N -11.001600 -26.066500 -16.749700
N -10.673700 -29.978900 -16.785800
C -10.026600 -26.526400 -17.127700
C -9.815800 -29.338300 -17.167200
C -8.806700 -27.130800 -17.588200
C -8.713400 -28.531900 -17.621900
H -7.788400 -25.393000 -17.909200
C -7.722300 -26.352300 -17.960300
C -7.556100 -29.139600 -18.055700
H -7.473400 -30.074200 -18.095200
C -6.561600 -26.960000 -18.372000
C -6.481000 -28.357800 -18.439500
C -5.403400 -26.160100 -18.680200
C -5.287300 -29.000000 -18.918600
N -4.477800 -25.521200 -18.865100
N -4.366700 -29.527200 -19.327900
N -6.310100 -19.747800 -15.560000
N -6.199000 -23.753800 -16.022900
C -5.389500 -20.275000 -15.969400
C -5.273500 -23.114900 -16.207800
C -4.195800 -20.917200 -16.448500
C -4.115200 -22.315000 -16.516000
H -3.203400 -19.200800 -16.792800
C -3.120700 -20.135400 -16.832300
C -2.954500 -22.922700 -16.927700
H -2.888500 -23.882000 -16.978800
C -1.963400 -20.743100 -17.266100
C -1.870100 -22.144200 -17.299800
C -0.861000 -19.936700 -17.720800
C -0.650200 -22.748600 -17.760300
N -0.003200 -19.296100 -18.102200
N 0.324800 -23.208500 -18.138300
