16
Fragment
N -11.001600 -26.066500 -16.749700
N -10.673700 -29.978900 -16.785800
C -10.026600 -26.526400 -17.127700
C -9.815800 -29.338300 -17.167200
C -8.806700 -27.130800 -17.588200
C -8.713400 -28.531900 -17.621900
H -7.788400 -25.393000 -17.909200
C -7.722300 -26.352300 -17.960300
C -7.556100 -29.139600 -18.055700
H -7.473400 -30.074200 -18.095200
C -6.561600 -26.960000 -18.372000
C -6.481000 -28.357800 -18.439500
C -5.403400 -26.160100 -18.680200
C -5.287300 -29.000000 -18.918600
N -4.477800 -25.521200 -18.865100
N -4.366700 -29.527200 -19.327900
22
Fragment
H -13.562300 -24.128300 -22.293400
O -12.883100 -24.161200 -21.584000
C -11.771800 -24.732800 -21.962000
O -11.607300 -25.178200 -23.088900
H -11.469200 -27.709000 -20.235000
H -11.220700 -24.900300 -19.990800
H -10.799100 -30.008500 -20.246700
C -10.724000 -24.745900 -20.884000
C -10.541600 -28.016100 -20.546700
H -10.407000 -23.865500 -20.828100
C -10.224800 -29.344900 -20.552500
C -9.585400 -27.093000 -20.985100
C -9.580400 -25.667300 -21.129300
C -8.973400 -29.798200 -20.981600
H -8.748700 -30.764000 -20.967700
C -8.344200 -25.333900 -21.585200
C -8.317800 -27.556200 -21.387500
C -8.003200 -28.914600 -21.400300
H -7.979700 -24.456800 -21.851500
N -7.570900 -26.460700 -21.738700
H -7.163200 -29.154400 -21.653800
H -6.690300 -26.477100 -22.060800
38
Fragment
N -11.001600 -26.066500 -16.749700
N -10.673700 -29.978900 -16.785800
C -10.026600 -26.526400 -17.127700
C -9.815800 -29.338300 -17.167200
C -8.806700 -27.130800 -17.588200
C -8.713400 -28.531900 -17.621900
H -7.788400 -25.393000 -17.909200
C -7.722300 -26.352300 -17.960300
C -7.556100 -29.139600 -18.055700
H -7.473400 -30.074200 -18.095200
C -6.561600 -26.960000 -18.372000
C -6.481000 -28.357800 -18.439500
C -5.403400 -26.160100 -18.680200
C -5.287300 -29.000000 -18.918600
N -4.477800 -25.521200 -18.865100
N -4.366700 -29.527200 -19.327900
H -13.562300 -24.128300 -22.293400
O -12.883100 -24.161200 -21.584000
C -11.771800 -24.732800 -21.962000
O -11.607300 -25.178200 -23.088900
H -11.469200 -27.709000 -20.235000
H -11.220700 -24.900300 -19.990800
H -10.799100 -30.008500 -20.246700
C -10.724000 -24.745900 -20.884000
C -10.541600 -28.016100 -20.546700
H -10.407000 -23.865500 -20.828100
C -10.224800 -29.344900 -20.552500
C -9.585400 -27.093000 -20.985100
C -9.580400 -25.667300 -21.129300
C -8.973400 -29.798200 -20.981600
H -8.748700 -30.764000 -20.967700
C -8.344200 -25.333900 -21.585200
C -8.317800 -27.556200 -21.387500
C -8.003200 -28.914600 -21.400300
H -7.979700 -24.456800 -21.851500
N -7.570900 -26.460700 -21.738700
H -7.163200 -29.154400 -21.653800
H -6.690300 -26.477100 -22.060800
