16
Fragment
N -13.002700 -19.321200 -9.349500
C -11.970200 -19.790900 -9.256400
H -11.288200 -22.350200 -9.530100
C -10.679600 -20.389100 -9.127900
C -10.514100 -21.741100 -9.309900
N -9.845600 -17.045800 -8.543100
C -9.727800 -18.164700 -8.624300
C -9.574600 -19.587200 -8.783400
C -9.274200 -22.318200 -9.146000
C -9.121400 -23.734800 -9.316200
N -8.996000 -24.870500 -9.421700
C -8.322500 -20.179600 -8.615300
C -8.174900 -21.535900 -8.784800
H -7.569500 -19.558600 -8.397900
C -6.885900 -22.147500 -8.607000
N -5.862000 -22.646900 -8.450000
16
Fragment
N -15.111100 -26.260500 -12.388400
C -14.087200 -26.759900 -12.231500
H -13.403600 -29.348800 -12.440500
C -12.798200 -27.371500 -12.053600
C -12.650600 -28.727700 -12.223100
N -11.977100 -24.036800 -11.416700
C -11.851700 -25.172600 -11.522300
C -11.698900 -26.589200 -11.692400
C -11.398500 -29.320200 -12.055000
C -11.245300 -30.742600 -12.214100
N -11.127500 -31.861600 -12.295400
C -10.459000 -27.166300 -11.528500
C -10.293500 -28.518300 -11.710500
H -9.684900 -26.557200 -11.308300
C -9.002900 -29.116400 -11.582000
N -7.970400 -29.586200 -11.488900
32
Fragment
N -13.002700 -19.321200 -9.349500
C -11.970200 -19.790900 -9.256400
H -11.288200 -22.350200 -9.530100
C -10.679600 -20.389100 -9.127900
C -10.514100 -21.741100 -9.309900
N -9.845600 -17.045800 -8.543100
C -9.727800 -18.164700 -8.624300
C -9.574600 -19.587200 -8.783400
C -9.274200 -22.318200 -9.146000
C -9.121400 -23.734800 -9.316200
N -8.996000 -24.870500 -9.421700
C -8.322500 -20.179600 -8.615300
C -8.174900 -21.535900 -8.784800
H -7.569500 -19.558600 -8.397900
C -6.885900 -22.147500 -8.607000
N -5.862000 -22.646900 -8.450000
N -15.111100 -26.260500 -12.388400
C -14.087200 -26.759900 -12.231500
H -13.403600 -29.348800 -12.440500
C -12.798200 -27.371500 -12.053600
C -12.650600 -28.727700 -12.223100
N -11.977100 -24.036800 -11.416700
C -11.851700 -25.172600 -11.522300
C -11.698900 -26.589200 -11.692400
C -11.398500 -29.320200 -12.055000
C -11.245300 -30.742600 -12.214100
N -11.127500 -31.861600 -12.295400
C -10.459000 -27.166300 -11.528500
C -10.293500 -28.518300 -11.710500
H -9.684900 -26.557200 -11.308300
C -9.002900 -29.116400 -11.582000
N -7.970400 -29.586200 -11.488900
