16
Fragment
N -13.002700 -19.321200 -9.349500
C -11.970200 -19.790900 -9.256400
H -11.288200 -22.350200 -9.530100
C -10.679600 -20.389100 -9.127900
C -10.514100 -21.741100 -9.309900
N -9.845600 -17.045800 -8.543100
C -9.727800 -18.164700 -8.624300
C -9.574600 -19.587200 -8.783400
C -9.274200 -22.318200 -9.146000
C -9.121400 -23.734800 -9.316200
N -8.996000 -24.870500 -9.421700
C -8.322500 -20.179600 -8.615300
C -8.174900 -21.535900 -8.784800
H -7.569500 -19.558600 -8.397900
C -6.885900 -22.147500 -8.607000
N -5.862000 -22.646900 -8.450000
16
Fragment
N -20.892700 -19.321200 -9.349500
C -19.860200 -19.790900 -9.256400
H -19.178200 -22.350200 -9.530100
C -18.569600 -20.389100 -9.127900
C -18.404100 -21.741100 -9.309900
N -17.735600 -17.045800 -8.543100
C -17.617800 -18.164700 -8.624300
C -17.464600 -19.587200 -8.783400
C -17.164200 -22.318200 -9.146000
C -17.011400 -23.734800 -9.316200
N -16.886000 -24.870500 -9.421700
C -16.212500 -20.179600 -8.615300
C -16.064900 -21.535900 -8.784800
H -15.459500 -19.558600 -8.397900
C -14.775900 -22.147500 -8.607000
N -13.752000 -22.646900 -8.450000
32
Fragment
N -13.002700 -19.321200 -9.349500
C -11.970200 -19.790900 -9.256400
H -11.288200 -22.350200 -9.530100
C -10.679600 -20.389100 -9.127900
C -10.514100 -21.741100 -9.309900
N -9.845600 -17.045800 -8.543100
C -9.727800 -18.164700 -8.624300
C -9.574600 -19.587200 -8.783400
C -9.274200 -22.318200 -9.146000
C -9.121400 -23.734800 -9.316200
N -8.996000 -24.870500 -9.421700
C -8.322500 -20.179600 -8.615300
C -8.174900 -21.535900 -8.784800
H -7.569500 -19.558600 -8.397900
C -6.885900 -22.147500 -8.607000
N -5.862000 -22.646900 -8.450000
N -20.892700 -19.321200 -9.349500
C -19.860200 -19.790900 -9.256400
H -19.178200 -22.350200 -9.530100
C -18.569600 -20.389100 -9.127900
C -18.404100 -21.741100 -9.309900
N -17.735600 -17.045800 -8.543100
C -17.617800 -18.164700 -8.624300
C -17.464600 -19.587200 -8.783400
C -17.164200 -22.318200 -9.146000
C -17.011400 -23.734800 -9.316200
N -16.886000 -24.870500 -9.421700
C -16.212500 -20.179600 -8.615300
C -16.064900 -21.535900 -8.784800
H -15.459500 -19.558600 -8.397900
C -14.775900 -22.147500 -8.607000
N -13.752000 -22.646900 -8.450000
