50
Fragment
H -48.315200 -18.360000 0.114500
O -47.726400 -17.956500 -0.513100
O -46.985000 -20.058300 -0.809700
C -46.920000 -18.876000 -1.031600
C -45.895400 -16.837600 -2.048800
C -45.890100 -18.264000 -1.924400
N -45.878900 -15.693400 -2.156800
H -45.054100 -19.986000 -2.380700
C -44.979000 -19.051800 -2.537000
H -44.380100 -21.605300 -4.653500
H -44.126500 -16.619000 -3.831900
C -43.911600 -18.635600 -3.395900
H -43.814700 -23.451800 -3.305800
H -43.657500 -23.872700 -4.842100
C -43.612800 -17.408700 -3.960700
C -43.424900 -21.838100 -4.542000
C -43.303300 -23.301600 -4.128900
H -43.242700 -21.087400 -2.628600
H -42.971200 -21.702200 -5.411900
N -42.914200 -19.497700 -3.845300
C -42.801100 -20.929600 -3.500400
N -42.493800 -17.479600 -4.721600
H -42.360400 -23.519200 -3.973700
C -42.090800 -18.750600 -4.638000
H -41.845400 -21.162500 -3.400400
H -41.148400 -16.849900 -6.552500
C -40.903000 -19.261800 -5.314800
H -40.633400 -14.493200 -5.979200
N -40.500000 -20.532800 -5.231200
C -40.192700 -17.082800 -6.452400
N -40.079600 -18.514700 -6.107600
H -40.022700 -16.310200 -4.541000
H -39.751100 -16.925000 -7.324300
C -39.690500 -14.710800 -5.823900
C -39.568900 -16.174300 -5.410900
C -39.381000 -20.603700 -5.992100
H -39.336300 -14.139700 -5.110800
H -39.179100 -14.560600 -6.647000
C -39.082200 -19.376800 -6.557000
H -38.867300 -21.393400 -6.121000
H -38.613700 -16.407100 -5.299400
C -38.014800 -18.960600 -7.415900
H -37.939800 -18.026400 -7.572100
N -37.114900 -22.319000 -7.796100
C -37.103700 -19.748400 -8.028500
C -37.098400 -21.174800 -7.904100
C -36.073800 -19.136400 -8.921300
O -36.008800 -17.954100 -9.143200
O -35.267500 -20.055900 -9.439800
H -34.678600 -19.652400 -10.067300
10
Fragment
O -50.072100 -14.174200 1.220700
C -48.951400 -13.784200 0.959000
H -48.919300 -12.298900 2.346400
H -48.734300 -14.999700 -0.669800
C -48.314300 -12.638200 1.655200
C -48.142500 -14.461800 -0.102500
H -48.126000 -11.927300 1.008200
H -47.691500 -13.786100 -0.649400
H -47.476200 -12.933700 2.071200
H -47.473400 -15.042500 0.317000
60
Fragment
H -48.315200 -18.360000 0.114500
O -47.726400 -17.956500 -0.513100
O -46.985000 -20.058300 -0.809700
C -46.920000 -18.876000 -1.031600
C -45.895400 -16.837600 -2.048800
C -45.890100 -18.264000 -1.924400
N -45.878900 -15.693400 -2.156800
H -45.054100 -19.986000 -2.380700
C -44.979000 -19.051800 -2.537000
H -44.380100 -21.605300 -4.653500
H -44.126500 -16.619000 -3.831900
C -43.911600 -18.635600 -3.395900
H -43.814700 -23.451800 -3.305800
H -43.657500 -23.872700 -4.842100
C -43.612800 -17.408700 -3.960700
C -43.424900 -21.838100 -4.542000
C -43.303300 -23.301600 -4.128900
H -43.242700 -21.087400 -2.628600
H -42.971200 -21.702200 -5.411900
N -42.914200 -19.497700 -3.845300
C -42.801100 -20.929600 -3.500400
N -42.493800 -17.479600 -4.721600
H -42.360400 -23.519200 -3.973700
C -42.090800 -18.750600 -4.638000
H -41.845400 -21.162500 -3.400400
H -41.148400 -16.849900 -6.552500
C -40.903000 -19.261800 -5.314800
H -40.633400 -14.493200 -5.979200
N -40.500000 -20.532800 -5.231200
C -40.192700 -17.082800 -6.452400
N -40.079600 -18.514700 -6.107600
H -40.022700 -16.310200 -4.541000
H -39.751100 -16.925000 -7.324300
C -39.690500 -14.710800 -5.823900
C -39.568900 -16.174300 -5.410900
C -39.381000 -20.603700 -5.992100
H -39.336300 -14.139700 -5.110800
H -39.179100 -14.560600 -6.647000
C -39.082200 -19.376800 -6.557000
H -38.867300 -21.393400 -6.121000
H -38.613700 -16.407100 -5.299400
C -38.014800 -18.960600 -7.415900
H -37.939800 -18.026400 -7.572100
N -37.114900 -22.319000 -7.796100
C -37.103700 -19.748400 -8.028500
C -37.098400 -21.174800 -7.904100
C -36.073800 -19.136400 -8.921300
O -36.008800 -17.954100 -9.143200
O -35.267500 -20.055900 -9.439800
H -34.678600 -19.652400 -10.067300
O -50.072100 -14.174200 1.220700
C -48.951400 -13.784200 0.959000
H -48.919300 -12.298900 2.346400
H -48.734300 -14.999700 -0.669800
C -48.314300 -12.638200 1.655200
C -48.142500 -14.461800 -0.102500
H -48.126000 -11.927300 1.008200
H -47.691500 -13.786100 -0.649400
H -47.476200 -12.933700 2.071200
H -47.473400 -15.042500 0.317000
