14
Fragment
H -17.507300 -5.884100 -26.363200
N -16.746800 -6.300800 -25.863400
N -16.434200 -5.650900 -24.715700
H -16.060100 -7.993900 -27.011100
C -15.942800 -7.349300 -26.124100
H -15.571200 -4.071200 -22.583800
C -15.393600 -6.328300 -24.283700
C -15.016400 -7.402300 -25.089000
C -14.957000 -4.794800 -22.360100
N -14.780500 -5.907400 -23.069700
H -14.184900 -8.078700 -24.990300
N -14.184100 -4.835000 -21.309600
N -13.863400 -6.663900 -22.451100
N -13.505800 -6.006600 -21.396000
14
Fragment
N -12.300700 -4.595400 -24.882300
N -11.943000 -3.938100 -23.827100
N -11.622400 -5.767000 -24.968700
H -11.621500 -2.523300 -21.288000
N -11.025900 -4.694600 -23.208600
C -10.849500 -5.807200 -23.918200
C -10.790100 -3.199700 -21.189300
C -10.412900 -4.273700 -21.994500
H -10.235200 -6.530800 -23.694500
C -9.863700 -3.252700 -20.154200
H -9.746300 -2.608100 -19.267200
N -9.372200 -4.951100 -21.562600
N -9.059600 -4.301200 -20.414900
H -8.299200 -4.717900 -19.915100
28
Fragment
H -17.507300 -5.884100 -26.363200
N -16.746800 -6.300800 -25.863400
N -16.434200 -5.650900 -24.715700
H -16.060100 -7.993900 -27.011100
C -15.942800 -7.349300 -26.124100
H -15.571200 -4.071200 -22.583800
C -15.393600 -6.328300 -24.283700
C -15.016400 -7.402300 -25.089000
C -14.957000 -4.794800 -22.360100
N -14.780500 -5.907400 -23.069700
H -14.184900 -8.078700 -24.990300
N -14.184100 -4.835000 -21.309600
N -13.863400 -6.663900 -22.451100
N -13.505800 -6.006600 -21.396000
N -12.300700 -4.595400 -24.882300
N -11.943000 -3.938100 -23.827100
N -11.622400 -5.767000 -24.968700
H -11.621500 -2.523300 -21.288000
N -11.025900 -4.694600 -23.208600
C -10.849500 -5.807200 -23.918200
C -10.790100 -3.199700 -21.189300
C -10.412900 -4.273700 -21.994500
H -10.235200 -6.530800 -23.694500
C -9.863700 -3.252700 -20.154200
H -9.746300 -2.608100 -19.267200
N -9.372200 -4.951100 -21.562600
N -9.059600 -4.301200 -20.414900
H -8.299200 -4.717900 -19.915100
