14
Fragment
H -17.507300 -5.884100 -26.363200
N -16.746800 -6.300800 -25.863400
N -16.434200 -5.650900 -24.715700
H -16.060100 -7.993900 -27.011100
C -15.942800 -7.349300 -26.124100
H -15.571200 -4.071200 -22.583800
C -15.393600 -6.328300 -24.283700
C -15.016400 -7.402300 -25.089000
C -14.957000 -4.794800 -22.360100
N -14.780500 -5.907400 -23.069700
H -14.184900 -8.078700 -24.990300
N -14.184100 -4.835000 -21.309600
N -13.863400 -6.663900 -22.451100
N -13.505800 -6.006600 -21.396000
14
Fragment
N -16.601800 -3.356100 -32.595300
N -16.244100 -4.013400 -31.540200
N -15.923400 -2.184500 -32.681700
H -15.922600 -5.428200 -29.001000
N -15.327000 -3.256900 -30.921600
C -15.150500 -2.144300 -31.631200
C -15.091200 -4.751800 -28.902300
C -14.713900 -3.677800 -29.707600
H -14.536300 -1.420700 -31.407500
C -14.164800 -4.698800 -27.867200
H -14.047400 -5.343400 -26.980200
N -13.673300 -3.000400 -29.275600
N -13.360700 -3.650300 -28.127900
H -12.600300 -3.233600 -27.628100
28
Fragment
H -17.507300 -5.884100 -26.363200
N -16.746800 -6.300800 -25.863400
N -16.434200 -5.650900 -24.715700
H -16.060100 -7.993900 -27.011100
C -15.942800 -7.349300 -26.124100
H -15.571200 -4.071200 -22.583800
C -15.393600 -6.328300 -24.283700
C -15.016400 -7.402300 -25.089000
C -14.957000 -4.794800 -22.360100
N -14.780500 -5.907400 -23.069700
H -14.184900 -8.078700 -24.990300
N -14.184100 -4.835000 -21.309600
N -13.863400 -6.663900 -22.451100
N -13.505800 -6.006600 -21.396000
N -16.601800 -3.356100 -32.595300
N -16.244100 -4.013400 -31.540200
N -15.923400 -2.184500 -32.681700
H -15.922600 -5.428200 -29.001000
N -15.327000 -3.256900 -30.921600
C -15.150500 -2.144300 -31.631200
C -15.091200 -4.751800 -28.902300
C -14.713900 -3.677800 -29.707600
H -14.536300 -1.420700 -31.407500
C -14.164800 -4.698800 -27.867200
H -14.047400 -5.343400 -26.980200
N -13.673300 -3.000400 -29.275600
N -13.360700 -3.650300 -28.127900
H -12.600300 -3.233600 -27.628100
