14
Fragment
H -17.507300 -5.884100 -26.363200
N -16.746800 -6.300800 -25.863400
N -16.434200 -5.650900 -24.715700
H -16.060100 -7.993900 -27.011100
C -15.942800 -7.349300 -26.124100
H -15.571200 -4.071200 -22.583800
C -15.393600 -6.328300 -24.283700
C -15.016400 -7.402300 -25.089000
C -14.957000 -4.794800 -22.360100
N -14.780500 -5.907400 -23.069700
H -14.184900 -8.078700 -24.990300
N -14.184100 -4.835000 -21.309600
N -13.863400 -6.663900 -22.451100
N -13.505800 -6.006600 -21.396000
14
Fragment
H -21.808400 -7.368400 -34.076200
N -21.047900 -6.951700 -33.576400
N -20.735300 -7.601600 -32.428700
H -20.361200 -5.258600 -34.724100
C -20.243900 -5.903200 -33.837100
H -19.872300 -9.181300 -30.296800
C -19.694700 -6.924200 -31.996800
C -19.317400 -5.850200 -32.802000
C -19.258100 -8.457700 -30.073200
N -19.081600 -7.345100 -30.782800
H -18.486000 -5.173800 -32.703300
N -18.485200 -8.417500 -29.022600
N -18.164500 -6.588600 -30.164200
N -17.806900 -7.245900 -29.109000
28
Fragment
H -17.507300 -5.884100 -26.363200
N -16.746800 -6.300800 -25.863400
N -16.434200 -5.650900 -24.715700
H -16.060100 -7.993900 -27.011100
C -15.942800 -7.349300 -26.124100
H -15.571200 -4.071200 -22.583800
C -15.393600 -6.328300 -24.283700
C -15.016400 -7.402300 -25.089000
C -14.957000 -4.794800 -22.360100
N -14.780500 -5.907400 -23.069700
H -14.184900 -8.078700 -24.990300
N -14.184100 -4.835000 -21.309600
N -13.863400 -6.663900 -22.451100
N -13.505800 -6.006600 -21.396000
H -21.808400 -7.368400 -34.076200
N -21.047900 -6.951700 -33.576400
N -20.735300 -7.601600 -32.428700
H -20.361200 -5.258600 -34.724100
C -20.243900 -5.903200 -33.837100
H -19.872300 -9.181300 -30.296800
C -19.694700 -6.924200 -31.996800
C -19.317400 -5.850200 -32.802000
C -19.258100 -8.457700 -30.073200
N -19.081600 -7.345100 -30.782800
H -18.486000 -5.173800 -32.703300
N -18.485200 -8.417500 -29.022600
N -18.164500 -6.588600 -30.164200
N -17.806900 -7.245900 -29.109000
