14
Fragment
H -17.507300 -5.884100 -26.363200
N -16.746800 -6.300800 -25.863400
N -16.434200 -5.650900 -24.715700
H -16.060100 -7.993900 -27.011100
C -15.942800 -7.349300 -26.124100
H -15.571200 -4.071200 -22.583800
C -15.393600 -6.328300 -24.283700
C -15.016400 -7.402300 -25.089000
C -14.957000 -4.794800 -22.360100
N -14.780500 -5.907400 -23.069700
H -14.184900 -8.078700 -24.990300
N -14.184100 -4.835000 -21.309600
N -13.863400 -6.663900 -22.451100
N -13.505800 -6.006600 -21.396000
14
Fragment
H -17.507300 -11.185100 -26.363200
N -16.746800 -11.601800 -25.863400
N -16.434200 -10.951900 -24.715700
H -16.060100 -13.294900 -27.011100
C -15.942800 -12.650300 -26.124100
H -15.571200 -9.372200 -22.583800
C -15.393600 -11.629300 -24.283700
C -15.016400 -12.703300 -25.089000
C -14.957000 -10.095800 -22.360100
N -14.780500 -11.208400 -23.069700
H -14.184900 -13.379700 -24.990300
N -14.184100 -10.136000 -21.309600
N -13.863400 -11.964900 -22.451100
N -13.505800 -11.307600 -21.396000
28
Fragment
H -17.507300 -5.884100 -26.363200
N -16.746800 -6.300800 -25.863400
N -16.434200 -5.650900 -24.715700
H -16.060100 -7.993900 -27.011100
C -15.942800 -7.349300 -26.124100
H -15.571200 -4.071200 -22.583800
C -15.393600 -6.328300 -24.283700
C -15.016400 -7.402300 -25.089000
C -14.957000 -4.794800 -22.360100
N -14.780500 -5.907400 -23.069700
H -14.184900 -8.078700 -24.990300
N -14.184100 -4.835000 -21.309600
N -13.863400 -6.663900 -22.451100
N -13.505800 -6.006600 -21.396000
H -17.507300 -11.185100 -26.363200
N -16.746800 -11.601800 -25.863400
N -16.434200 -10.951900 -24.715700
H -16.060100 -13.294900 -27.011100
C -15.942800 -12.650300 -26.124100
H -15.571200 -9.372200 -22.583800
C -15.393600 -11.629300 -24.283700
C -15.016400 -12.703300 -25.089000
C -14.957000 -10.095800 -22.360100
N -14.780500 -11.208400 -23.069700
H -14.184900 -13.379700 -24.990300
N -14.184100 -10.136000 -21.309600
N -13.863400 -11.964900 -22.451100
N -13.505800 -11.307600 -21.396000
