15
Fragment
H -23.687100 -17.210600 -16.557800
H -22.925100 -17.736900 -18.641600
C -22.821000 -16.977800 -16.805100
C -22.364400 -17.294100 -18.044700
H -22.329800 -16.116100 -15.068100
C -22.015800 -16.321000 -15.919300
C -21.082900 -16.969300 -18.428800
H -20.771600 -17.204700 -19.273200
C -20.732500 -15.959700 -16.291100
C -20.264400 -16.288500 -17.548600
O -20.212500 -15.028500 -14.175400
C -19.887000 -15.221100 -15.319600
H -19.400400 -16.052400 -17.801500
O -18.746500 -14.804900 -15.818700
H -18.338500 -14.376700 -15.250500
15
Fragment
H -16.738100 -17.210600 -16.557800
H -15.976100 -17.736900 -18.641600
C -15.872000 -16.977800 -16.805100
C -15.415400 -17.294100 -18.044700
H -15.380800 -16.116100 -15.068100
C -15.066800 -16.321000 -15.919300
C -14.133900 -16.969300 -18.428800
H -13.822600 -17.204700 -19.273200
C -13.783500 -15.959700 -16.291100
C -13.315400 -16.288500 -17.548600
O -13.263500 -15.028500 -14.175400
C -12.938000 -15.221100 -15.319600
H -12.451400 -16.052400 -17.801500
O -11.797500 -14.804900 -15.818700
H -11.389500 -14.376700 -15.250500
30
Fragment
H -23.687100 -17.210600 -16.557800
H -22.925100 -17.736900 -18.641600
C -22.821000 -16.977800 -16.805100
C -22.364400 -17.294100 -18.044700
H -22.329800 -16.116100 -15.068100
C -22.015800 -16.321000 -15.919300
C -21.082900 -16.969300 -18.428800
H -20.771600 -17.204700 -19.273200
C -20.732500 -15.959700 -16.291100
C -20.264400 -16.288500 -17.548600
O -20.212500 -15.028500 -14.175400
C -19.887000 -15.221100 -15.319600
H -19.400400 -16.052400 -17.801500
O -18.746500 -14.804900 -15.818700
H -18.338500 -14.376700 -15.250500
H -16.738100 -17.210600 -16.557800
H -15.976100 -17.736900 -18.641600
C -15.872000 -16.977800 -16.805100
C -15.415400 -17.294100 -18.044700
H -15.380800 -16.116100 -15.068100
C -15.066800 -16.321000 -15.919300
C -14.133900 -16.969300 -18.428800
H -13.822600 -17.204700 -19.273200
C -13.783500 -15.959700 -16.291100
C -13.315400 -16.288500 -17.548600
O -13.263500 -15.028500 -14.175400
C -12.938000 -15.221100 -15.319600
H -12.451400 -16.052400 -17.801500
O -11.797500 -14.804900 -15.818700
H -11.389500 -14.376700 -15.250500
