15
Fragment
H -23.687100 -17.210600 -16.557800
H -22.925100 -17.736900 -18.641600
C -22.821000 -16.977800 -16.805100
C -22.364400 -17.294100 -18.044700
H -22.329800 -16.116100 -15.068100
C -22.015800 -16.321000 -15.919300
C -21.082900 -16.969300 -18.428800
H -20.771600 -17.204700 -19.273200
C -20.732500 -15.959700 -16.291100
C -20.264400 -16.288500 -17.548600
O -20.212500 -15.028500 -14.175400
C -19.887000 -15.221100 -15.319600
H -19.400400 -16.052400 -17.801500
O -18.746500 -14.804900 -15.818700
H -18.338500 -14.376700 -15.250500
15
Fragment
H -23.702200 -21.339400 -15.149600
N -22.931400 -20.945200 -15.374600
H -22.585500 -21.554900 -17.262500
N -22.451600 -19.789400 -13.310900
C -22.259600 -21.070200 -16.538000
C -22.170800 -20.172600 -14.564800
H -21.602000 -18.704700 -11.969900
C -21.474400 -19.025100 -12.833600
N -21.112300 -20.451200 -16.554600
C -21.035100 -19.872100 -15.306500
N -20.340400 -18.654500 -13.418800
C -20.066800 -19.096800 -14.697200
N -18.893100 -18.778200 -15.244000
H -18.652900 -19.118000 -16.016100
H -18.400300 -18.234700 -14.786200
30
Fragment
H -23.687100 -17.210600 -16.557800
H -22.925100 -17.736900 -18.641600
C -22.821000 -16.977800 -16.805100
C -22.364400 -17.294100 -18.044700
H -22.329800 -16.116100 -15.068100
C -22.015800 -16.321000 -15.919300
C -21.082900 -16.969300 -18.428800
H -20.771600 -17.204700 -19.273200
C -20.732500 -15.959700 -16.291100
C -20.264400 -16.288500 -17.548600
O -20.212500 -15.028500 -14.175400
C -19.887000 -15.221100 -15.319600
H -19.400400 -16.052400 -17.801500
O -18.746500 -14.804900 -15.818700
H -18.338500 -14.376700 -15.250500
H -23.702200 -21.339400 -15.149600
N -22.931400 -20.945200 -15.374600
H -22.585500 -21.554900 -17.262500
N -22.451600 -19.789400 -13.310900
C -22.259600 -21.070200 -16.538000
C -22.170800 -20.172600 -14.564800
H -21.602000 -18.704700 -11.969900
C -21.474400 -19.025100 -12.833600
N -21.112300 -20.451200 -16.554600
C -21.035100 -19.872100 -15.306500
N -20.340400 -18.654500 -13.418800
C -20.066800 -19.096800 -14.697200
N -18.893100 -18.778200 -15.244000
H -18.652900 -19.118000 -16.016100
H -18.400300 -18.234700 -14.786200
