20
Fragment
N -16.444000 -16.540300 -10.753100
N -16.281300 -20.832900 -11.260200
C -15.785500 -17.476000 -10.683100
C -15.708300 -19.875000 -10.997400
C -15.004600 -18.677900 -10.642800
C -13.674400 -18.695200 -10.280900
H -13.483900 -16.670100 -9.829900
H -13.351900 -20.731100 -10.588000
C -13.006100 -17.491200 -9.857000
C -12.924000 -19.929100 -10.311300
C -11.708800 -17.521500 -9.499100
C -11.626700 -19.959400 -9.953400
H -11.280900 -16.719400 -9.222400
H -11.148900 -20.780400 -9.980500
C -10.958400 -18.755300 -9.529500
C -9.628100 -18.772600 -9.167600
C -8.924400 -17.575500 -8.813000
C -8.847300 -19.974600 -9.127300
N -8.351500 -16.617600 -8.550200
N -8.188700 -20.910300 -9.057300
20
Fragment
N -21.591900 -27.206800 -10.727300
N -21.487000 -22.904600 -10.975000
C -20.941100 -26.266100 -10.621000
C -20.876900 -23.854000 -10.782800
C -20.156500 -25.068300 -10.530600
C -18.818500 -25.085800 -10.220900
H -18.647800 -27.138200 -9.921100
H -18.462900 -23.036900 -10.389900
C -18.152700 -26.327200 -9.913100
C -18.041800 -23.866300 -10.194400
C -16.844300 -26.353500 -9.616000
C -16.733300 -23.892600 -9.897300
H -16.423100 -27.182900 -9.420500
H -16.238200 -23.081500 -9.889400
C -16.067500 -25.134000 -9.589600
C -14.729600 -25.151500 -9.279900
C -14.009100 -26.365800 -9.027600
C -13.945000 -23.953700 -9.189400
N -13.399100 -27.315200 -8.835400
N -13.294200 -23.013000 -9.083100
40
Fragment
N -16.444000 -16.540300 -10.753100
N -16.281300 -20.832900 -11.260200
C -15.785500 -17.476000 -10.683100
C -15.708300 -19.875000 -10.997400
C -15.004600 -18.677900 -10.642800
C -13.674400 -18.695200 -10.280900
H -13.483900 -16.670100 -9.829900
H -13.351900 -20.731100 -10.588000
C -13.006100 -17.491200 -9.857000
C -12.924000 -19.929100 -10.311300
C -11.708800 -17.521500 -9.499100
C -11.626700 -19.959400 -9.953400
H -11.280900 -16.719400 -9.222400
H -11.148900 -20.780400 -9.980500
C -10.958400 -18.755300 -9.529500
C -9.628100 -18.772600 -9.167600
C -8.924400 -17.575500 -8.813000
C -8.847300 -19.974600 -9.127300
N -8.351500 -16.617600 -8.550200
N -8.188700 -20.910300 -9.057300
N -21.591900 -27.206800 -10.727300
N -21.487000 -22.904600 -10.975000
C -20.941100 -26.266100 -10.621000
C -20.876900 -23.854000 -10.782800
C -20.156500 -25.068300 -10.530600
C -18.818500 -25.085800 -10.220900
H -18.647800 -27.138200 -9.921100
H -18.462900 -23.036900 -10.389900
C -18.152700 -26.327200 -9.913100
C -18.041800 -23.866300 -10.194400
C -16.844300 -26.353500 -9.616000
C -16.733300 -23.892600 -9.897300
H -16.423100 -27.182900 -9.420500
H -16.238200 -23.081500 -9.889400
C -16.067500 -25.134000 -9.589600
C -14.729600 -25.151500 -9.279900
C -14.009100 -26.365800 -9.027600
C -13.945000 -23.953700 -9.189400
N -13.399100 -27.315200 -8.835400
N -13.294200 -23.013000 -9.083100
