20
Fragment
N -16.444000 -16.540300 -10.753100
N -16.281300 -20.832900 -11.260200
C -15.785500 -17.476000 -10.683100
C -15.708300 -19.875000 -10.997400
C -15.004600 -18.677900 -10.642800
C -13.674400 -18.695200 -10.280900
H -13.483900 -16.670100 -9.829900
H -13.351900 -20.731100 -10.588000
C -13.006100 -17.491200 -9.857000
C -12.924000 -19.929100 -10.311300
C -11.708800 -17.521500 -9.499100
C -11.626700 -19.959400 -9.953400
H -11.280900 -16.719400 -9.222400
H -11.148900 -20.780400 -9.980500
C -10.958400 -18.755300 -9.529500
C -9.628100 -18.772600 -9.167600
C -8.924400 -17.575500 -8.813000
C -8.847300 -19.974600 -9.127300
N -8.351500 -16.617600 -8.550200
N -8.188700 -20.910300 -9.057300
24
Fragment
H -22.007900 -11.929400 -14.332200
H -21.628700 -14.227200 -13.935300
C -21.141200 -12.226700 -14.081900
C -20.916200 -13.606400 -13.840200
H -20.300200 -10.403500 -14.126100
C -20.129100 -11.323000 -13.959100
C -19.683500 -14.038500 -13.473700
H -19.544800 -14.964200 -13.311300
C -18.817800 -11.737300 -13.582000
C -18.594300 -13.134500 -13.327800
H -17.910600 -9.916600 -13.632900
C -17.759500 -10.838300 -13.459200
C -17.317600 -13.557200 -12.954700
H -17.166600 -14.478900 -12.781000
C -16.482800 -11.261000 -13.086100
C -16.259300 -12.658200 -12.831900
H -15.532300 -9.431300 -13.102600
C -15.393700 -10.357000 -12.940200
C -14.948000 -13.072600 -12.454800
H -14.776900 -13.992000 -12.287700
C -14.160900 -10.789100 -12.573700
C -13.935900 -12.168800 -12.332000
H -13.448400 -10.168300 -12.478600
H -13.069200 -12.466100 -12.081700
44
Fragment
N -16.444000 -16.540300 -10.753100
N -16.281300 -20.832900 -11.260200
C -15.785500 -17.476000 -10.683100
C -15.708300 -19.875000 -10.997400
C -15.004600 -18.677900 -10.642800
C -13.674400 -18.695200 -10.280900
H -13.483900 -16.670100 -9.829900
H -13.351900 -20.731100 -10.588000
C -13.006100 -17.491200 -9.857000
C -12.924000 -19.929100 -10.311300
C -11.708800 -17.521500 -9.499100
C -11.626700 -19.959400 -9.953400
H -11.280900 -16.719400 -9.222400
H -11.148900 -20.780400 -9.980500
C -10.958400 -18.755300 -9.529500
C -9.628100 -18.772600 -9.167600
C -8.924400 -17.575500 -8.813000
C -8.847300 -19.974600 -9.127300
N -8.351500 -16.617600 -8.550200
N -8.188700 -20.910300 -9.057300
H -22.007900 -11.929400 -14.332200
H -21.628700 -14.227200 -13.935300
C -21.141200 -12.226700 -14.081900
C -20.916200 -13.606400 -13.840200
H -20.300200 -10.403500 -14.126100
C -20.129100 -11.323000 -13.959100
C -19.683500 -14.038500 -13.473700
H -19.544800 -14.964200 -13.311300
C -18.817800 -11.737300 -13.582000
C -18.594300 -13.134500 -13.327800
H -17.910600 -9.916600 -13.632900
C -17.759500 -10.838300 -13.459200
C -17.317600 -13.557200 -12.954700
H -17.166600 -14.478900 -12.781000
C -16.482800 -11.261000 -13.086100
C -16.259300 -12.658200 -12.831900
H -15.532300 -9.431300 -13.102600
C -15.393700 -10.357000 -12.940200
C -14.948000 -13.072600 -12.454800
H -14.776900 -13.992000 -12.287700
C -14.160900 -10.789100 -12.573700
C -13.935900 -12.168800 -12.332000
H -13.448400 -10.168300 -12.478600
H -13.069200 -12.466100 -12.081700
