20
Fragment
N -16.444000 -16.540300 -10.753100
N -16.281300 -20.832900 -11.260200
C -15.785500 -17.476000 -10.683100
C -15.708300 -19.875000 -10.997400
C -15.004600 -18.677900 -10.642800
C -13.674400 -18.695200 -10.280900
H -13.483900 -16.670100 -9.829900
H -13.351900 -20.731100 -10.588000
C -13.006100 -17.491200 -9.857000
C -12.924000 -19.929100 -10.311300
C -11.708800 -17.521500 -9.499100
C -11.626700 -19.959400 -9.953400
H -11.280900 -16.719400 -9.222400
H -11.148900 -20.780400 -9.980500
C -10.958400 -18.755300 -9.529500
C -9.628100 -18.772600 -9.167600
C -8.924400 -17.575500 -8.813000
C -8.847300 -19.974600 -9.127300
N -8.351500 -16.617600 -8.550200
N -8.188700 -20.910300 -9.057300
20
Fragment
N -11.338600 -14.437500 -10.727300
N -11.233700 -10.135300 -10.975000
C -10.687800 -13.496800 -10.621000
C -10.623700 -11.084700 -10.782800
C -9.903200 -12.299000 -10.530600
C -8.565200 -12.316500 -10.220900
H -8.394500 -14.369000 -9.921100
H -8.209600 -10.267600 -10.389900
C -7.899400 -13.558000 -9.913100
C -7.788500 -11.097000 -10.194400
C -6.591000 -13.584200 -9.616000
C -6.480000 -11.123300 -9.897300
H -6.169900 -14.413600 -9.420500
H -5.984900 -10.312300 -9.889400
C -5.814300 -12.364800 -9.589600
C -4.476300 -12.382300 -9.279900
C -3.755800 -13.596500 -9.027600
C -3.691700 -11.184500 -9.189400
N -3.145800 -14.546000 -8.835400
N -3.040900 -10.243700 -9.083100
40
Fragment
N -16.444000 -16.540300 -10.753100
N -16.281300 -20.832900 -11.260200
C -15.785500 -17.476000 -10.683100
C -15.708300 -19.875000 -10.997400
C -15.004600 -18.677900 -10.642800
C -13.674400 -18.695200 -10.280900
H -13.483900 -16.670100 -9.829900
H -13.351900 -20.731100 -10.588000
C -13.006100 -17.491200 -9.857000
C -12.924000 -19.929100 -10.311300
C -11.708800 -17.521500 -9.499100
C -11.626700 -19.959400 -9.953400
H -11.280900 -16.719400 -9.222400
H -11.148900 -20.780400 -9.980500
C -10.958400 -18.755300 -9.529500
C -9.628100 -18.772600 -9.167600
C -8.924400 -17.575500 -8.813000
C -8.847300 -19.974600 -9.127300
N -8.351500 -16.617600 -8.550200
N -8.188700 -20.910300 -9.057300
N -11.338600 -14.437500 -10.727300
N -11.233700 -10.135300 -10.975000
C -10.687800 -13.496800 -10.621000
C -10.623700 -11.084700 -10.782800
C -9.903200 -12.299000 -10.530600
C -8.565200 -12.316500 -10.220900
H -8.394500 -14.369000 -9.921100
H -8.209600 -10.267600 -10.389900
C -7.899400 -13.558000 -9.913100
C -7.788500 -11.097000 -10.194400
C -6.591000 -13.584200 -9.616000
C -6.480000 -11.123300 -9.897300
H -6.169900 -14.413600 -9.420500
H -5.984900 -10.312300 -9.889400
C -5.814300 -12.364800 -9.589600
C -4.476300 -12.382300 -9.279900
C -3.755800 -13.596500 -9.027600
C -3.691700 -11.184500 -9.189400
N -3.145800 -14.546000 -8.835400
N -3.040900 -10.243700 -9.083100
