22
Fragment
H -7.237000 -17.580000 -24.058900
H -7.161400 -16.749800 -21.874400
C -7.069900 -16.698700 -24.019000
C -7.003000 -16.290000 -22.687700
H -6.937400 -16.038200 -25.874400
C -6.893600 -15.801000 -24.997600
C -6.728700 -14.976300 -22.404300
O -6.668400 -14.596800 -21.090600
C -6.630400 -14.483700 -24.742300
C -6.550300 -14.082300 -23.433100
H -6.503700 -13.657100 -18.878100
H -6.440400 -13.711900 -25.402100
C -6.393900 -13.286700 -20.847100
C -6.313700 -12.885300 -19.537900
O -6.275700 -12.772200 -23.189500
C -6.215400 -12.392700 -21.875900
C -6.050500 -11.568000 -19.282500
H -6.006700 -11.330800 -18.405800
C -5.941100 -11.079000 -21.592500
C -5.874200 -10.670300 -20.261100
H -5.782700 -10.619200 -22.405800
H -5.707100 -9.789000 -20.221300
20
Fragment
N -9.517200 -13.806700 -30.883900
C -9.289200 -14.894200 -31.093500
H -9.059500 -15.983500 -28.752600
C -9.012200 -16.260800 -31.416800
C -8.966800 -16.521800 -32.826400
N -8.938100 -16.716100 -33.943700
C -8.882700 -16.934100 -29.081700
C -8.805600 -17.230600 -30.483900
H -8.782800 -17.689500 -27.276600
C -8.715000 -17.915700 -28.178400
C -8.543800 -18.576300 -30.861800
H -8.476000 -18.802500 -31.763600
C -8.453200 -19.261400 -28.556300
C -8.376200 -19.557900 -29.958500
N -8.320800 -19.775900 -25.096500
C -8.292000 -19.970200 -26.213900
C -8.246700 -20.231200 -27.623400
H -8.199300 -20.508500 -30.287600
C -7.969600 -21.597800 -27.946700
N -7.741700 -22.685300 -28.156300
42
Fragment
H -7.237000 -17.580000 -24.058900
H -7.161400 -16.749800 -21.874400
C -7.069900 -16.698700 -24.019000
C -7.003000 -16.290000 -22.687700
H -6.937400 -16.038200 -25.874400
C -6.893600 -15.801000 -24.997600
C -6.728700 -14.976300 -22.404300
O -6.668400 -14.596800 -21.090600
C -6.630400 -14.483700 -24.742300
C -6.550300 -14.082300 -23.433100
H -6.503700 -13.657100 -18.878100
H -6.440400 -13.711900 -25.402100
C -6.393900 -13.286700 -20.847100
C -6.313700 -12.885300 -19.537900
O -6.275700 -12.772200 -23.189500
C -6.215400 -12.392700 -21.875900
C -6.050500 -11.568000 -19.282500
H -6.006700 -11.330800 -18.405800
C -5.941100 -11.079000 -21.592500
C -5.874200 -10.670300 -20.261100
H -5.782700 -10.619200 -22.405800
H -5.707100 -9.789000 -20.221300
N -9.517200 -13.806700 -30.883900
C -9.289200 -14.894200 -31.093500
H -9.059500 -15.983500 -28.752600
C -9.012200 -16.260800 -31.416800
C -8.966800 -16.521800 -32.826400
N -8.938100 -16.716100 -33.943700
C -8.882700 -16.934100 -29.081700
C -8.805600 -17.230600 -30.483900
H -8.782800 -17.689500 -27.276600
C -8.715000 -17.915700 -28.178400
C -8.543800 -18.576300 -30.861800
H -8.476000 -18.802500 -31.763600
C -8.453200 -19.261400 -28.556300
C -8.376200 -19.557900 -29.958500
N -8.320800 -19.775900 -25.096500
C -8.292000 -19.970200 -26.213900
C -8.246700 -20.231200 -27.623400
H -8.199300 -20.508500 -30.287600
C -7.969600 -21.597800 -27.946700
N -7.741700 -22.685300 -28.156300
