22
Fragment
H -7.237000 -17.580000 -24.058900
H -7.161400 -16.749800 -21.874400
C -7.069900 -16.698700 -24.019000
C -7.003000 -16.290000 -22.687700
H -6.937400 -16.038200 -25.874400
C -6.893600 -15.801000 -24.997600
C -6.728700 -14.976300 -22.404300
O -6.668400 -14.596800 -21.090600
C -6.630400 -14.483700 -24.742300
C -6.550300 -14.082300 -23.433100
H -6.503700 -13.657100 -18.878100
H -6.440400 -13.711900 -25.402100
C -6.393900 -13.286700 -20.847100
C -6.313700 -12.885300 -19.537900
O -6.275700 -12.772200 -23.189500
C -6.215400 -12.392700 -21.875900
C -6.050500 -11.568000 -19.282500
H -6.006700 -11.330800 -18.405800
C -5.941100 -11.079000 -21.592500
C -5.874200 -10.670300 -20.261100
H -5.782700 -10.619200 -22.405800
H -5.707100 -9.789000 -20.221300
20
Fragment
N -3.841300 -9.000800 -23.503900
C -3.613400 -7.913300 -23.713500
H -3.383600 -6.824000 -21.372600
C -3.336300 -6.546700 -24.036700
C -3.290900 -6.285700 -25.446300
N -3.262200 -6.091400 -26.563700
C -3.206800 -5.873400 -21.701700
C -3.129800 -5.576900 -23.103900
H -3.107000 -5.118000 -19.896600
C -3.039200 -4.891800 -20.798400
C -2.868000 -4.231200 -23.481800
H -2.800100 -4.005000 -24.383600
C -2.777400 -3.546100 -21.176200
C -2.700300 -3.249600 -22.578500
N -2.644900 -3.031600 -17.716500
C -2.616200 -2.837300 -18.833800
C -2.570800 -2.576300 -20.243400
H -2.523500 -2.299000 -22.907600
C -2.293800 -1.209700 -20.566700
N -2.065800 -0.122200 -20.776300
42
Fragment
H -7.237000 -17.580000 -24.058900
H -7.161400 -16.749800 -21.874400
C -7.069900 -16.698700 -24.019000
C -7.003000 -16.290000 -22.687700
H -6.937400 -16.038200 -25.874400
C -6.893600 -15.801000 -24.997600
C -6.728700 -14.976300 -22.404300
O -6.668400 -14.596800 -21.090600
C -6.630400 -14.483700 -24.742300
C -6.550300 -14.082300 -23.433100
H -6.503700 -13.657100 -18.878100
H -6.440400 -13.711900 -25.402100
C -6.393900 -13.286700 -20.847100
C -6.313700 -12.885300 -19.537900
O -6.275700 -12.772200 -23.189500
C -6.215400 -12.392700 -21.875900
C -6.050500 -11.568000 -19.282500
H -6.006700 -11.330800 -18.405800
C -5.941100 -11.079000 -21.592500
C -5.874200 -10.670300 -20.261100
H -5.782700 -10.619200 -22.405800
H -5.707100 -9.789000 -20.221300
N -3.841300 -9.000800 -23.503900
C -3.613400 -7.913300 -23.713500
H -3.383600 -6.824000 -21.372600
C -3.336300 -6.546700 -24.036700
C -3.290900 -6.285700 -25.446300
N -3.262200 -6.091400 -26.563700
C -3.206800 -5.873400 -21.701700
C -3.129800 -5.576900 -23.103900
H -3.107000 -5.118000 -19.896600
C -3.039200 -4.891800 -20.798400
C -2.868000 -4.231200 -23.481800
H -2.800100 -4.005000 -24.383600
C -2.777400 -3.546100 -21.176200
C -2.700300 -3.249600 -22.578500
N -2.644900 -3.031600 -17.716500
C -2.616200 -2.837300 -18.833800
C -2.570800 -2.576300 -20.243400
H -2.523500 -2.299000 -22.907600
C -2.293800 -1.209700 -20.566700
N -2.065800 -0.122200 -20.776300
