22
Fragment
H -7.237000 -17.580000 -24.058900
H -7.161400 -16.749800 -21.874400
C -7.069900 -16.698700 -24.019000
C -7.003000 -16.290000 -22.687700
H -6.937400 -16.038200 -25.874400
C -6.893600 -15.801000 -24.997600
C -6.728700 -14.976300 -22.404300
O -6.668400 -14.596800 -21.090600
C -6.630400 -14.483700 -24.742300
C -6.550300 -14.082300 -23.433100
H -6.503700 -13.657100 -18.878100
H -6.440400 -13.711900 -25.402100
C -6.393900 -13.286700 -20.847100
C -6.313700 -12.885300 -19.537900
O -6.275700 -12.772200 -23.189500
C -6.215400 -12.392700 -21.875900
C -6.050500 -11.568000 -19.282500
H -6.006700 -11.330800 -18.405800
C -5.941100 -11.079000 -21.592500
C -5.874200 -10.670300 -20.261100
H -5.782700 -10.619200 -22.405800
H -5.707100 -9.789000 -20.221300
20
Fragment
N -10.878300 -27.246800 -23.503900
C -10.650400 -26.159300 -23.713500
H -10.420600 -25.070000 -21.372600
C -10.373300 -24.792700 -24.036700
C -10.327900 -24.531700 -25.446300
N -10.299200 -24.337400 -26.563700
C -10.243800 -24.119400 -21.701700
C -10.166800 -23.822900 -23.103900
H -10.144000 -23.364000 -19.896600
C -10.076200 -23.137800 -20.798400
C -9.905000 -22.477200 -23.481800
H -9.837100 -22.251000 -24.383600
C -9.814400 -21.792100 -21.176200
C -9.737300 -21.495600 -22.578500
N -9.681900 -21.277600 -17.716500
C -9.653200 -21.083300 -18.833800
C -9.607800 -20.822300 -20.243400
H -9.560500 -20.545000 -22.907600
C -9.330800 -19.455700 -20.566700
N -9.102800 -18.368200 -20.776300
42
Fragment
H -7.237000 -17.580000 -24.058900
H -7.161400 -16.749800 -21.874400
C -7.069900 -16.698700 -24.019000
C -7.003000 -16.290000 -22.687700
H -6.937400 -16.038200 -25.874400
C -6.893600 -15.801000 -24.997600
C -6.728700 -14.976300 -22.404300
O -6.668400 -14.596800 -21.090600
C -6.630400 -14.483700 -24.742300
C -6.550300 -14.082300 -23.433100
H -6.503700 -13.657100 -18.878100
H -6.440400 -13.711900 -25.402100
C -6.393900 -13.286700 -20.847100
C -6.313700 -12.885300 -19.537900
O -6.275700 -12.772200 -23.189500
C -6.215400 -12.392700 -21.875900
C -6.050500 -11.568000 -19.282500
H -6.006700 -11.330800 -18.405800
C -5.941100 -11.079000 -21.592500
C -5.874200 -10.670300 -20.261100
H -5.782700 -10.619200 -22.405800
H -5.707100 -9.789000 -20.221300
N -10.878300 -27.246800 -23.503900
C -10.650400 -26.159300 -23.713500
H -10.420600 -25.070000 -21.372600
C -10.373300 -24.792700 -24.036700
C -10.327900 -24.531700 -25.446300
N -10.299200 -24.337400 -26.563700
C -10.243800 -24.119400 -21.701700
C -10.166800 -23.822900 -23.103900
H -10.144000 -23.364000 -19.896600
C -10.076200 -23.137800 -20.798400
C -9.905000 -22.477200 -23.481800
H -9.837100 -22.251000 -24.383600
C -9.814400 -21.792100 -21.176200
C -9.737300 -21.495600 -22.578500
N -9.681900 -21.277600 -17.716500
C -9.653200 -21.083300 -18.833800
C -9.607800 -20.822300 -20.243400
H -9.560500 -20.545000 -22.907600
C -9.330800 -19.455700 -20.566700
N -9.102800 -18.368200 -20.776300
