20
Fragment
N -11.544600 -3.584200 -6.796500
N -11.443100 -6.684300 -3.825700
C -11.168900 -4.641300 -6.548200
C -11.115700 -6.376100 -4.882900
C -10.732500 -5.947300 -6.188400
C -9.990300 -6.743900 -7.034500
H -9.925600 -5.289500 -8.673000
H -9.828100 -8.413200 -5.638900
C -9.625600 -6.282100 -8.352700
C -9.568500 -8.061200 -6.630500
C -8.908700 -7.071100 -9.184600
C -8.851500 -8.850200 -7.462300
H -8.649100 -6.719100 -10.176200
H -8.551500 -9.842800 -7.142100
C -8.486900 -8.388400 -8.780500
C -7.744700 -9.185000 -9.626600
C -7.361400 -8.756200 -10.932200
C -7.308200 -10.491000 -9.266800
N -7.034100 -8.448000 -11.989400
N -6.932500 -11.548100 -9.018500
20
Fragment
N -9.574500 -12.255900 -6.796500
N -9.472900 -15.356000 -3.825700
C -9.198700 -13.313000 -6.548200
C -9.145600 -15.047800 -4.882900
C -8.762300 -14.619000 -6.188400
C -8.020100 -15.415600 -7.034500
H -7.955400 -13.961200 -8.673000
H -7.857900 -17.084900 -5.638900
C -7.655400 -14.953800 -8.352700
C -7.598300 -16.732900 -6.630500
C -6.938500 -15.742800 -9.184600
C -6.881400 -17.521900 -7.462300
H -6.678900 -15.390800 -10.176200
H -6.581400 -18.514500 -7.142100
C -6.516700 -17.060200 -8.780500
C -5.774500 -17.856700 -9.626600
C -5.391200 -17.427900 -10.932200
C -5.338100 -19.162700 -9.266800
N -5.063900 -17.119700 -11.989400
N -4.962300 -20.219800 -9.018500
40
Fragment
N -11.544600 -3.584200 -6.796500
N -11.443100 -6.684300 -3.825700
C -11.168900 -4.641300 -6.548200
C -11.115700 -6.376100 -4.882900
C -10.732500 -5.947300 -6.188400
C -9.990300 -6.743900 -7.034500
H -9.925600 -5.289500 -8.673000
H -9.828100 -8.413200 -5.638900
C -9.625600 -6.282100 -8.352700
C -9.568500 -8.061200 -6.630500
C -8.908700 -7.071100 -9.184600
C -8.851500 -8.850200 -7.462300
H -8.649100 -6.719100 -10.176200
H -8.551500 -9.842800 -7.142100
C -8.486900 -8.388400 -8.780500
C -7.744700 -9.185000 -9.626600
C -7.361400 -8.756200 -10.932200
C -7.308200 -10.491000 -9.266800
N -7.034100 -8.448000 -11.989400
N -6.932500 -11.548100 -9.018500
N -9.574500 -12.255900 -6.796500
N -9.472900 -15.356000 -3.825700
C -9.198700 -13.313000 -6.548200
C -9.145600 -15.047800 -4.882900
C -8.762300 -14.619000 -6.188400
C -8.020100 -15.415600 -7.034500
H -7.955400 -13.961200 -8.673000
H -7.857900 -17.084900 -5.638900
C -7.655400 -14.953800 -8.352700
C -7.598300 -16.732900 -6.630500
C -6.938500 -15.742800 -9.184600
C -6.881400 -17.521900 -7.462300
H -6.678900 -15.390800 -10.176200
H -6.581400 -18.514500 -7.142100
C -6.516700 -17.060200 -8.780500
C -5.774500 -17.856700 -9.626600
C -5.391200 -17.427900 -10.932200
C -5.338100 -19.162700 -9.266800
N -5.063900 -17.119700 -11.989400
N -4.962300 -20.219800 -9.018500
