30
Fragment
H -21.419900 -21.542600 -14.897200
H -21.419900 -19.206400 -14.897200
C -20.590000 -21.075400 -14.610600
C -20.590000 -19.673600 -14.610600
C -19.467200 -21.754500 -14.224000
C -19.467200 -18.994500 -14.224000
H -19.324200 -22.670000 -14.279100
H -19.324200 -18.079000 -14.279100
C -18.319300 -21.075400 -13.796100
C -18.319300 -19.673600 -13.796100
H -18.253100 -23.417100 -12.920400
H -18.253100 -17.331900 -12.920400
C -17.248500 -23.217400 -13.206400
C -17.248500 -17.531600 -13.206400
H -17.231800 -23.620800 -14.116000
H -17.231800 -17.128200 -14.116000
N -17.207300 -21.742300 -13.338200
N -17.207300 -19.006700 -13.338200
H -16.673400 -23.485000 -12.512900
H -16.673400 -17.264000 -12.512900
C -15.979500 -21.080800 -13.220000
C -15.979500 -19.668200 -13.220000
C -14.768100 -21.745000 -13.055600
C -14.768100 -19.004000 -13.055600
H -14.744200 -22.683600 -12.988400
H -14.744200 -18.065400 -12.988400
C -13.604400 -21.057700 -12.874900
C -13.604400 -19.691300 -12.874900
H -12.891100 -21.501900 -12.709900
H -12.891100 -19.247100 -12.709900
20
Fragment
N -15.245000 -29.385500 -11.101900
N -15.245000 -24.946500 -11.101900
C -14.690100 -28.388500 -10.991900
C -14.690100 -25.943500 -10.991900
C -13.960000 -27.166000 -10.801000
C -12.624600 -27.166000 -10.426700
H -12.411100 -29.189900 -10.298300
H -12.411100 -25.142100 -10.298300
C -11.916000 -28.384400 -10.254800
C -11.916000 -25.947600 -10.254800
C -10.602200 -28.392500 -10.002800
C -10.602200 -25.939500 -10.002800
H -10.052600 -29.203400 -9.822800
H -10.052600 -25.128600 -9.822800
C -9.863900 -27.166000 -9.902300
C -8.496400 -27.166000 -9.680100
C -7.769400 -28.372200 -9.549000
C -7.769400 -25.959800 -9.549000
N -7.187500 -29.362400 -9.418600
N -7.187500 -24.969600 -9.418600
50
Fragment
H -21.419900 -21.542600 -14.897200
H -21.419900 -19.206400 -14.897200
C -20.590000 -21.075400 -14.610600
C -20.590000 -19.673600 -14.610600
C -19.467200 -21.754500 -14.224000
C -19.467200 -18.994500 -14.224000
H -19.324200 -22.670000 -14.279100
H -19.324200 -18.079000 -14.279100
C -18.319300 -21.075400 -13.796100
C -18.319300 -19.673600 -13.796100
H -18.253100 -23.417100 -12.920400
H -18.253100 -17.331900 -12.920400
C -17.248500 -23.217400 -13.206400
C -17.248500 -17.531600 -13.206400
H -17.231800 -23.620800 -14.116000
H -17.231800 -17.128200 -14.116000
N -17.207300 -21.742300 -13.338200
N -17.207300 -19.006700 -13.338200
H -16.673400 -23.485000 -12.512900
H -16.673400 -17.264000 -12.512900
C -15.979500 -21.080800 -13.220000
C -15.979500 -19.668200 -13.220000
C -14.768100 -21.745000 -13.055600
C -14.768100 -19.004000 -13.055600
H -14.744200 -22.683600 -12.988400
H -14.744200 -18.065400 -12.988400
C -13.604400 -21.057700 -12.874900
C -13.604400 -19.691300 -12.874900
H -12.891100 -21.501900 -12.709900
H -12.891100 -19.247100 -12.709900
N -15.245000 -29.385500 -11.101900
N -15.245000 -24.946500 -11.101900
C -14.690100 -28.388500 -10.991900
C -14.690100 -25.943500 -10.991900
C -13.960000 -27.166000 -10.801000
C -12.624600 -27.166000 -10.426700
H -12.411100 -29.189900 -10.298300
H -12.411100 -25.142100 -10.298300
C -11.916000 -28.384400 -10.254800
C -11.916000 -25.947600 -10.254800
C -10.602200 -28.392500 -10.002800
C -10.602200 -25.939500 -10.002800
H -10.052600 -29.203400 -9.822800
H -10.052600 -25.128600 -9.822800
C -9.863900 -27.166000 -9.902300
C -8.496400 -27.166000 -9.680100
C -7.769400 -28.372200 -9.549000
C -7.769400 -25.959800 -9.549000
N -7.187500 -29.362400 -9.418600
N -7.187500 -24.969600 -9.418600
