30
Fragment
H -21.419900 -21.542600 -14.897200
H -21.419900 -19.206400 -14.897200
C -20.590000 -21.075400 -14.610600
C -20.590000 -19.673600 -14.610600
C -19.467200 -21.754500 -14.224000
C -19.467200 -18.994500 -14.224000
H -19.324200 -22.670000 -14.279100
H -19.324200 -18.079000 -14.279100
C -18.319300 -21.075400 -13.796100
C -18.319300 -19.673600 -13.796100
H -18.253100 -23.417100 -12.920400
H -18.253100 -17.331900 -12.920400
C -17.248500 -23.217400 -13.206400
C -17.248500 -17.531600 -13.206400
H -17.231800 -23.620800 -14.116000
H -17.231800 -17.128200 -14.116000
N -17.207300 -21.742300 -13.338200
N -17.207300 -19.006700 -13.338200
H -16.673400 -23.485000 -12.512900
H -16.673400 -17.264000 -12.512900
C -15.979500 -21.080800 -13.220000
C -15.979500 -19.668200 -13.220000
C -14.768100 -21.745000 -13.055600
C -14.768100 -19.004000 -13.055600
H -14.744200 -22.683600 -12.988400
H -14.744200 -18.065400 -12.988400
C -13.604400 -21.057700 -12.874900
C -13.604400 -19.691300 -12.874900
H -12.891100 -21.501900 -12.709900
H -12.891100 -19.247100 -12.709900
30
Fragment
H -27.002900 -14.751100 -14.897200
H -27.002900 -12.414900 -14.897200
C -26.173000 -14.283900 -14.610600
C -26.173000 -12.882100 -14.610600
C -25.050200 -14.963000 -14.224000
C -25.050200 -12.203000 -14.224000
H -24.907200 -15.878500 -14.279100
H -24.907200 -11.287500 -14.279100
C -23.902300 -14.283900 -13.796100
C -23.902300 -12.882100 -13.796100
H -23.836100 -16.625600 -12.920400
H -23.836100 -10.540400 -12.920400
C -22.831500 -16.425900 -13.206400
C -22.831500 -10.740100 -13.206400
H -22.814800 -16.829300 -14.116000
H -22.814800 -10.336700 -14.116000
N -22.790300 -14.950800 -13.338200
N -22.790300 -12.215200 -13.338200
H -22.256400 -16.693500 -12.512900
H -22.256400 -10.472500 -12.512900
C -21.562500 -14.289300 -13.220000
C -21.562500 -12.876700 -13.220000
C -20.351100 -14.953500 -13.055600
C -20.351100 -12.212500 -13.055600
H -20.327200 -15.892100 -12.988400
H -20.327200 -11.273900 -12.988400
C -19.187400 -14.266200 -12.874900
C -19.187400 -12.899800 -12.874900
H -18.474100 -14.710400 -12.709900
H -18.474100 -12.455600 -12.709900
60
Fragment
H -21.419900 -21.542600 -14.897200
H -21.419900 -19.206400 -14.897200
C -20.590000 -21.075400 -14.610600
C -20.590000 -19.673600 -14.610600
C -19.467200 -21.754500 -14.224000
C -19.467200 -18.994500 -14.224000
H -19.324200 -22.670000 -14.279100
H -19.324200 -18.079000 -14.279100
C -18.319300 -21.075400 -13.796100
C -18.319300 -19.673600 -13.796100
H -18.253100 -23.417100 -12.920400
H -18.253100 -17.331900 -12.920400
C -17.248500 -23.217400 -13.206400
C -17.248500 -17.531600 -13.206400
H -17.231800 -23.620800 -14.116000
H -17.231800 -17.128200 -14.116000
N -17.207300 -21.742300 -13.338200
N -17.207300 -19.006700 -13.338200
H -16.673400 -23.485000 -12.512900
H -16.673400 -17.264000 -12.512900
C -15.979500 -21.080800 -13.220000
C -15.979500 -19.668200 -13.220000
C -14.768100 -21.745000 -13.055600
C -14.768100 -19.004000 -13.055600
H -14.744200 -22.683600 -12.988400
H -14.744200 -18.065400 -12.988400
C -13.604400 -21.057700 -12.874900
C -13.604400 -19.691300 -12.874900
H -12.891100 -21.501900 -12.709900
H -12.891100 -19.247100 -12.709900
H -27.002900 -14.751100 -14.897200
H -27.002900 -12.414900 -14.897200
C -26.173000 -14.283900 -14.610600
C -26.173000 -12.882100 -14.610600
C -25.050200 -14.963000 -14.224000
C -25.050200 -12.203000 -14.224000
H -24.907200 -15.878500 -14.279100
H -24.907200 -11.287500 -14.279100
C -23.902300 -14.283900 -13.796100
C -23.902300 -12.882100 -13.796100
H -23.836100 -16.625600 -12.920400
H -23.836100 -10.540400 -12.920400
C -22.831500 -16.425900 -13.206400
C -22.831500 -10.740100 -13.206400
H -22.814800 -16.829300 -14.116000
H -22.814800 -10.336700 -14.116000
N -22.790300 -14.950800 -13.338200
N -22.790300 -12.215200 -13.338200
H -22.256400 -16.693500 -12.512900
H -22.256400 -10.472500 -12.512900
C -21.562500 -14.289300 -13.220000
C -21.562500 -12.876700 -13.220000
C -20.351100 -14.953500 -13.055600
C -20.351100 -12.212500 -13.055600
H -20.327200 -15.892100 -12.988400
H -20.327200 -11.273900 -12.988400
C -19.187400 -14.266200 -12.874900
C -19.187400 -12.899800 -12.874900
H -18.474100 -14.710400 -12.709900
H -18.474100 -12.455600 -12.709900
