20
Fragment
N -22.859500 -10.504900 -9.496000
C -22.333900 -9.488800 -9.574200
N -21.731600 -6.836100 -7.457600
C -21.697400 -7.450400 -8.429100
C -21.690200 -8.207200 -9.645000
H -21.639000 -9.345600 -12.028800
C -21.213200 -8.464100 -12.037500
C -21.141600 -7.716500 -10.805300
H -20.752600 -8.467300 -13.987700
C -20.708200 -7.968000 -13.179000
C -20.495100 -6.424500 -10.827400
H -20.450700 -5.925300 -10.018700
C -20.061700 -6.676000 -13.201100
C -19.990200 -5.928500 -11.968900
H -19.564300 -5.047000 -11.977600
C -19.513100 -6.185400 -14.361400
C -19.505900 -6.942200 -15.577400
N -19.471700 -7.556500 -16.548800
C -18.869400 -4.903800 -14.432300
N -18.343900 -3.887700 -14.510400
18
Fragment
H -22.044500 -13.327000 -18.704200
H -21.433800 -12.879500 -20.955200
C -21.431300 -12.600200 -18.929400
H -21.178600 -11.990400 -16.936500
C -21.087900 -12.336100 -20.220200
C -20.925600 -11.804300 -17.879000
C -20.228100 -11.255600 -20.534800
H -20.217800 -11.495000 -22.574000
C -20.094300 -10.755400 -18.142700
C -19.857300 -10.950700 -21.868000
H -19.733800 -10.211000 -17.436700
C -19.723500 -10.450400 -19.475800
C -19.026000 -9.901700 -22.131700
C -18.863800 -9.370000 -19.790500
H -18.773000 -9.715600 -23.074200
C -18.520400 -9.105800 -21.081300
H -18.517800 -8.826500 -19.055500
H -17.907100 -8.379100 -21.306500
38
Fragment
N -22.859500 -10.504900 -9.496000
C -22.333900 -9.488800 -9.574200
N -21.731600 -6.836100 -7.457600
C -21.697400 -7.450400 -8.429100
C -21.690200 -8.207200 -9.645000
H -21.639000 -9.345600 -12.028800
C -21.213200 -8.464100 -12.037500
C -21.141600 -7.716500 -10.805300
H -20.752600 -8.467300 -13.987700
C -20.708200 -7.968000 -13.179000
C -20.495100 -6.424500 -10.827400
H -20.450700 -5.925300 -10.018700
C -20.061700 -6.676000 -13.201100
C -19.990200 -5.928500 -11.968900
H -19.564300 -5.047000 -11.977600
C -19.513100 -6.185400 -14.361400
C -19.505900 -6.942200 -15.577400
N -19.471700 -7.556500 -16.548800
C -18.869400 -4.903800 -14.432300
N -18.343900 -3.887700 -14.510400
H -22.044500 -13.327000 -18.704200
H -21.433800 -12.879500 -20.955200
C -21.431300 -12.600200 -18.929400
H -21.178600 -11.990400 -16.936500
C -21.087900 -12.336100 -20.220200
C -20.925600 -11.804300 -17.879000
C -20.228100 -11.255600 -20.534800
H -20.217800 -11.495000 -22.574000
C -20.094300 -10.755400 -18.142700
C -19.857300 -10.950700 -21.868000
H -19.733800 -10.211000 -17.436700
C -19.723500 -10.450400 -19.475800
C -19.026000 -9.901700 -22.131700
C -18.863800 -9.370000 -19.790500
H -18.773000 -9.715600 -23.074200
C -18.520400 -9.105800 -21.081300
H -18.517800 -8.826500 -19.055500
H -17.907100 -8.379100 -21.306500
