20
Fragment
N -22.859500 -10.504900 -9.496000
C -22.333900 -9.488800 -9.574200
N -21.731600 -6.836100 -7.457600
C -21.697400 -7.450400 -8.429100
C -21.690200 -8.207200 -9.645000
H -21.639000 -9.345600 -12.028800
C -21.213200 -8.464100 -12.037500
C -21.141600 -7.716500 -10.805300
H -20.752600 -8.467300 -13.987700
C -20.708200 -7.968000 -13.179000
C -20.495100 -6.424500 -10.827400
H -20.450700 -5.925300 -10.018700
C -20.061700 -6.676000 -13.201100
C -19.990200 -5.928500 -11.968900
H -19.564300 -5.047000 -11.977600
C -19.513100 -6.185400 -14.361400
C -19.505900 -6.942200 -15.577400
N -19.471700 -7.556500 -16.548800
C -18.869400 -4.903800 -14.432300
N -18.343900 -3.887700 -14.510400
18
Fragment
H -28.287100 -13.092600 -10.702100
H -27.676400 -12.645200 -12.953100
C -27.673900 -12.365900 -10.927200
H -27.421200 -11.756100 -8.934400
C -27.330500 -12.101800 -12.218100
C -27.168200 -11.570000 -9.876900
C -26.470700 -11.021300 -12.532700
H -26.460400 -11.260700 -14.571900
C -26.336900 -10.521000 -10.140500
C -26.099900 -10.716400 -13.865900
H -25.976400 -9.976700 -9.434500
C -25.966100 -10.216100 -11.473700
C -25.268600 -9.667400 -14.129500
C -25.106400 -9.135600 -11.788300
H -25.015600 -9.481300 -15.072000
C -24.763000 -8.871500 -13.079200
H -24.760400 -8.592200 -11.053400
H -24.149700 -8.144800 -13.304400
38
Fragment
N -22.859500 -10.504900 -9.496000
C -22.333900 -9.488800 -9.574200
N -21.731600 -6.836100 -7.457600
C -21.697400 -7.450400 -8.429100
C -21.690200 -8.207200 -9.645000
H -21.639000 -9.345600 -12.028800
C -21.213200 -8.464100 -12.037500
C -21.141600 -7.716500 -10.805300
H -20.752600 -8.467300 -13.987700
C -20.708200 -7.968000 -13.179000
C -20.495100 -6.424500 -10.827400
H -20.450700 -5.925300 -10.018700
C -20.061700 -6.676000 -13.201100
C -19.990200 -5.928500 -11.968900
H -19.564300 -5.047000 -11.977600
C -19.513100 -6.185400 -14.361400
C -19.505900 -6.942200 -15.577400
N -19.471700 -7.556500 -16.548800
C -18.869400 -4.903800 -14.432300
N -18.343900 -3.887700 -14.510400
H -28.287100 -13.092600 -10.702100
H -27.676400 -12.645200 -12.953100
C -27.673900 -12.365900 -10.927200
H -27.421200 -11.756100 -8.934400
C -27.330500 -12.101800 -12.218100
C -27.168200 -11.570000 -9.876900
C -26.470700 -11.021300 -12.532700
H -26.460400 -11.260700 -14.571900
C -26.336900 -10.521000 -10.140500
C -26.099900 -10.716400 -13.865900
H -25.976400 -9.976700 -9.434500
C -25.966100 -10.216100 -11.473700
C -25.268600 -9.667400 -14.129500
C -25.106400 -9.135600 -11.788300
H -25.015600 -9.481300 -15.072000
C -24.763000 -8.871500 -13.079200
H -24.760400 -8.592200 -11.053400
H -24.149700 -8.144800 -13.304400
