20
Fragment
N -22.859500 -10.504900 -9.496000
C -22.333900 -9.488800 -9.574200
N -21.731600 -6.836100 -7.457600
C -21.697400 -7.450400 -8.429100
C -21.690200 -8.207200 -9.645000
H -21.639000 -9.345600 -12.028800
C -21.213200 -8.464100 -12.037500
C -21.141600 -7.716500 -10.805300
H -20.752600 -8.467300 -13.987700
C -20.708200 -7.968000 -13.179000
C -20.495100 -6.424500 -10.827400
H -20.450700 -5.925300 -10.018700
C -20.061700 -6.676000 -13.201100
C -19.990200 -5.928500 -11.968900
H -19.564300 -5.047000 -11.977600
C -19.513100 -6.185400 -14.361400
C -19.505900 -6.942200 -15.577400
N -19.471700 -7.556500 -16.548800
C -18.869400 -4.903800 -14.432300
N -18.343900 -3.887700 -14.510400
20
Fragment
N -21.609200 -10.270600 -1.493800
C -21.083700 -9.254500 -1.572000
N -20.481400 -6.601800 0.544500
C -20.447200 -7.216100 -0.426900
C -20.440000 -7.972900 -1.642800
H -20.388800 -9.111300 -4.026700
C -19.963000 -8.229700 -4.035400
C -19.891400 -7.482200 -2.803100
H -19.502400 -8.233000 -5.985600
C -19.458000 -7.733700 -5.176900
C -19.244900 -6.190200 -2.825200
H -19.200500 -5.691000 -2.016500
C -18.811500 -6.441700 -5.199000
C -18.740000 -5.694200 -3.966700
H -18.314100 -4.812600 -3.975500
C -18.262900 -5.951100 -6.359300
C -18.255700 -6.707900 -7.575200
N -18.221500 -7.322200 -8.546700
C -17.619200 -4.669400 -6.430100
N -17.093700 -3.653400 -6.508300
40
Fragment
N -22.859500 -10.504900 -9.496000
C -22.333900 -9.488800 -9.574200
N -21.731600 -6.836100 -7.457600
C -21.697400 -7.450400 -8.429100
C -21.690200 -8.207200 -9.645000
H -21.639000 -9.345600 -12.028800
C -21.213200 -8.464100 -12.037500
C -21.141600 -7.716500 -10.805300
H -20.752600 -8.467300 -13.987700
C -20.708200 -7.968000 -13.179000
C -20.495100 -6.424500 -10.827400
H -20.450700 -5.925300 -10.018700
C -20.061700 -6.676000 -13.201100
C -19.990200 -5.928500 -11.968900
H -19.564300 -5.047000 -11.977600
C -19.513100 -6.185400 -14.361400
C -19.505900 -6.942200 -15.577400
N -19.471700 -7.556500 -16.548800
C -18.869400 -4.903800 -14.432300
N -18.343900 -3.887700 -14.510400
N -21.609200 -10.270600 -1.493800
C -21.083700 -9.254500 -1.572000
N -20.481400 -6.601800 0.544500
C -20.447200 -7.216100 -0.426900
C -20.440000 -7.972900 -1.642800
H -20.388800 -9.111300 -4.026700
C -19.963000 -8.229700 -4.035400
C -19.891400 -7.482200 -2.803100
H -19.502400 -8.233000 -5.985600
C -19.458000 -7.733700 -5.176900
C -19.244900 -6.190200 -2.825200
H -19.200500 -5.691000 -2.016500
C -18.811500 -6.441700 -5.199000
C -18.740000 -5.694200 -3.966700
H -18.314100 -4.812600 -3.975500
C -18.262900 -5.951100 -6.359300
C -18.255700 -6.707900 -7.575200
N -18.221500 -7.322200 -8.546700
C -17.619200 -4.669400 -6.430100
N -17.093700 -3.653400 -6.508300
