20
Fragment
N -22.859500 -10.504900 -9.496000
C -22.333900 -9.488800 -9.574200
N -21.731600 -6.836100 -7.457600
C -21.697400 -7.450400 -8.429100
C -21.690200 -8.207200 -9.645000
H -21.639000 -9.345600 -12.028800
C -21.213200 -8.464100 -12.037500
C -21.141600 -7.716500 -10.805300
H -20.752600 -8.467300 -13.987700
C -20.708200 -7.968000 -13.179000
C -20.495100 -6.424500 -10.827400
H -20.450700 -5.925300 -10.018700
C -20.061700 -6.676000 -13.201100
C -19.990200 -5.928500 -11.968900
H -19.564300 -5.047000 -11.977600
C -19.513100 -6.185400 -14.361400
C -19.505900 -6.942200 -15.577400
N -19.471700 -7.556500 -16.548800
C -18.869400 -4.903800 -14.432300
N -18.343900 -3.887700 -14.510400
18
Fragment
H -24.546400 -6.247800 -10.702100
H -23.935700 -5.800400 -12.953100
C -23.933100 -5.521100 -10.927200
H -23.680500 -4.911300 -8.934400
C -23.589700 -5.256900 -12.218100
C -23.427500 -4.725200 -9.876900
C -22.730000 -4.176500 -12.532700
H -22.719700 -4.415900 -14.571900
C -22.596200 -3.676200 -10.140500
C -22.359200 -3.871500 -13.865900
H -22.235700 -3.131900 -9.434500
C -22.225400 -3.371300 -11.473700
C -21.527900 -2.822600 -14.129500
C -21.365700 -2.290800 -11.788300
H -21.274900 -2.636500 -15.072000
C -21.022200 -2.026700 -13.079200
H -21.019700 -1.747400 -11.053400
H -20.409000 -1.299900 -13.304400
38
Fragment
N -22.859500 -10.504900 -9.496000
C -22.333900 -9.488800 -9.574200
N -21.731600 -6.836100 -7.457600
C -21.697400 -7.450400 -8.429100
C -21.690200 -8.207200 -9.645000
H -21.639000 -9.345600 -12.028800
C -21.213200 -8.464100 -12.037500
C -21.141600 -7.716500 -10.805300
H -20.752600 -8.467300 -13.987700
C -20.708200 -7.968000 -13.179000
C -20.495100 -6.424500 -10.827400
H -20.450700 -5.925300 -10.018700
C -20.061700 -6.676000 -13.201100
C -19.990200 -5.928500 -11.968900
H -19.564300 -5.047000 -11.977600
C -19.513100 -6.185400 -14.361400
C -19.505900 -6.942200 -15.577400
N -19.471700 -7.556500 -16.548800
C -18.869400 -4.903800 -14.432300
N -18.343900 -3.887700 -14.510400
H -24.546400 -6.247800 -10.702100
H -23.935700 -5.800400 -12.953100
C -23.933100 -5.521100 -10.927200
H -23.680500 -4.911300 -8.934400
C -23.589700 -5.256900 -12.218100
C -23.427500 -4.725200 -9.876900
C -22.730000 -4.176500 -12.532700
H -22.719700 -4.415900 -14.571900
C -22.596200 -3.676200 -10.140500
C -22.359200 -3.871500 -13.865900
H -22.235700 -3.131900 -9.434500
C -22.225400 -3.371300 -11.473700
C -21.527900 -2.822600 -14.129500
C -21.365700 -2.290800 -11.788300
H -21.274900 -2.636500 -15.072000
C -21.022200 -2.026700 -13.079200
H -21.019700 -1.747400 -11.053400
H -20.409000 -1.299900 -13.304400
