22
Fragment
H -13.649600 -6.707600 -9.444600
H -12.882400 -4.618200 -8.913800
C -12.810900 -6.697900 -9.157800
H -12.468700 -8.672500 -9.270300
C -12.313400 -5.486000 -8.836900
C -12.024500 -7.859700 -9.035000
C -10.980500 -5.360200 -8.366300
C -10.744500 -7.797800 -8.570700
N -10.501400 -4.133900 -8.071500
C -10.177400 -6.536700 -8.231600
H -10.111600 -8.628000 -8.493800
H -9.310400 -1.994600 -7.352900
C -9.244500 -4.085800 -7.615100
N -8.920500 -6.488700 -7.775200
C -8.677500 -2.824800 -7.276000
C -8.441400 -5.262400 -7.480400
C -7.397400 -2.762900 -6.811700
C -7.108500 -5.136600 -7.009800
H -6.953200 -1.950100 -6.576400
C -6.611000 -3.924600 -6.688900
H -6.539600 -6.004400 -6.932900
H -5.772300 -3.915000 -6.402100
20
Fragment
N -5.784100 0.428400 -5.577200
C -4.783200 -0.033300 -5.254800
C -3.511900 -0.621000 -4.864900
C -3.452000 -2.038200 -4.941000
N -3.416800 -3.176800 -4.992500
H -3.370300 1.967200 -4.484600
C -2.556400 1.559800 -4.279400
C -2.458000 0.129100 -4.430700
H -1.621500 3.260400 -3.700200
C -1.517500 2.282700 -3.834900
C -1.214900 -0.489100 -4.088400
H -1.110900 -1.466800 -4.223100
C -0.274400 1.664500 -3.492600
C -0.176000 0.233700 -3.643900
H 0.637900 -0.173600 -3.438700
N 0.684400 4.970400 -2.930800
C 0.719700 3.831800 -2.982300
C 0.779500 2.414500 -3.058400
C 2.050800 1.826800 -2.668600
N 3.051800 1.365200 -2.346100
42
Fragment
H -13.649600 -6.707600 -9.444600
H -12.882400 -4.618200 -8.913800
C -12.810900 -6.697900 -9.157800
H -12.468700 -8.672500 -9.270300
C -12.313400 -5.486000 -8.836900
C -12.024500 -7.859700 -9.035000
C -10.980500 -5.360200 -8.366300
C -10.744500 -7.797800 -8.570700
N -10.501400 -4.133900 -8.071500
C -10.177400 -6.536700 -8.231600
H -10.111600 -8.628000 -8.493800
H -9.310400 -1.994600 -7.352900
C -9.244500 -4.085800 -7.615100
N -8.920500 -6.488700 -7.775200
C -8.677500 -2.824800 -7.276000
C -8.441400 -5.262400 -7.480400
C -7.397400 -2.762900 -6.811700
C -7.108500 -5.136600 -7.009800
H -6.953200 -1.950100 -6.576400
C -6.611000 -3.924600 -6.688900
H -6.539600 -6.004400 -6.932900
H -5.772300 -3.915000 -6.402100
N -5.784100 0.428400 -5.577200
C -4.783200 -0.033300 -5.254800
C -3.511900 -0.621000 -4.864900
C -3.452000 -2.038200 -4.941000
N -3.416800 -3.176800 -4.992500
H -3.370300 1.967200 -4.484600
C -2.556400 1.559800 -4.279400
C -2.458000 0.129100 -4.430700
H -1.621500 3.260400 -3.700200
C -1.517500 2.282700 -3.834900
C -1.214900 -0.489100 -4.088400
H -1.110900 -1.466800 -4.223100
C -0.274400 1.664500 -3.492600
C -0.176000 0.233700 -3.643900
H 0.637900 -0.173600 -3.438700
N 0.684400 4.970400 -2.930800
C 0.719700 3.831800 -2.982300
C 0.779500 2.414500 -3.058400
C 2.050800 1.826800 -2.668600
N 3.051800 1.365200 -2.346100
