22
Fragment
H -13.649600 -6.707600 -9.444600
H -12.882400 -4.618200 -8.913800
C -12.810900 -6.697900 -9.157800
H -12.468700 -8.672500 -9.270300
C -12.313400 -5.486000 -8.836900
C -12.024500 -7.859700 -9.035000
C -10.980500 -5.360200 -8.366300
C -10.744500 -7.797800 -8.570700
N -10.501400 -4.133900 -8.071500
C -10.177400 -6.536700 -8.231600
H -10.111600 -8.628000 -8.493800
H -9.310400 -1.994600 -7.352900
C -9.244500 -4.085800 -7.615100
N -8.920500 -6.488700 -7.775200
C -8.677500 -2.824800 -7.276000
C -8.441400 -5.262400 -7.480400
C -7.397400 -2.762900 -6.811700
C -7.108500 -5.136600 -7.009800
H -6.953200 -1.950100 -6.576400
C -6.611000 -3.924600 -6.688900
H -6.539600 -6.004400 -6.932900
H -5.772300 -3.915000 -6.402100
22
Fragment
H -5.212600 -6.707600 -9.444600
H -4.445400 -4.618200 -8.913800
C -4.373900 -6.697900 -9.157800
H -4.031700 -8.672500 -9.270300
C -3.876400 -5.486000 -8.836900
C -3.587500 -7.859700 -9.035000
C -2.543500 -5.360200 -8.366300
C -2.307500 -7.797800 -8.570700
N -2.064400 -4.133900 -8.071500
C -1.740400 -6.536700 -8.231600
H -1.674600 -8.628000 -8.493800
H -0.873400 -1.994600 -7.352900
C -0.807500 -4.085800 -7.615100
N -0.483500 -6.488700 -7.775200
C -0.240500 -2.824800 -7.276000
C -0.004400 -5.262400 -7.480400
C 1.039600 -2.762900 -6.811700
C 1.328500 -5.136600 -7.009800
H 1.483800 -1.950100 -6.576400
C 1.826000 -3.924600 -6.688900
H 1.897400 -6.004400 -6.932900
H 2.664700 -3.915000 -6.402100
44
Fragment
H -13.649600 -6.707600 -9.444600
H -12.882400 -4.618200 -8.913800
C -12.810900 -6.697900 -9.157800
H -12.468700 -8.672500 -9.270300
C -12.313400 -5.486000 -8.836900
C -12.024500 -7.859700 -9.035000
C -10.980500 -5.360200 -8.366300
C -10.744500 -7.797800 -8.570700
N -10.501400 -4.133900 -8.071500
C -10.177400 -6.536700 -8.231600
H -10.111600 -8.628000 -8.493800
H -9.310400 -1.994600 -7.352900
C -9.244500 -4.085800 -7.615100
N -8.920500 -6.488700 -7.775200
C -8.677500 -2.824800 -7.276000
C -8.441400 -5.262400 -7.480400
C -7.397400 -2.762900 -6.811700
C -7.108500 -5.136600 -7.009800
H -6.953200 -1.950100 -6.576400
C -6.611000 -3.924600 -6.688900
H -6.539600 -6.004400 -6.932900
H -5.772300 -3.915000 -6.402100
H -5.212600 -6.707600 -9.444600
H -4.445400 -4.618200 -8.913800
C -4.373900 -6.697900 -9.157800
H -4.031700 -8.672500 -9.270300
C -3.876400 -5.486000 -8.836900
C -3.587500 -7.859700 -9.035000
C -2.543500 -5.360200 -8.366300
C -2.307500 -7.797800 -8.570700
N -2.064400 -4.133900 -8.071500
C -1.740400 -6.536700 -8.231600
H -1.674600 -8.628000 -8.493800
H -0.873400 -1.994600 -7.352900
C -0.807500 -4.085800 -7.615100
N -0.483500 -6.488700 -7.775200
C -0.240500 -2.824800 -7.276000
C -0.004400 -5.262400 -7.480400
C 1.039600 -2.762900 -6.811700
C 1.328500 -5.136600 -7.009800
H 1.483800 -1.950100 -6.576400
C 1.826000 -3.924600 -6.688900
H 1.897400 -6.004400 -6.932900
H 2.664700 -3.915000 -6.402100
