22
Fragment
H -13.649600 -6.707600 -9.444600
H -12.882400 -4.618200 -8.913800
C -12.810900 -6.697900 -9.157800
H -12.468700 -8.672500 -9.270300
C -12.313400 -5.486000 -8.836900
C -12.024500 -7.859700 -9.035000
C -10.980500 -5.360200 -8.366300
C -10.744500 -7.797800 -8.570700
N -10.501400 -4.133900 -8.071500
C -10.177400 -6.536700 -8.231600
H -10.111600 -8.628000 -8.493800
H -9.310400 -1.994600 -7.352900
C -9.244500 -4.085800 -7.615100
N -8.920500 -6.488700 -7.775200
C -8.677500 -2.824800 -7.276000
C -8.441400 -5.262400 -7.480400
C -7.397400 -2.762900 -6.811700
C -7.108500 -5.136600 -7.009800
H -6.953200 -1.950100 -6.576400
C -6.611000 -3.924600 -6.688900
H -6.539600 -6.004400 -6.932900
H -5.772300 -3.915000 -6.402100
20
Fragment
N -22.473700 -11.987800 -13.500600
C -21.472800 -12.449400 -13.178100
C -20.201400 -13.037100 -12.788300
C -20.141600 -14.454400 -12.864300
N -20.106300 -15.593000 -12.915800
H -20.059800 -10.448900 -12.407900
C -19.245900 -10.856300 -12.202700
C -19.147600 -12.287100 -12.354100
H -18.311000 -9.155800 -11.623500
C -18.207100 -10.133500 -11.758200
C -17.904400 -12.905300 -12.011800
H -17.800500 -13.882900 -12.146500
C -16.963900 -10.751700 -11.415900
C -16.865500 -12.182400 -11.567300
H -16.051600 -12.589800 -11.362100
N -16.005200 -7.445700 -10.854200
C -15.969900 -8.584400 -10.905700
C -15.910100 -10.001600 -10.981700
C -14.638700 -10.589300 -10.591900
N -13.637800 -11.051000 -10.269400
42
Fragment
H -13.649600 -6.707600 -9.444600
H -12.882400 -4.618200 -8.913800
C -12.810900 -6.697900 -9.157800
H -12.468700 -8.672500 -9.270300
C -12.313400 -5.486000 -8.836900
C -12.024500 -7.859700 -9.035000
C -10.980500 -5.360200 -8.366300
C -10.744500 -7.797800 -8.570700
N -10.501400 -4.133900 -8.071500
C -10.177400 -6.536700 -8.231600
H -10.111600 -8.628000 -8.493800
H -9.310400 -1.994600 -7.352900
C -9.244500 -4.085800 -7.615100
N -8.920500 -6.488700 -7.775200
C -8.677500 -2.824800 -7.276000
C -8.441400 -5.262400 -7.480400
C -7.397400 -2.762900 -6.811700
C -7.108500 -5.136600 -7.009800
H -6.953200 -1.950100 -6.576400
C -6.611000 -3.924600 -6.688900
H -6.539600 -6.004400 -6.932900
H -5.772300 -3.915000 -6.402100
N -22.473700 -11.987800 -13.500600
C -21.472800 -12.449400 -13.178100
C -20.201400 -13.037100 -12.788300
C -20.141600 -14.454400 -12.864300
N -20.106300 -15.593000 -12.915800
H -20.059800 -10.448900 -12.407900
C -19.245900 -10.856300 -12.202700
C -19.147600 -12.287100 -12.354100
H -18.311000 -9.155800 -11.623500
C -18.207100 -10.133500 -11.758200
C -17.904400 -12.905300 -12.011800
H -17.800500 -13.882900 -12.146500
C -16.963900 -10.751700 -11.415900
C -16.865500 -12.182400 -11.567300
H -16.051600 -12.589800 -11.362100
N -16.005200 -7.445700 -10.854200
C -15.969900 -8.584400 -10.905700
C -15.910100 -10.001600 -10.981700
C -14.638700 -10.589300 -10.591900
N -13.637800 -11.051000 -10.269400
