22
Fragment
H -13.649600 -6.707600 -9.444600
H -12.882400 -4.618200 -8.913800
C -12.810900 -6.697900 -9.157800
H -12.468700 -8.672500 -9.270300
C -12.313400 -5.486000 -8.836900
C -12.024500 -7.859700 -9.035000
C -10.980500 -5.360200 -8.366300
C -10.744500 -7.797800 -8.570700
N -10.501400 -4.133900 -8.071500
C -10.177400 -6.536700 -8.231600
H -10.111600 -8.628000 -8.493800
H -9.310400 -1.994600 -7.352900
C -9.244500 -4.085800 -7.615100
N -8.920500 -6.488700 -7.775200
C -8.677500 -2.824800 -7.276000
C -8.441400 -5.262400 -7.480400
C -7.397400 -2.762900 -6.811700
C -7.108500 -5.136600 -7.009800
H -6.953200 -1.950100 -6.576400
C -6.611000 -3.924600 -6.688900
H -6.539600 -6.004400 -6.932900
H -5.772300 -3.915000 -6.402100
20
Fragment
N -15.495100 -4.882900 -13.500600
C -14.494200 -5.344600 -13.178100
C -13.222800 -5.932300 -12.788300
C -13.163000 -7.349500 -12.864300
N -13.127700 -8.488100 -12.915800
H -13.081300 -3.344100 -12.407900
C -12.267400 -3.751500 -12.202700
C -12.169000 -5.182200 -12.354100
H -11.332400 -2.050900 -11.623500
C -11.228500 -3.028600 -11.758200
C -10.925800 -5.800400 -12.011800
H -10.821900 -6.778100 -12.146500
C -9.985300 -3.646800 -11.415900
C -9.887000 -5.077600 -11.567300
H -9.073000 -5.484900 -11.362100
N -9.026600 -0.340900 -10.854200
C -8.991300 -1.479500 -10.905700
C -8.931500 -2.896800 -10.981700
C -7.660100 -3.484500 -10.591900
N -6.659200 -3.946100 -10.269400
42
Fragment
H -13.649600 -6.707600 -9.444600
H -12.882400 -4.618200 -8.913800
C -12.810900 -6.697900 -9.157800
H -12.468700 -8.672500 -9.270300
C -12.313400 -5.486000 -8.836900
C -12.024500 -7.859700 -9.035000
C -10.980500 -5.360200 -8.366300
C -10.744500 -7.797800 -8.570700
N -10.501400 -4.133900 -8.071500
C -10.177400 -6.536700 -8.231600
H -10.111600 -8.628000 -8.493800
H -9.310400 -1.994600 -7.352900
C -9.244500 -4.085800 -7.615100
N -8.920500 -6.488700 -7.775200
C -8.677500 -2.824800 -7.276000
C -8.441400 -5.262400 -7.480400
C -7.397400 -2.762900 -6.811700
C -7.108500 -5.136600 -7.009800
H -6.953200 -1.950100 -6.576400
C -6.611000 -3.924600 -6.688900
H -6.539600 -6.004400 -6.932900
H -5.772300 -3.915000 -6.402100
N -15.495100 -4.882900 -13.500600
C -14.494200 -5.344600 -13.178100
C -13.222800 -5.932300 -12.788300
C -13.163000 -7.349500 -12.864300
N -13.127700 -8.488100 -12.915800
H -13.081300 -3.344100 -12.407900
C -12.267400 -3.751500 -12.202700
C -12.169000 -5.182200 -12.354100
H -11.332400 -2.050900 -11.623500
C -11.228500 -3.028600 -11.758200
C -10.925800 -5.800400 -12.011800
H -10.821900 -6.778100 -12.146500
C -9.985300 -3.646800 -11.415900
C -9.887000 -5.077600 -11.567300
H -9.073000 -5.484900 -11.362100
N -9.026600 -0.340900 -10.854200
C -8.991300 -1.479500 -10.905700
C -8.931500 -2.896800 -10.981700
C -7.660100 -3.484500 -10.591900
N -6.659200 -3.946100 -10.269400
