31
Fragment
H -13.869300 -11.371900 -14.136700
H -13.687700 -12.878300 -11.156100
N -13.497000 -19.365500 -21.448700
N -13.479900 -23.739300 -21.652100
C -13.439600 -20.329000 -20.874900
C -13.437100 -22.817500 -20.986600
C -13.385400 -21.604300 -20.203400
C -13.296700 -21.666600 -18.868600
C -13.262100 -22.962500 -18.217100
C -13.245200 -20.490500 -18.059300
N -13.243200 -23.955000 -17.685900
C -13.196500 -19.500700 -17.362400
C -13.138100 -18.395300 -16.579300
H -13.113200 -14.948400 -16.715500
C -13.079200 -17.415000 -15.881300
C -13.052400 -14.980900 -15.767700
H -13.041600 -12.983100 -15.528200
C -13.012200 -11.378400 -13.661100
C -13.011400 -16.223200 -15.127300
C -13.007700 -13.812200 -15.064000
H -12.992100 -10.644700 -13.011900
C -12.914500 -16.240800 -13.726000
C -12.910800 -13.815700 -13.650900
H -12.882000 -17.072600 -13.269500
C -12.866500 -15.068300 -13.005100
N -12.854100 -12.649900 -12.962300
C -12.808500 -12.634500 -11.513700
H -12.802400 -15.104500 -12.057300
H -12.567300 -11.736200 -11.203800
H -12.280900 -11.265400 -14.303500
H -12.139500 -13.278200 -11.201500
31
Fragment
H -10.799000 -23.488100 -22.849100
H -10.657600 -25.500900 -19.747100
H -10.371200 -25.030000 -22.846900
H -10.136100 -21.661700 -21.993300
C -10.130000 -24.131800 -22.537000
N -10.084400 -24.116300 -21.088400
C -10.072000 -21.698000 -21.045600
H -10.056500 -19.693600 -20.781100
C -10.027700 -22.950600 -20.399700
C -10.024000 -20.525500 -20.324600
H -9.946500 -26.121500 -21.038800
C -9.930800 -22.954000 -18.986600
C -9.927100 -20.543000 -18.923300
C -9.926400 -25.387800 -20.389500
H -9.896900 -23.783100 -18.522400
C -9.886100 -21.785300 -18.282900
C -9.859300 -19.351300 -18.169300
H -9.825300 -21.817900 -17.335200
C -9.800400 -18.370900 -17.471400
C -9.742000 -17.265500 -16.688200
N -9.695300 -12.811300 -16.364700
C -9.693300 -16.275700 -15.991300
C -9.676400 -13.803700 -15.833600
C -9.641800 -15.099700 -15.182000
C -9.553200 -15.162000 -13.847300
C -9.501500 -13.948700 -13.064100
C -9.498900 -16.437200 -13.175800
N -9.458600 -13.026900 -12.398500
N -9.441500 -17.400700 -12.601900
H -9.250800 -23.888000 -22.894500
H -9.069200 -25.394300 -19.914000
62
Fragment
H -13.869300 -11.371900 -14.136700
H -13.687700 -12.878300 -11.156100
N -13.497000 -19.365500 -21.448700
N -13.479900 -23.739300 -21.652100
C -13.439600 -20.329000 -20.874900
C -13.437100 -22.817500 -20.986600
C -13.385400 -21.604300 -20.203400
C -13.296700 -21.666600 -18.868600
C -13.262100 -22.962500 -18.217100
C -13.245200 -20.490500 -18.059300
N -13.243200 -23.955000 -17.685900
C -13.196500 -19.500700 -17.362400
C -13.138100 -18.395300 -16.579300
H -13.113200 -14.948400 -16.715500
C -13.079200 -17.415000 -15.881300
C -13.052400 -14.980900 -15.767700
H -13.041600 -12.983100 -15.528200
C -13.012200 -11.378400 -13.661100
C -13.011400 -16.223200 -15.127300
C -13.007700 -13.812200 -15.064000
H -12.992100 -10.644700 -13.011900
C -12.914500 -16.240800 -13.726000
C -12.910800 -13.815700 -13.650900
H -12.882000 -17.072600 -13.269500
C -12.866500 -15.068300 -13.005100
N -12.854100 -12.649900 -12.962300
C -12.808500 -12.634500 -11.513700
H -12.802400 -15.104500 -12.057300
H -12.567300 -11.736200 -11.203800
H -12.280900 -11.265400 -14.303500
H -12.139500 -13.278200 -11.201500
H -10.799000 -23.488100 -22.849100
H -10.657600 -25.500900 -19.747100
H -10.371200 -25.030000 -22.846900
H -10.136100 -21.661700 -21.993300
C -10.130000 -24.131800 -22.537000
N -10.084400 -24.116300 -21.088400
C -10.072000 -21.698000 -21.045600
H -10.056500 -19.693600 -20.781100
C -10.027700 -22.950600 -20.399700
C -10.024000 -20.525500 -20.324600
H -9.946500 -26.121500 -21.038800
C -9.930800 -22.954000 -18.986600
C -9.927100 -20.543000 -18.923300
C -9.926400 -25.387800 -20.389500
H -9.896900 -23.783100 -18.522400
C -9.886100 -21.785300 -18.282900
C -9.859300 -19.351300 -18.169300
H -9.825300 -21.817900 -17.335200
C -9.800400 -18.370900 -17.471400
C -9.742000 -17.265500 -16.688200
N -9.695300 -12.811300 -16.364700
C -9.693300 -16.275700 -15.991300
C -9.676400 -13.803700 -15.833600
C -9.641800 -15.099700 -15.182000
C -9.553200 -15.162000 -13.847300
C -9.501500 -13.948700 -13.064100
C -9.498900 -16.437200 -13.175800
N -9.458600 -13.026900 -12.398500
N -9.441500 -17.400700 -12.601900
H -9.250800 -23.888000 -22.894500
H -9.069200 -25.394300 -19.914000
