31
Fragment
H -13.869300 -11.371900 -14.136700
H -13.687700 -12.878300 -11.156100
N -13.497000 -19.365500 -21.448700
N -13.479900 -23.739300 -21.652100
C -13.439600 -20.329000 -20.874900
C -13.437100 -22.817500 -20.986600
C -13.385400 -21.604300 -20.203400
C -13.296700 -21.666600 -18.868600
C -13.262100 -22.962500 -18.217100
C -13.245200 -20.490500 -18.059300
N -13.243200 -23.955000 -17.685900
C -13.196500 -19.500700 -17.362400
C -13.138100 -18.395300 -16.579300
H -13.113200 -14.948400 -16.715500
C -13.079200 -17.415000 -15.881300
C -13.052400 -14.980900 -15.767700
H -13.041600 -12.983100 -15.528200
C -13.012200 -11.378400 -13.661100
C -13.011400 -16.223200 -15.127300
C -13.007700 -13.812200 -15.064000
H -12.992100 -10.644700 -13.011900
C -12.914500 -16.240800 -13.726000
C -12.910800 -13.815700 -13.650900
H -12.882000 -17.072600 -13.269500
C -12.866500 -15.068300 -13.005100
N -12.854100 -12.649900 -12.962300
C -12.808500 -12.634500 -11.513700
H -12.802400 -15.104500 -12.057300
H -12.567300 -11.736200 -11.203800
H -12.280900 -11.265400 -14.303500
H -12.139500 -13.278200 -11.201500
31
Fragment
H -14.020300 -23.625600 -14.136700
H -13.838700 -25.132000 -11.156100
N -13.648000 -31.619200 -21.448700
N -13.630900 -35.993000 -21.652100
C -13.590600 -32.582700 -20.874900
C -13.588000 -35.071200 -20.986600
C -13.536400 -33.858000 -20.203400
C -13.447700 -33.920200 -18.868600
C -13.413100 -35.216200 -18.217100
C -13.396200 -32.744200 -18.059300
N -13.394200 -36.208600 -17.685900
C -13.347500 -31.754400 -17.362400
C -13.289100 -30.649000 -16.579300
H -13.264200 -27.202000 -16.715500
C -13.230200 -29.668600 -15.881300
C -13.203400 -27.234600 -15.767700
H -13.192600 -25.236800 -15.528200
C -13.163200 -23.632100 -13.661100
C -13.162400 -28.476900 -15.127300
C -13.158700 -26.065900 -15.064000
H -13.143100 -22.898400 -13.011900
C -13.065500 -28.494400 -13.726000
C -13.061800 -26.069300 -13.650900
H -13.033000 -29.326300 -13.269500
C -13.017500 -27.322000 -13.005100
N -13.005100 -24.903600 -12.962300
C -12.959500 -24.888200 -11.513700
H -12.953400 -27.358200 -12.057300
H -12.718300 -23.989900 -11.203800
H -12.431900 -23.519000 -14.303500
H -12.290500 -25.531800 -11.201500
62
Fragment
H -13.869300 -11.371900 -14.136700
H -13.687700 -12.878300 -11.156100
N -13.497000 -19.365500 -21.448700
N -13.479900 -23.739300 -21.652100
C -13.439600 -20.329000 -20.874900
C -13.437100 -22.817500 -20.986600
C -13.385400 -21.604300 -20.203400
C -13.296700 -21.666600 -18.868600
C -13.262100 -22.962500 -18.217100
C -13.245200 -20.490500 -18.059300
N -13.243200 -23.955000 -17.685900
C -13.196500 -19.500700 -17.362400
C -13.138100 -18.395300 -16.579300
H -13.113200 -14.948400 -16.715500
C -13.079200 -17.415000 -15.881300
C -13.052400 -14.980900 -15.767700
H -13.041600 -12.983100 -15.528200
C -13.012200 -11.378400 -13.661100
C -13.011400 -16.223200 -15.127300
C -13.007700 -13.812200 -15.064000
H -12.992100 -10.644700 -13.011900
C -12.914500 -16.240800 -13.726000
C -12.910800 -13.815700 -13.650900
H -12.882000 -17.072600 -13.269500
C -12.866500 -15.068300 -13.005100
N -12.854100 -12.649900 -12.962300
C -12.808500 -12.634500 -11.513700
H -12.802400 -15.104500 -12.057300
H -12.567300 -11.736200 -11.203800
H -12.280900 -11.265400 -14.303500
H -12.139500 -13.278200 -11.201500
H -14.020300 -23.625600 -14.136700
H -13.838700 -25.132000 -11.156100
N -13.648000 -31.619200 -21.448700
N -13.630900 -35.993000 -21.652100
C -13.590600 -32.582700 -20.874900
C -13.588000 -35.071200 -20.986600
C -13.536400 -33.858000 -20.203400
C -13.447700 -33.920200 -18.868600
C -13.413100 -35.216200 -18.217100
C -13.396200 -32.744200 -18.059300
N -13.394200 -36.208600 -17.685900
C -13.347500 -31.754400 -17.362400
C -13.289100 -30.649000 -16.579300
H -13.264200 -27.202000 -16.715500
C -13.230200 -29.668600 -15.881300
C -13.203400 -27.234600 -15.767700
H -13.192600 -25.236800 -15.528200
C -13.163200 -23.632100 -13.661100
C -13.162400 -28.476900 -15.127300
C -13.158700 -26.065900 -15.064000
H -13.143100 -22.898400 -13.011900
C -13.065500 -28.494400 -13.726000
C -13.061800 -26.069300 -13.650900
H -13.033000 -29.326300 -13.269500
C -13.017500 -27.322000 -13.005100
N -13.005100 -24.903600 -12.962300
C -12.959500 -24.888200 -11.513700
H -12.953400 -27.358200 -12.057300
H -12.718300 -23.989900 -11.203800
H -12.431900 -23.519000 -14.303500
H -12.290500 -25.531800 -11.201500
