31
Fragment
H -13.869300 -11.371900 -14.136700
H -13.687700 -12.878300 -11.156100
N -13.497000 -19.365500 -21.448700
N -13.479900 -23.739300 -21.652100
C -13.439600 -20.329000 -20.874900
C -13.437100 -22.817500 -20.986600
C -13.385400 -21.604300 -20.203400
C -13.296700 -21.666600 -18.868600
C -13.262100 -22.962500 -18.217100
C -13.245200 -20.490500 -18.059300
N -13.243200 -23.955000 -17.685900
C -13.196500 -19.500700 -17.362400
C -13.138100 -18.395300 -16.579300
H -13.113200 -14.948400 -16.715500
C -13.079200 -17.415000 -15.881300
C -13.052400 -14.980900 -15.767700
H -13.041600 -12.983100 -15.528200
C -13.012200 -11.378400 -13.661100
C -13.011400 -16.223200 -15.127300
C -13.007700 -13.812200 -15.064000
H -12.992100 -10.644700 -13.011900
C -12.914500 -16.240800 -13.726000
C -12.910800 -13.815700 -13.650900
H -12.882000 -17.072600 -13.269500
C -12.866500 -15.068300 -13.005100
N -12.854100 -12.649900 -12.962300
C -12.808500 -12.634500 -11.513700
H -12.802400 -15.104500 -12.057300
H -12.567300 -11.736200 -11.203800
H -12.280900 -11.265400 -14.303500
H -12.139500 -13.278200 -11.201500
31
Fragment
H -16.947800 -15.458300 -25.486900
H -16.766200 -16.964600 -22.506300
N -16.575600 -23.451800 -32.798900
N -16.558400 -27.825600 -33.002300
C -16.518100 -24.415300 -32.225100
C -16.515600 -26.903800 -32.336800
C -16.463900 -25.690600 -31.553600
C -16.375200 -25.752900 -30.218800
C -16.340600 -27.048800 -29.567300
C -16.323700 -24.576800 -29.409500
N -16.321700 -28.041300 -29.036100
C -16.275000 -23.587000 -28.712600
C -16.216600 -22.481600 -27.929500
H -16.191700 -19.034700 -28.065700
C -16.157700 -21.501300 -27.231600
C -16.130900 -19.067200 -27.117900
H -16.120100 -17.069400 -26.878400
C -16.090700 -15.464700 -25.011300
C -16.089900 -20.309600 -26.477600
C -16.086200 -17.898500 -26.414200
H -16.070600 -14.731000 -24.362100
C -15.993000 -20.327100 -25.076300
C -15.989300 -17.902000 -25.001100
H -15.960500 -21.158900 -24.619800
C -15.945000 -19.154600 -24.355300
N -15.932600 -16.736300 -24.312500
C -15.887000 -16.720800 -22.863900
H -15.880900 -19.190800 -23.407600
H -15.645900 -15.822600 -22.554000
H -15.359400 -15.351700 -25.653800
H -15.218000 -17.364500 -22.551700
62
Fragment
H -13.869300 -11.371900 -14.136700
H -13.687700 -12.878300 -11.156100
N -13.497000 -19.365500 -21.448700
N -13.479900 -23.739300 -21.652100
C -13.439600 -20.329000 -20.874900
C -13.437100 -22.817500 -20.986600
C -13.385400 -21.604300 -20.203400
C -13.296700 -21.666600 -18.868600
C -13.262100 -22.962500 -18.217100
C -13.245200 -20.490500 -18.059300
N -13.243200 -23.955000 -17.685900
C -13.196500 -19.500700 -17.362400
C -13.138100 -18.395300 -16.579300
H -13.113200 -14.948400 -16.715500
C -13.079200 -17.415000 -15.881300
C -13.052400 -14.980900 -15.767700
H -13.041600 -12.983100 -15.528200
C -13.012200 -11.378400 -13.661100
C -13.011400 -16.223200 -15.127300
C -13.007700 -13.812200 -15.064000
H -12.992100 -10.644700 -13.011900
C -12.914500 -16.240800 -13.726000
C -12.910800 -13.815700 -13.650900
H -12.882000 -17.072600 -13.269500
C -12.866500 -15.068300 -13.005100
N -12.854100 -12.649900 -12.962300
C -12.808500 -12.634500 -11.513700
H -12.802400 -15.104500 -12.057300
H -12.567300 -11.736200 -11.203800
H -12.280900 -11.265400 -14.303500
H -12.139500 -13.278200 -11.201500
H -16.947800 -15.458300 -25.486900
H -16.766200 -16.964600 -22.506300
N -16.575600 -23.451800 -32.798900
N -16.558400 -27.825600 -33.002300
C -16.518100 -24.415300 -32.225100
C -16.515600 -26.903800 -32.336800
C -16.463900 -25.690600 -31.553600
C -16.375200 -25.752900 -30.218800
C -16.340600 -27.048800 -29.567300
C -16.323700 -24.576800 -29.409500
N -16.321700 -28.041300 -29.036100
C -16.275000 -23.587000 -28.712600
C -16.216600 -22.481600 -27.929500
H -16.191700 -19.034700 -28.065700
C -16.157700 -21.501300 -27.231600
C -16.130900 -19.067200 -27.117900
H -16.120100 -17.069400 -26.878400
C -16.090700 -15.464700 -25.011300
C -16.089900 -20.309600 -26.477600
C -16.086200 -17.898500 -26.414200
H -16.070600 -14.731000 -24.362100
C -15.993000 -20.327100 -25.076300
C -15.989300 -17.902000 -25.001100
H -15.960500 -21.158900 -24.619800
C -15.945000 -19.154600 -24.355300
N -15.932600 -16.736300 -24.312500
C -15.887000 -16.720800 -22.863900
H -15.880900 -19.190800 -23.407600
H -15.645900 -15.822600 -22.554000
H -15.359400 -15.351700 -25.653800
H -15.218000 -17.364500 -22.551700
