31
Fragment
H -13.869300 -11.371900 -14.136700
H -13.687700 -12.878300 -11.156100
N -13.497000 -19.365500 -21.448700
N -13.479900 -23.739300 -21.652100
C -13.439600 -20.329000 -20.874900
C -13.437100 -22.817500 -20.986600
C -13.385400 -21.604300 -20.203400
C -13.296700 -21.666600 -18.868600
C -13.262100 -22.962500 -18.217100
C -13.245200 -20.490500 -18.059300
N -13.243200 -23.955000 -17.685900
C -13.196500 -19.500700 -17.362400
C -13.138100 -18.395300 -16.579300
H -13.113200 -14.948400 -16.715500
C -13.079200 -17.415000 -15.881300
C -13.052400 -14.980900 -15.767700
H -13.041600 -12.983100 -15.528200
C -13.012200 -11.378400 -13.661100
C -13.011400 -16.223200 -15.127300
C -13.007700 -13.812200 -15.064000
H -12.992100 -10.644700 -13.011900
C -12.914500 -16.240800 -13.726000
C -12.910800 -13.815700 -13.650900
H -12.882000 -17.072600 -13.269500
C -12.866500 -15.068300 -13.005100
N -12.854100 -12.649900 -12.962300
C -12.808500 -12.634500 -11.513700
H -12.802400 -15.104500 -12.057300
H -12.567300 -11.736200 -11.203800
H -12.280900 -11.265400 -14.303500
H -12.139500 -13.278200 -11.201500
31
Fragment
H -13.718300 0.881700 -14.136700
H -13.536700 -0.624600 -11.156100
N -13.346000 -7.111900 -21.448700
N -13.328900 -11.485600 -21.652100
C -13.288600 -8.075400 -20.874900
C -13.286100 -10.563900 -20.986600
C -13.234400 -9.350600 -20.203400
C -13.145700 -9.412900 -18.868600
C -13.111100 -10.708800 -18.217100
C -13.094200 -8.236800 -18.059300
N -13.092200 -11.701300 -17.685900
C -13.045500 -7.247000 -17.362400
C -12.987100 -6.141600 -16.579300
H -12.962200 -2.694700 -16.715500
C -12.928200 -5.161300 -15.881300
C -12.901400 -2.727200 -15.767700
H -12.890600 -0.729400 -15.528200
C -12.861200 0.875300 -13.661100
C -12.860400 -3.969600 -15.127300
C -12.856700 -1.558500 -15.064000
H -12.841100 1.608900 -13.011900
C -12.763500 -3.987100 -13.726000
C -12.759800 -1.562000 -13.650900
H -12.731000 -4.819000 -13.269500
C -12.715500 -2.814600 -13.005100
N -12.703100 -0.396300 -12.962300
C -12.657500 -0.380800 -11.513700
H -12.651400 -2.850800 -12.057300
H -12.416300 0.517400 -11.203800
H -12.129900 0.988300 -14.303500
H -11.988500 -1.024500 -11.201500
62
Fragment
H -13.869300 -11.371900 -14.136700
H -13.687700 -12.878300 -11.156100
N -13.497000 -19.365500 -21.448700
N -13.479900 -23.739300 -21.652100
C -13.439600 -20.329000 -20.874900
C -13.437100 -22.817500 -20.986600
C -13.385400 -21.604300 -20.203400
C -13.296700 -21.666600 -18.868600
C -13.262100 -22.962500 -18.217100
C -13.245200 -20.490500 -18.059300
N -13.243200 -23.955000 -17.685900
C -13.196500 -19.500700 -17.362400
C -13.138100 -18.395300 -16.579300
H -13.113200 -14.948400 -16.715500
C -13.079200 -17.415000 -15.881300
C -13.052400 -14.980900 -15.767700
H -13.041600 -12.983100 -15.528200
C -13.012200 -11.378400 -13.661100
C -13.011400 -16.223200 -15.127300
C -13.007700 -13.812200 -15.064000
H -12.992100 -10.644700 -13.011900
C -12.914500 -16.240800 -13.726000
C -12.910800 -13.815700 -13.650900
H -12.882000 -17.072600 -13.269500
C -12.866500 -15.068300 -13.005100
N -12.854100 -12.649900 -12.962300
C -12.808500 -12.634500 -11.513700
H -12.802400 -15.104500 -12.057300
H -12.567300 -11.736200 -11.203800
H -12.280900 -11.265400 -14.303500
H -12.139500 -13.278200 -11.201500
H -13.718300 0.881700 -14.136700
H -13.536700 -0.624600 -11.156100
N -13.346000 -7.111900 -21.448700
N -13.328900 -11.485600 -21.652100
C -13.288600 -8.075400 -20.874900
C -13.286100 -10.563900 -20.986600
C -13.234400 -9.350600 -20.203400
C -13.145700 -9.412900 -18.868600
C -13.111100 -10.708800 -18.217100
C -13.094200 -8.236800 -18.059300
N -13.092200 -11.701300 -17.685900
C -13.045500 -7.247000 -17.362400
C -12.987100 -6.141600 -16.579300
H -12.962200 -2.694700 -16.715500
C -12.928200 -5.161300 -15.881300
C -12.901400 -2.727200 -15.767700
H -12.890600 -0.729400 -15.528200
C -12.861200 0.875300 -13.661100
C -12.860400 -3.969600 -15.127300
C -12.856700 -1.558500 -15.064000
H -12.841100 1.608900 -13.011900
C -12.763500 -3.987100 -13.726000
C -12.759800 -1.562000 -13.650900
H -12.731000 -4.819000 -13.269500
C -12.715500 -2.814600 -13.005100
N -12.703100 -0.396300 -12.962300
C -12.657500 -0.380800 -11.513700
H -12.651400 -2.850800 -12.057300
H -12.416300 0.517400 -11.203800
H -12.129900 0.988300 -14.303500
H -11.988500 -1.024500 -11.201500
