31
Fragment
H -13.869300 -11.371900 -14.136700
H -13.687700 -12.878300 -11.156100
N -13.497000 -19.365500 -21.448700
N -13.479900 -23.739300 -21.652100
C -13.439600 -20.329000 -20.874900
C -13.437100 -22.817500 -20.986600
C -13.385400 -21.604300 -20.203400
C -13.296700 -21.666600 -18.868600
C -13.262100 -22.962500 -18.217100
C -13.245200 -20.490500 -18.059300
N -13.243200 -23.955000 -17.685900
C -13.196500 -19.500700 -17.362400
C -13.138100 -18.395300 -16.579300
H -13.113200 -14.948400 -16.715500
C -13.079200 -17.415000 -15.881300
C -13.052400 -14.980900 -15.767700
H -13.041600 -12.983100 -15.528200
C -13.012200 -11.378400 -13.661100
C -13.011400 -16.223200 -15.127300
C -13.007700 -13.812200 -15.064000
H -12.992100 -10.644700 -13.011900
C -12.914500 -16.240800 -13.726000
C -12.910800 -13.815700 -13.650900
H -12.882000 -17.072600 -13.269500
C -12.866500 -15.068300 -13.005100
N -12.854100 -12.649900 -12.962300
C -12.808500 -12.634500 -11.513700
H -12.802400 -15.104500 -12.057300
H -12.567300 -11.736200 -11.203800
H -12.280900 -11.265400 -14.303500
H -12.139500 -13.278200 -11.201500
31
Fragment
H -14.421000 -19.401800 -11.498900
H -14.279600 -21.414600 -8.396900
H -13.993200 -20.943700 -11.496600
H -13.758100 -17.575400 -10.643100
C -13.752000 -20.045500 -11.186800
N -13.706400 -20.030000 -9.738100
C -13.694000 -17.611700 -9.695400
H -13.678500 -15.607300 -9.430900
C -13.649700 -18.864300 -9.049500
C -13.646000 -16.439200 -8.974400
H -13.568500 -22.035200 -9.688500
C -13.552800 -18.867700 -7.636400
C -13.549100 -16.456700 -7.573100
C -13.548400 -21.301500 -9.039300
H -13.518900 -19.696800 -7.172200
C -13.508100 -17.699000 -6.932700
C -13.481300 -15.265000 -6.819100
H -13.447300 -17.731600 -5.985000
C -13.422400 -14.284600 -6.121200
C -13.364000 -13.179200 -5.338000
N -13.317300 -8.725000 -5.014500
C -13.315300 -12.189400 -4.641100
C -13.298400 -9.717400 -4.483300
C -13.263800 -11.013400 -3.831800
C -13.175100 -11.075700 -2.497000
C -13.123500 -9.862400 -1.713900
C -13.120900 -12.350900 -1.825600
N -13.080600 -8.940600 -1.048300
N -13.063500 -13.314400 -1.251700
H -12.872800 -19.801700 -11.544300
H -12.691200 -21.308000 -8.563700
62
Fragment
H -13.869300 -11.371900 -14.136700
H -13.687700 -12.878300 -11.156100
N -13.497000 -19.365500 -21.448700
N -13.479900 -23.739300 -21.652100
C -13.439600 -20.329000 -20.874900
C -13.437100 -22.817500 -20.986600
C -13.385400 -21.604300 -20.203400
C -13.296700 -21.666600 -18.868600
C -13.262100 -22.962500 -18.217100
C -13.245200 -20.490500 -18.059300
N -13.243200 -23.955000 -17.685900
C -13.196500 -19.500700 -17.362400
C -13.138100 -18.395300 -16.579300
H -13.113200 -14.948400 -16.715500
C -13.079200 -17.415000 -15.881300
C -13.052400 -14.980900 -15.767700
H -13.041600 -12.983100 -15.528200
C -13.012200 -11.378400 -13.661100
C -13.011400 -16.223200 -15.127300
C -13.007700 -13.812200 -15.064000
H -12.992100 -10.644700 -13.011900
C -12.914500 -16.240800 -13.726000
C -12.910800 -13.815700 -13.650900
H -12.882000 -17.072600 -13.269500
C -12.866500 -15.068300 -13.005100
N -12.854100 -12.649900 -12.962300
C -12.808500 -12.634500 -11.513700
H -12.802400 -15.104500 -12.057300
H -12.567300 -11.736200 -11.203800
H -12.280900 -11.265400 -14.303500
H -12.139500 -13.278200 -11.201500
H -14.421000 -19.401800 -11.498900
H -14.279600 -21.414600 -8.396900
H -13.993200 -20.943700 -11.496600
H -13.758100 -17.575400 -10.643100
C -13.752000 -20.045500 -11.186800
N -13.706400 -20.030000 -9.738100
C -13.694000 -17.611700 -9.695400
H -13.678500 -15.607300 -9.430900
C -13.649700 -18.864300 -9.049500
C -13.646000 -16.439200 -8.974400
H -13.568500 -22.035200 -9.688500
C -13.552800 -18.867700 -7.636400
C -13.549100 -16.456700 -7.573100
C -13.548400 -21.301500 -9.039300
H -13.518900 -19.696800 -7.172200
C -13.508100 -17.699000 -6.932700
C -13.481300 -15.265000 -6.819100
H -13.447300 -17.731600 -5.985000
C -13.422400 -14.284600 -6.121200
C -13.364000 -13.179200 -5.338000
N -13.317300 -8.725000 -5.014500
C -13.315300 -12.189400 -4.641100
C -13.298400 -9.717400 -4.483300
C -13.263800 -11.013400 -3.831800
C -13.175100 -11.075700 -2.497000
C -13.123500 -9.862400 -1.713900
C -13.120900 -12.350900 -1.825600
N -13.080600 -8.940600 -1.048300
N -13.063500 -13.314400 -1.251700
H -12.872800 -19.801700 -11.544300
H -12.691200 -21.308000 -8.563700
