1
Fragment
O -6.481900 -18.471200 -12.102900
37
Fragment
H -6.114700 -22.062700 -10.477300
C -5.265800 -21.683000 -10.446900
N -4.965600 -20.431000 -10.834900
H -4.817000 -24.103700 -9.392800
C -4.145900 -22.312700 -10.003400
C -3.948600 -23.696600 -9.534900
N -3.689200 -20.243300 -10.670400
H -3.498600 -24.199700 -10.231400
O -3.187600 -23.804000 -8.326200
N -3.185500 -21.377100 -10.169700
H -1.830600 -21.627100 -7.935500
C -1.818400 -23.597400 -8.564900
C -1.753200 -21.474200 -9.976600
H -1.548600 -24.073100 -9.378500
C -1.434700 -22.133400 -8.674900
H -1.431100 -20.620900 -10.022200
H -1.406700 -23.892800 -6.554200
H -1.351900 -21.960400 -10.692700
C -0.959700 -24.046800 -7.400900
H -0.732000 -24.987600 -7.474200
O -0.019600 -22.175400 -8.532700
C 0.293500 -23.158700 -7.539400
H 0.453100 -22.705100 -6.685600
H 0.724100 -25.275600 -9.045000
N 1.520900 -23.815300 -7.955200
C 1.539500 -24.905400 -8.794700
H 1.750800 -26.878800 -10.429900
C 2.646000 -26.703800 -10.131300
C 2.655100 -25.468600 -9.275700
C 2.703200 -23.220900 -7.552800
O 2.743900 -22.236100 -6.841200
H 2.962700 -27.450500 -9.618100
H 3.216000 -26.570900 -10.891200
N 3.835900 -23.820000 -8.035600
C 3.914500 -24.861100 -8.920700
H 4.583800 -23.505700 -7.750400
O 5.018000 -25.219700 -9.328400
38
Fragment
O -6.481900 -18.471200 -12.102900
H -6.114700 -22.062700 -10.477300
C -5.265800 -21.683000 -10.446900
N -4.965600 -20.431000 -10.834900
H -4.817000 -24.103700 -9.392800
C -4.145900 -22.312700 -10.003400
C -3.948600 -23.696600 -9.534900
N -3.689200 -20.243300 -10.670400
H -3.498600 -24.199700 -10.231400
O -3.187600 -23.804000 -8.326200
N -3.185500 -21.377100 -10.169700
H -1.830600 -21.627100 -7.935500
C -1.818400 -23.597400 -8.564900
C -1.753200 -21.474200 -9.976600
H -1.548600 -24.073100 -9.378500
C -1.434700 -22.133400 -8.674900
H -1.431100 -20.620900 -10.022200
H -1.406700 -23.892800 -6.554200
H -1.351900 -21.960400 -10.692700
C -0.959700 -24.046800 -7.400900
H -0.732000 -24.987600 -7.474200
O -0.019600 -22.175400 -8.532700
C 0.293500 -23.158700 -7.539400
H 0.453100 -22.705100 -6.685600
H 0.724100 -25.275600 -9.045000
N 1.520900 -23.815300 -7.955200
C 1.539500 -24.905400 -8.794700
H 1.750800 -26.878800 -10.429900
C 2.646000 -26.703800 -10.131300
C 2.655100 -25.468600 -9.275700
C 2.703200 -23.220900 -7.552800
O 2.743900 -22.236100 -6.841200
H 2.962700 -27.450500 -9.618100
H 3.216000 -26.570900 -10.891200
N 3.835900 -23.820000 -8.035600
C 3.914500 -24.861100 -8.920700
H 4.583800 -23.505700 -7.750400
O 5.018000 -25.219700 -9.328400
