30
Fragment
O -12.395100 -26.033000 -9.803300
H -12.297400 -26.906100 -13.861900
O -12.290700 -27.361000 -11.496200
N -12.159800 -26.269000 -10.968900
C -11.680900 -25.171600 -11.767900
N -11.490400 -23.981700 -11.265900
C -11.441600 -26.428800 -14.004900
H -11.424500 -26.107500 -14.940700
N -11.373300 -25.272100 -13.092900
C -11.051300 -23.276800 -12.332000
C -10.965900 -24.028900 -13.465400
O -10.773300 -21.375400 -11.084300
N -10.708400 -21.895200 -12.193100
H -10.684000 -23.746400 -14.327000
H -10.467100 -28.232900 -14.279300
O -10.357600 -21.310400 -13.217600
O -10.296800 -27.576500 -16.563600
C -10.287000 -27.394400 -13.784800
H -10.229600 -27.616900 -12.821700
N -9.191200 -27.077700 -16.677700
N -9.001300 -26.843000 -14.227000
O -8.638700 -26.865100 -17.731900
C -8.493000 -26.685400 -15.475900
H -8.033000 -26.406900 -12.436400
C -8.013400 -26.425600 -13.386400
N -7.282400 -26.189200 -15.513300
C -6.992300 -26.042300 -14.198200
N -5.716700 -25.520500 -13.785900
O -5.458100 -25.580700 -12.589400
O -4.970700 -25.056600 -14.645800
10
Fragment
H -13.527700 -19.239800 -17.595200
H -13.462800 -20.913500 -15.518200
C -12.558700 -19.335900 -17.484200
C -12.551200 -21.188700 -15.750400
H -12.481400 -22.164600 -15.697500
H -12.251000 -18.739100 -16.770400
C -12.237600 -20.745300 -17.125300
H -12.109100 -19.101600 -18.322700
H -11.917600 -20.781400 -15.123200
O -11.766900 -21.505000 -17.943500
40
Fragment
O -12.395100 -26.033000 -9.803300
H -12.297400 -26.906100 -13.861900
O -12.290700 -27.361000 -11.496200
N -12.159800 -26.269000 -10.968900
C -11.680900 -25.171600 -11.767900
N -11.490400 -23.981700 -11.265900
C -11.441600 -26.428800 -14.004900
H -11.424500 -26.107500 -14.940700
N -11.373300 -25.272100 -13.092900
C -11.051300 -23.276800 -12.332000
C -10.965900 -24.028900 -13.465400
O -10.773300 -21.375400 -11.084300
N -10.708400 -21.895200 -12.193100
H -10.684000 -23.746400 -14.327000
H -10.467100 -28.232900 -14.279300
O -10.357600 -21.310400 -13.217600
O -10.296800 -27.576500 -16.563600
C -10.287000 -27.394400 -13.784800
H -10.229600 -27.616900 -12.821700
N -9.191200 -27.077700 -16.677700
N -9.001300 -26.843000 -14.227000
O -8.638700 -26.865100 -17.731900
C -8.493000 -26.685400 -15.475900
H -8.033000 -26.406900 -12.436400
C -8.013400 -26.425600 -13.386400
N -7.282400 -26.189200 -15.513300
C -6.992300 -26.042300 -14.198200
N -5.716700 -25.520500 -13.785900
O -5.458100 -25.580700 -12.589400
O -4.970700 -25.056600 -14.645800
H -13.527700 -19.239800 -17.595200
H -13.462800 -20.913500 -15.518200
C -12.558700 -19.335900 -17.484200
C -12.551200 -21.188700 -15.750400
H -12.481400 -22.164600 -15.697500
H -12.251000 -18.739100 -16.770400
C -12.237600 -20.745300 -17.125300
H -12.109100 -19.101600 -18.322700
H -11.917600 -20.781400 -15.123200
O -11.766900 -21.505000 -17.943500
