30
Fragment
O -12.395100 -26.033000 -9.803300
H -12.297400 -26.906100 -13.861900
O -12.290700 -27.361000 -11.496200
N -12.159800 -26.269000 -10.968900
C -11.680900 -25.171600 -11.767900
N -11.490400 -23.981700 -11.265900
C -11.441600 -26.428800 -14.004900
H -11.424500 -26.107500 -14.940700
N -11.373300 -25.272100 -13.092900
C -11.051300 -23.276800 -12.332000
C -10.965900 -24.028900 -13.465400
O -10.773300 -21.375400 -11.084300
N -10.708400 -21.895200 -12.193100
H -10.684000 -23.746400 -14.327000
H -10.467100 -28.232900 -14.279300
O -10.357600 -21.310400 -13.217600
O -10.296800 -27.576500 -16.563600
C -10.287000 -27.394400 -13.784800
H -10.229600 -27.616900 -12.821700
N -9.191200 -27.077700 -16.677700
N -9.001300 -26.843000 -14.227000
O -8.638700 -26.865100 -17.731900
C -8.493000 -26.685400 -15.475900
H -8.033000 -26.406900 -12.436400
C -8.013400 -26.425600 -13.386400
N -7.282400 -26.189200 -15.513300
C -6.992300 -26.042300 -14.198200
N -5.716700 -25.520500 -13.785900
O -5.458100 -25.580700 -12.589400
O -4.970700 -25.056600 -14.645800
30
Fragment
O -8.728200 -26.033000 -20.485900
H -8.630500 -26.906100 -24.544500
O -8.623900 -27.361000 -22.178800
N -8.492900 -26.269000 -21.651500
C -8.014100 -25.171600 -22.450500
N -7.823600 -23.981700 -21.948400
C -7.774800 -26.428800 -24.687500
H -7.757600 -26.107500 -25.623300
N -7.706500 -25.272100 -23.775500
C -7.384500 -23.276800 -23.014600
C -7.299000 -24.028900 -24.148000
O -7.106500 -21.375400 -21.766800
N -7.041500 -21.895200 -22.875700
H -7.017100 -23.746400 -25.009500
H -6.800300 -28.232900 -24.961900
O -6.690800 -21.310400 -23.900200
O -6.629900 -27.576500 -27.246200
C -6.620100 -27.394400 -24.467400
H -6.562800 -27.616900 -23.504300
N -5.524400 -27.077700 -27.360200
N -5.334400 -26.843000 -24.909600
O -4.971800 -26.865100 -28.414500
C -4.826100 -26.685400 -26.158500
H -4.366100 -26.406900 -23.118900
C -4.346500 -26.425600 -24.068900
N -3.615500 -26.189200 -26.195800
C -3.325500 -26.042300 -24.880800
N -2.049800 -25.520500 -24.468500
O -1.791300 -25.580700 -23.272000
O -1.303900 -25.056600 -25.328400
60
Fragment
O -12.395100 -26.033000 -9.803300
H -12.297400 -26.906100 -13.861900
O -12.290700 -27.361000 -11.496200
N -12.159800 -26.269000 -10.968900
C -11.680900 -25.171600 -11.767900
N -11.490400 -23.981700 -11.265900
C -11.441600 -26.428800 -14.004900
H -11.424500 -26.107500 -14.940700
N -11.373300 -25.272100 -13.092900
C -11.051300 -23.276800 -12.332000
C -10.965900 -24.028900 -13.465400
O -10.773300 -21.375400 -11.084300
N -10.708400 -21.895200 -12.193100
H -10.684000 -23.746400 -14.327000
H -10.467100 -28.232900 -14.279300
O -10.357600 -21.310400 -13.217600
O -10.296800 -27.576500 -16.563600
C -10.287000 -27.394400 -13.784800
H -10.229600 -27.616900 -12.821700
N -9.191200 -27.077700 -16.677700
N -9.001300 -26.843000 -14.227000
O -8.638700 -26.865100 -17.731900
C -8.493000 -26.685400 -15.475900
H -8.033000 -26.406900 -12.436400
C -8.013400 -26.425600 -13.386400
N -7.282400 -26.189200 -15.513300
C -6.992300 -26.042300 -14.198200
N -5.716700 -25.520500 -13.785900
O -5.458100 -25.580700 -12.589400
O -4.970700 -25.056600 -14.645800
O -8.728200 -26.033000 -20.485900
H -8.630500 -26.906100 -24.544500
O -8.623900 -27.361000 -22.178800
N -8.492900 -26.269000 -21.651500
C -8.014100 -25.171600 -22.450500
N -7.823600 -23.981700 -21.948400
C -7.774800 -26.428800 -24.687500
H -7.757600 -26.107500 -25.623300
N -7.706500 -25.272100 -23.775500
C -7.384500 -23.276800 -23.014600
C -7.299000 -24.028900 -24.148000
O -7.106500 -21.375400 -21.766800
N -7.041500 -21.895200 -22.875700
H -7.017100 -23.746400 -25.009500
H -6.800300 -28.232900 -24.961900
O -6.690800 -21.310400 -23.900200
O -6.629900 -27.576500 -27.246200
C -6.620100 -27.394400 -24.467400
H -6.562800 -27.616900 -23.504300
N -5.524400 -27.077700 -27.360200
N -5.334400 -26.843000 -24.909600
O -4.971800 -26.865100 -28.414500
C -4.826100 -26.685400 -26.158500
H -4.366100 -26.406900 -23.118900
C -4.346500 -26.425600 -24.068900
N -3.615500 -26.189200 -26.195800
C -3.325500 -26.042300 -24.880800
N -2.049800 -25.520500 -24.468500
O -1.791300 -25.580700 -23.272000
O -1.303900 -25.056600 -25.328400
