30
Fragment
O -12.395100 -26.033000 -9.803300
H -12.297400 -26.906100 -13.861900
O -12.290700 -27.361000 -11.496200
N -12.159800 -26.269000 -10.968900
C -11.680900 -25.171600 -11.767900
N -11.490400 -23.981700 -11.265900
C -11.441600 -26.428800 -14.004900
H -11.424500 -26.107500 -14.940700
N -11.373300 -25.272100 -13.092900
C -11.051300 -23.276800 -12.332000
C -10.965900 -24.028900 -13.465400
O -10.773300 -21.375400 -11.084300
N -10.708400 -21.895200 -12.193100
H -10.684000 -23.746400 -14.327000
H -10.467100 -28.232900 -14.279300
O -10.357600 -21.310400 -13.217600
O -10.296800 -27.576500 -16.563600
C -10.287000 -27.394400 -13.784800
H -10.229600 -27.616900 -12.821700
N -9.191200 -27.077700 -16.677700
N -9.001300 -26.843000 -14.227000
O -8.638700 -26.865100 -17.731900
C -8.493000 -26.685400 -15.475900
H -8.033000 -26.406900 -12.436400
C -8.013400 -26.425600 -13.386400
N -7.282400 -26.189200 -15.513300
C -6.992300 -26.042300 -14.198200
N -5.716700 -25.520500 -13.785900
O -5.458100 -25.580700 -12.589400
O -4.970700 -25.056600 -14.645800
30
Fragment
O -16.061900 -26.033000 0.879300
H -15.964200 -26.906100 -3.179400
O -15.957600 -27.361000 -0.813600
N -15.826600 -26.269000 -0.286300
C -15.347800 -25.171600 -1.085400
N -15.157200 -23.981700 -0.583300
C -15.108500 -26.428800 -3.322300
H -15.091300 -26.107500 -4.258100
N -15.040100 -25.272100 -2.410300
C -14.718200 -23.276800 -1.649400
C -14.632700 -24.028900 -2.782800
O -14.440200 -21.375400 -0.401700
N -14.375200 -21.895200 -1.510500
H -14.350800 -23.746400 -3.644400
H -14.134000 -28.232900 -3.596700
O -14.024500 -21.310400 -2.535000
O -13.963600 -27.576500 -5.881000
C -13.953800 -27.394400 -3.102200
H -13.896500 -27.616900 -2.139100
N -12.858100 -27.077700 -5.995100
N -12.668100 -26.843000 -3.544400
O -12.305500 -26.865100 -7.049300
C -12.159800 -26.685400 -4.793300
H -11.699800 -26.406900 -1.753800
C -11.680200 -26.425600 -2.703800
N -10.949200 -26.189200 -4.830700
C -10.659100 -26.042300 -3.515600
N -9.383500 -25.520500 -3.103300
O -9.125000 -25.580700 -1.906800
O -8.637500 -25.056600 -3.963200
60
Fragment
O -12.395100 -26.033000 -9.803300
H -12.297400 -26.906100 -13.861900
O -12.290700 -27.361000 -11.496200
N -12.159800 -26.269000 -10.968900
C -11.680900 -25.171600 -11.767900
N -11.490400 -23.981700 -11.265900
C -11.441600 -26.428800 -14.004900
H -11.424500 -26.107500 -14.940700
N -11.373300 -25.272100 -13.092900
C -11.051300 -23.276800 -12.332000
C -10.965900 -24.028900 -13.465400
O -10.773300 -21.375400 -11.084300
N -10.708400 -21.895200 -12.193100
H -10.684000 -23.746400 -14.327000
H -10.467100 -28.232900 -14.279300
O -10.357600 -21.310400 -13.217600
O -10.296800 -27.576500 -16.563600
C -10.287000 -27.394400 -13.784800
H -10.229600 -27.616900 -12.821700
N -9.191200 -27.077700 -16.677700
N -9.001300 -26.843000 -14.227000
O -8.638700 -26.865100 -17.731900
C -8.493000 -26.685400 -15.475900
H -8.033000 -26.406900 -12.436400
C -8.013400 -26.425600 -13.386400
N -7.282400 -26.189200 -15.513300
C -6.992300 -26.042300 -14.198200
N -5.716700 -25.520500 -13.785900
O -5.458100 -25.580700 -12.589400
O -4.970700 -25.056600 -14.645800
O -16.061900 -26.033000 0.879300
H -15.964200 -26.906100 -3.179400
O -15.957600 -27.361000 -0.813600
N -15.826600 -26.269000 -0.286300
C -15.347800 -25.171600 -1.085400
N -15.157200 -23.981700 -0.583300
C -15.108500 -26.428800 -3.322300
H -15.091300 -26.107500 -4.258100
N -15.040100 -25.272100 -2.410300
C -14.718200 -23.276800 -1.649400
C -14.632700 -24.028900 -2.782800
O -14.440200 -21.375400 -0.401700
N -14.375200 -21.895200 -1.510500
H -14.350800 -23.746400 -3.644400
H -14.134000 -28.232900 -3.596700
O -14.024500 -21.310400 -2.535000
O -13.963600 -27.576500 -5.881000
C -13.953800 -27.394400 -3.102200
H -13.896500 -27.616900 -2.139100
N -12.858100 -27.077700 -5.995100
N -12.668100 -26.843000 -3.544400
O -12.305500 -26.865100 -7.049300
C -12.159800 -26.685400 -4.793300
H -11.699800 -26.406900 -1.753800
C -11.680200 -26.425600 -2.703800
N -10.949200 -26.189200 -4.830700
C -10.659100 -26.042300 -3.515600
N -9.383500 -25.520500 -3.103300
O -9.125000 -25.580700 -1.906800
O -8.637500 -25.056600 -3.963200
