30
Fragment
O -12.395100 -26.033000 -9.803300
H -12.297400 -26.906100 -13.861900
O -12.290700 -27.361000 -11.496200
N -12.159800 -26.269000 -10.968900
C -11.680900 -25.171600 -11.767900
N -11.490400 -23.981700 -11.265900
C -11.441600 -26.428800 -14.004900
H -11.424500 -26.107500 -14.940700
N -11.373300 -25.272100 -13.092900
C -11.051300 -23.276800 -12.332000
C -10.965900 -24.028900 -13.465400
O -10.773300 -21.375400 -11.084300
N -10.708400 -21.895200 -12.193100
H -10.684000 -23.746400 -14.327000
H -10.467100 -28.232900 -14.279300
O -10.357600 -21.310400 -13.217600
O -10.296800 -27.576500 -16.563600
C -10.287000 -27.394400 -13.784800
H -10.229600 -27.616900 -12.821700
N -9.191200 -27.077700 -16.677700
N -9.001300 -26.843000 -14.227000
O -8.638700 -26.865100 -17.731900
C -8.493000 -26.685400 -15.475900
H -8.033000 -26.406900 -12.436400
C -8.013400 -26.425600 -13.386400
N -7.282400 -26.189200 -15.513300
C -6.992300 -26.042300 -14.198200
N -5.716700 -25.520500 -13.785900
O -5.458100 -25.580700 -12.589400
O -4.970700 -25.056600 -14.645800
30
Fragment
O -15.465100 -24.830400 -6.719300
O -14.977700 -24.306300 -8.775700
N -14.719100 -24.366500 -7.579300
C -13.443500 -23.844700 -7.166900
N -13.153400 -23.697800 -5.851900
C -12.422500 -23.461400 -7.978800
H -12.402800 -23.480100 -8.928800
C -11.942800 -23.201600 -5.889300
O -11.797100 -23.021900 -3.633300
N -11.434500 -23.044000 -7.138200
N -11.244600 -22.809300 -4.687500
H -10.206200 -22.270100 -8.543500
C -10.148800 -22.492600 -7.580400
O -10.139100 -22.310500 -4.801600
O -10.078200 -28.576600 -8.147600
H -9.968700 -21.654100 -7.085900
H -9.751900 -26.140600 -7.038200
N -9.727400 -27.991800 -9.172100
O -9.662500 -28.511600 -10.280900
C -9.469900 -25.858100 -7.899800
C -9.384500 -26.610200 -9.033200
N -9.062500 -24.614900 -8.272300
H -9.011300 -23.779500 -6.424500
C -8.994200 -23.458200 -7.360300
N -8.945400 -25.905300 -10.099300
C -8.754900 -24.715400 -9.597200
N -8.276000 -23.618000 -10.396300
O -8.145100 -22.526000 -9.869000
H -8.138400 -22.980900 -7.503200
O -8.040700 -23.854000 -11.561900
60
Fragment
O -12.395100 -26.033000 -9.803300
H -12.297400 -26.906100 -13.861900
O -12.290700 -27.361000 -11.496200
N -12.159800 -26.269000 -10.968900
C -11.680900 -25.171600 -11.767900
N -11.490400 -23.981700 -11.265900
C -11.441600 -26.428800 -14.004900
H -11.424500 -26.107500 -14.940700
N -11.373300 -25.272100 -13.092900
C -11.051300 -23.276800 -12.332000
C -10.965900 -24.028900 -13.465400
O -10.773300 -21.375400 -11.084300
N -10.708400 -21.895200 -12.193100
H -10.684000 -23.746400 -14.327000
H -10.467100 -28.232900 -14.279300
O -10.357600 -21.310400 -13.217600
O -10.296800 -27.576500 -16.563600
C -10.287000 -27.394400 -13.784800
H -10.229600 -27.616900 -12.821700
N -9.191200 -27.077700 -16.677700
N -9.001300 -26.843000 -14.227000
O -8.638700 -26.865100 -17.731900
C -8.493000 -26.685400 -15.475900
H -8.033000 -26.406900 -12.436400
C -8.013400 -26.425600 -13.386400
N -7.282400 -26.189200 -15.513300
C -6.992300 -26.042300 -14.198200
N -5.716700 -25.520500 -13.785900
O -5.458100 -25.580700 -12.589400
O -4.970700 -25.056600 -14.645800
O -15.465100 -24.830400 -6.719300
O -14.977700 -24.306300 -8.775700
N -14.719100 -24.366500 -7.579300
C -13.443500 -23.844700 -7.166900
N -13.153400 -23.697800 -5.851900
C -12.422500 -23.461400 -7.978800
H -12.402800 -23.480100 -8.928800
C -11.942800 -23.201600 -5.889300
O -11.797100 -23.021900 -3.633300
N -11.434500 -23.044000 -7.138200
N -11.244600 -22.809300 -4.687500
H -10.206200 -22.270100 -8.543500
C -10.148800 -22.492600 -7.580400
O -10.139100 -22.310500 -4.801600
O -10.078200 -28.576600 -8.147600
H -9.968700 -21.654100 -7.085900
H -9.751900 -26.140600 -7.038200
N -9.727400 -27.991800 -9.172100
O -9.662500 -28.511600 -10.280900
C -9.469900 -25.858100 -7.899800
C -9.384500 -26.610200 -9.033200
N -9.062500 -24.614900 -8.272300
H -9.011300 -23.779500 -6.424500
C -8.994200 -23.458200 -7.360300
N -8.945400 -25.905300 -10.099300
C -8.754900 -24.715400 -9.597200
N -8.276000 -23.618000 -10.396300
O -8.145100 -22.526000 -9.869000
H -8.138400 -22.980900 -7.503200
O -8.040700 -23.854000 -11.561900
