30
Fragment
O -12.395100 -26.033000 -9.803300
H -12.297400 -26.906100 -13.861900
O -12.290700 -27.361000 -11.496200
N -12.159800 -26.269000 -10.968900
C -11.680900 -25.171600 -11.767900
N -11.490400 -23.981700 -11.265900
C -11.441600 -26.428800 -14.004900
H -11.424500 -26.107500 -14.940700
N -11.373300 -25.272100 -13.092900
C -11.051300 -23.276800 -12.332000
C -10.965900 -24.028900 -13.465400
O -10.773300 -21.375400 -11.084300
N -10.708400 -21.895200 -12.193100
H -10.684000 -23.746400 -14.327000
H -10.467100 -28.232900 -14.279300
O -10.357600 -21.310400 -13.217600
O -10.296800 -27.576500 -16.563600
C -10.287000 -27.394400 -13.784800
H -10.229600 -27.616900 -12.821700
N -9.191200 -27.077700 -16.677700
N -9.001300 -26.843000 -14.227000
O -8.638700 -26.865100 -17.731900
C -8.493000 -26.685400 -15.475900
H -8.033000 -26.406900 -12.436400
C -8.013400 -26.425600 -13.386400
N -7.282400 -26.189200 -15.513300
C -6.992300 -26.042300 -14.198200
N -5.716700 -25.520500 -13.785900
O -5.458100 -25.580700 -12.589400
O -4.970700 -25.056600 -14.645800
30
Fragment
O -14.228500 -32.168500 -4.462000
H -14.130800 -31.295400 -8.520600
O -14.124100 -30.840500 -6.154900
N -13.993200 -31.932500 -5.627600
C -13.514300 -33.029900 -6.426600
N -13.323800 -34.219800 -5.924600
C -13.275000 -31.772700 -8.663600
H -13.257900 -32.094000 -9.599400
N -13.206700 -32.929400 -7.751600
C -12.884800 -34.924700 -6.990700
C -12.799300 -34.172600 -8.124100
O -12.606800 -36.826100 -5.743000
N -12.541800 -36.306300 -6.851800
H -12.517400 -34.455100 -8.985700
H -12.300600 -29.968600 -8.938000
O -12.191100 -36.891100 -7.876300
O -12.130200 -30.625000 -11.222300
C -12.120400 -30.807100 -8.443500
H -12.063100 -30.584600 -7.480400
N -11.024700 -31.123800 -11.336400
N -10.834700 -31.358500 -8.885700
O -10.472100 -31.336400 -12.390600
C -10.326400 -31.516100 -10.134600
H -9.866400 -31.794600 -7.095100
C -9.846800 -31.775900 -8.045100
N -9.115800 -32.012300 -10.172000
C -8.825700 -32.159200 -8.856900
N -7.550100 -32.681000 -8.444600
O -7.291500 -32.620800 -7.248100
O -6.804100 -33.144900 -9.304500
60
Fragment
O -12.395100 -26.033000 -9.803300
H -12.297400 -26.906100 -13.861900
O -12.290700 -27.361000 -11.496200
N -12.159800 -26.269000 -10.968900
C -11.680900 -25.171600 -11.767900
N -11.490400 -23.981700 -11.265900
C -11.441600 -26.428800 -14.004900
H -11.424500 -26.107500 -14.940700
N -11.373300 -25.272100 -13.092900
C -11.051300 -23.276800 -12.332000
C -10.965900 -24.028900 -13.465400
O -10.773300 -21.375400 -11.084300
N -10.708400 -21.895200 -12.193100
H -10.684000 -23.746400 -14.327000
H -10.467100 -28.232900 -14.279300
O -10.357600 -21.310400 -13.217600
O -10.296800 -27.576500 -16.563600
C -10.287000 -27.394400 -13.784800
H -10.229600 -27.616900 -12.821700
N -9.191200 -27.077700 -16.677700
N -9.001300 -26.843000 -14.227000
O -8.638700 -26.865100 -17.731900
C -8.493000 -26.685400 -15.475900
H -8.033000 -26.406900 -12.436400
C -8.013400 -26.425600 -13.386400
N -7.282400 -26.189200 -15.513300
C -6.992300 -26.042300 -14.198200
N -5.716700 -25.520500 -13.785900
O -5.458100 -25.580700 -12.589400
O -4.970700 -25.056600 -14.645800
O -14.228500 -32.168500 -4.462000
H -14.130800 -31.295400 -8.520600
O -14.124100 -30.840500 -6.154900
N -13.993200 -31.932500 -5.627600
C -13.514300 -33.029900 -6.426600
N -13.323800 -34.219800 -5.924600
C -13.275000 -31.772700 -8.663600
H -13.257900 -32.094000 -9.599400
N -13.206700 -32.929400 -7.751600
C -12.884800 -34.924700 -6.990700
C -12.799300 -34.172600 -8.124100
O -12.606800 -36.826100 -5.743000
N -12.541800 -36.306300 -6.851800
H -12.517400 -34.455100 -8.985700
H -12.300600 -29.968600 -8.938000
O -12.191100 -36.891100 -7.876300
O -12.130200 -30.625000 -11.222300
C -12.120400 -30.807100 -8.443500
H -12.063100 -30.584600 -7.480400
N -11.024700 -31.123800 -11.336400
N -10.834700 -31.358500 -8.885700
O -10.472100 -31.336400 -12.390600
C -10.326400 -31.516100 -10.134600
H -9.866400 -31.794600 -7.095100
C -9.846800 -31.775900 -8.045100
N -9.115800 -32.012300 -10.172000
C -8.825700 -32.159200 -8.856900
N -7.550100 -32.681000 -8.444600
O -7.291500 -32.620800 -7.248100
O -6.804100 -33.144900 -9.304500
