14
Fragment
H -8.602300 -6.168500 -14.915800
O -7.996400 -8.324300 -16.498400
C -7.749600 -6.309100 -14.520800
H -7.516400 -4.909600 -13.113400
N -7.168200 -5.604400 -13.526000
N -6.960300 -8.287100 -15.837600
C -6.828500 -7.270600 -14.829100
O -6.019400 -9.065800 -16.008700
C -5.953200 -6.154800 -13.275100
N -5.705400 -7.187200 -14.068200
O -5.351800 -4.735900 -11.485500
C -5.042200 -5.665900 -12.218900
O -3.939900 -6.343100 -12.163200
H -3.434300 -6.155200 -11.489500
3
Fragment
H -2.308500 -5.298900 -9.641800
O -2.206300 -5.740100 -10.355100
H -1.620500 -6.331200 -10.230800
17
Fragment
H -8.602300 -6.168500 -14.915800
O -7.996400 -8.324300 -16.498400
C -7.749600 -6.309100 -14.520800
H -7.516400 -4.909600 -13.113400
N -7.168200 -5.604400 -13.526000
N -6.960300 -8.287100 -15.837600
C -6.828500 -7.270600 -14.829100
O -6.019400 -9.065800 -16.008700
C -5.953200 -6.154800 -13.275100
N -5.705400 -7.187200 -14.068200
O -5.351800 -4.735900 -11.485500
C -5.042200 -5.665900 -12.218900
O -3.939900 -6.343100 -12.163200
H -3.434300 -6.155200 -11.489500
H -2.308500 -5.298900 -9.641800
O -2.206300 -5.740100 -10.355100
H -1.620500 -6.331200 -10.230800
