14
Fragment
H -8.602300 -6.168500 -14.915800
O -7.996400 -8.324300 -16.498400
C -7.749600 -6.309100 -14.520800
H -7.516400 -4.909600 -13.113400
N -7.168200 -5.604400 -13.526000
N -6.960300 -8.287100 -15.837600
C -6.828500 -7.270600 -14.829100
O -6.019400 -9.065800 -16.008700
C -5.953200 -6.154800 -13.275100
N -5.705400 -7.187200 -14.068200
O -5.351800 -4.735900 -11.485500
C -5.042200 -5.665900 -12.218900
O -3.939900 -6.343100 -12.163200
H -3.434300 -6.155200 -11.489500
14
Fragment
H -2.300600 -6.168500 -14.915800
O -1.694700 -8.324300 -16.498400
C -1.447900 -6.309100 -14.520800
H -1.214700 -4.909600 -13.113400
N -0.866500 -5.604400 -13.526000
N -0.658600 -8.287100 -15.837600
C -0.526800 -7.270600 -14.829100
O 0.282300 -9.065800 -16.008700
C 0.348500 -6.154800 -13.275100
N 0.596300 -7.187200 -14.068200
O 0.949900 -4.735900 -11.485500
C 1.259500 -5.665900 -12.218900
O 2.361800 -6.343100 -12.163200
H 2.867400 -6.155200 -11.489500
28
Fragment
H -8.602300 -6.168500 -14.915800
O -7.996400 -8.324300 -16.498400
C -7.749600 -6.309100 -14.520800
H -7.516400 -4.909600 -13.113400
N -7.168200 -5.604400 -13.526000
N -6.960300 -8.287100 -15.837600
C -6.828500 -7.270600 -14.829100
O -6.019400 -9.065800 -16.008700
C -5.953200 -6.154800 -13.275100
N -5.705400 -7.187200 -14.068200
O -5.351800 -4.735900 -11.485500
C -5.042200 -5.665900 -12.218900
O -3.939900 -6.343100 -12.163200
H -3.434300 -6.155200 -11.489500
H -2.300600 -6.168500 -14.915800
O -1.694700 -8.324300 -16.498400
C -1.447900 -6.309100 -14.520800
H -1.214700 -4.909600 -13.113400
N -0.866500 -5.604400 -13.526000
N -0.658600 -8.287100 -15.837600
C -0.526800 -7.270600 -14.829100
O 0.282300 -9.065800 -16.008700
C 0.348500 -6.154800 -13.275100
N 0.596300 -7.187200 -14.068200
O 0.949900 -4.735900 -11.485500
C 1.259500 -5.665900 -12.218900
O 2.361800 -6.343100 -12.163200
H 2.867400 -6.155200 -11.489500
