14
Fragment
H -8.602300 -6.168500 -14.915800
O -7.996400 -8.324300 -16.498400
C -7.749600 -6.309100 -14.520800
H -7.516400 -4.909600 -13.113400
N -7.168200 -5.604400 -13.526000
N -6.960300 -8.287100 -15.837600
C -6.828500 -7.270600 -14.829100
O -6.019400 -9.065800 -16.008700
C -5.953200 -6.154800 -13.275100
N -5.705400 -7.187200 -14.068200
O -5.351800 -4.735900 -11.485500
C -5.042200 -5.665900 -12.218900
O -3.939900 -6.343100 -12.163200
H -3.434300 -6.155200 -11.489500
14
Fragment
H -12.629000 -11.114900 -22.984300
O -12.023100 -13.270600 -24.566900
C -11.776200 -11.255400 -22.589300
H -11.543100 -9.855900 -21.181900
N -11.194800 -10.550800 -21.594500
N -10.987000 -13.233400 -23.906100
C -10.855100 -12.217000 -22.897500
O -10.046100 -14.012100 -24.077200
C -9.979800 -11.101100 -21.343600
N -9.732000 -12.133500 -22.136700
O -9.378400 -9.682200 -19.554000
C -9.068800 -10.612200 -20.287400
O -7.966600 -11.289500 -20.231700
H -7.461000 -11.101500 -19.558000
28
Fragment
H -8.602300 -6.168500 -14.915800
O -7.996400 -8.324300 -16.498400
C -7.749600 -6.309100 -14.520800
H -7.516400 -4.909600 -13.113400
N -7.168200 -5.604400 -13.526000
N -6.960300 -8.287100 -15.837600
C -6.828500 -7.270600 -14.829100
O -6.019400 -9.065800 -16.008700
C -5.953200 -6.154800 -13.275100
N -5.705400 -7.187200 -14.068200
O -5.351800 -4.735900 -11.485500
C -5.042200 -5.665900 -12.218900
O -3.939900 -6.343100 -12.163200
H -3.434300 -6.155200 -11.489500
H -12.629000 -11.114900 -22.984300
O -12.023100 -13.270600 -24.566900
C -11.776200 -11.255400 -22.589300
H -11.543100 -9.855900 -21.181900
N -11.194800 -10.550800 -21.594500
N -10.987000 -13.233400 -23.906100
C -10.855100 -12.217000 -22.897500
O -10.046100 -14.012100 -24.077200
C -9.979800 -11.101100 -21.343600
N -9.732000 -12.133500 -22.136700
O -9.378400 -9.682200 -19.554000
C -9.068800 -10.612200 -20.287400
O -7.966600 -11.289500 -20.231700
H -7.461000 -11.101500 -19.558000
