14
Fragment
H -8.602300 -6.168500 -14.915800
O -7.996400 -8.324300 -16.498400
C -7.749600 -6.309100 -14.520800
H -7.516400 -4.909600 -13.113400
N -7.168200 -5.604400 -13.526000
N -6.960300 -8.287100 -15.837600
C -6.828500 -7.270600 -14.829100
O -6.019400 -9.065800 -16.008700
C -5.953200 -6.154800 -13.275100
N -5.705400 -7.187200 -14.068200
O -5.351800 -4.735900 -11.485500
C -5.042200 -5.665900 -12.218900
O -3.939900 -6.343100 -12.163200
H -3.434300 -6.155200 -11.489500
14
Fragment
H -4.495100 -2.103000 -12.715900
O -3.989500 -1.915100 -12.042200
C -2.887300 -2.592300 -11.986500
O -2.577600 -3.522400 -12.720000
N -2.224000 -1.071000 -10.137200
C -1.976200 -2.103500 -10.930400
O -1.910000 0.807600 -8.196800
C -1.100900 -0.987600 -9.376400
N -0.969100 0.028900 -8.367800
N -0.761300 -2.653800 -10.679400
H -0.413000 -3.348600 -11.092100
C -0.179800 -1.949100 -9.684600
O 0.067000 0.066100 -7.707000
H 0.672900 -2.089700 -9.289600
28
Fragment
H -8.602300 -6.168500 -14.915800
O -7.996400 -8.324300 -16.498400
C -7.749600 -6.309100 -14.520800
H -7.516400 -4.909600 -13.113400
N -7.168200 -5.604400 -13.526000
N -6.960300 -8.287100 -15.837600
C -6.828500 -7.270600 -14.829100
O -6.019400 -9.065800 -16.008700
C -5.953200 -6.154800 -13.275100
N -5.705400 -7.187200 -14.068200
O -5.351800 -4.735900 -11.485500
C -5.042200 -5.665900 -12.218900
O -3.939900 -6.343100 -12.163200
H -3.434300 -6.155200 -11.489500
H -4.495100 -2.103000 -12.715900
O -3.989500 -1.915100 -12.042200
C -2.887300 -2.592300 -11.986500
O -2.577600 -3.522400 -12.720000
N -2.224000 -1.071000 -10.137200
C -1.976200 -2.103500 -10.930400
O -1.910000 0.807600 -8.196800
C -1.100900 -0.987600 -9.376400
N -0.969100 0.028900 -8.367800
N -0.761300 -2.653800 -10.679400
H -0.413000 -3.348600 -11.092100
C -0.179800 -1.949100 -9.684600
O 0.067000 0.066100 -7.707000
H 0.672900 -2.089700 -9.289600
