14
Fragment
H -8.602300 -6.168500 -14.915800
O -7.996400 -8.324300 -16.498400
C -7.749600 -6.309100 -14.520800
H -7.516400 -4.909600 -13.113400
N -7.168200 -5.604400 -13.526000
N -6.960300 -8.287100 -15.837600
C -6.828500 -7.270600 -14.829100
O -6.019400 -9.065800 -16.008700
C -5.953200 -6.154800 -13.275100
N -5.705400 -7.187200 -14.068200
O -5.351800 -4.735900 -11.485500
C -5.042200 -5.665900 -12.218900
O -3.939900 -6.343100 -12.163200
H -3.434300 -6.155200 -11.489500
14
Fragment
H -2.343900 -8.683900 -12.715900
O -1.838300 -8.495900 -12.042200
C -0.736100 -9.173200 -11.986500
O -0.426400 -10.103200 -12.720000
N -0.072800 -7.651800 -10.137200
C 0.175000 -8.684300 -10.930400
O 0.241200 -5.773200 -8.196800
C 1.050300 -7.568400 -9.376400
N 1.182100 -6.552000 -8.367800
N 1.389900 -9.234600 -10.679400
H 1.738200 -9.929400 -11.092100
C 1.971400 -8.529900 -9.684600
O 2.218200 -6.514700 -7.707000
H 2.824100 -8.670500 -9.289600
28
Fragment
H -8.602300 -6.168500 -14.915800
O -7.996400 -8.324300 -16.498400
C -7.749600 -6.309100 -14.520800
H -7.516400 -4.909600 -13.113400
N -7.168200 -5.604400 -13.526000
N -6.960300 -8.287100 -15.837600
C -6.828500 -7.270600 -14.829100
O -6.019400 -9.065800 -16.008700
C -5.953200 -6.154800 -13.275100
N -5.705400 -7.187200 -14.068200
O -5.351800 -4.735900 -11.485500
C -5.042200 -5.665900 -12.218900
O -3.939900 -6.343100 -12.163200
H -3.434300 -6.155200 -11.489500
H -2.343900 -8.683900 -12.715900
O -1.838300 -8.495900 -12.042200
C -0.736100 -9.173200 -11.986500
O -0.426400 -10.103200 -12.720000
N -0.072800 -7.651800 -10.137200
C 0.175000 -8.684300 -10.930400
O 0.241200 -5.773200 -8.196800
C 1.050300 -7.568400 -9.376400
N 1.182100 -6.552000 -8.367800
N 1.389900 -9.234600 -10.679400
H 1.738200 -9.929400 -11.092100
C 1.971400 -8.529900 -9.684600
O 2.218200 -6.514700 -7.707000
H 2.824100 -8.670500 -9.289600
