32
Fragment
H -24.109800 -9.365700 -36.987900
H -23.661100 -7.260400 -36.149000
C -23.280600 -9.178600 -36.610600
C -23.014500 -7.927100 -36.103400
H -22.799200 -3.915900 -32.684400
H -22.480000 -10.993900 -36.900600
H -22.392300 -2.068800 -31.380100
C -22.308400 -10.148300 -36.553700
C -21.967900 -3.811100 -32.279600
C -21.785800 -7.657600 -35.526700
C -21.730200 -2.709000 -31.504200
H -21.612000 -6.810300 -35.186500
H -21.170500 -5.524000 -32.994800
C -21.082900 -9.876500 -35.986600
C -20.989500 -4.775500 -32.472300
C -20.817000 -8.633700 -35.453400
C -20.495400 -2.561300 -30.911400
H -20.429000 -10.537800 -35.962300
H -20.334000 -1.822300 -30.371500
C -19.742500 -4.624900 -31.888500
N -19.565100 -8.394300 -34.825300
C -19.487800 -3.495200 -31.106800
H -19.234600 -8.939700 -34.248200
H -19.079000 -7.342200 -32.805700
N -18.897400 -7.215100 -35.199100
N -18.836900 -6.544300 -33.016800
N -18.723100 -5.589300 -32.001500
H -18.684300 -7.099200 -36.025400
H -18.650600 -3.370400 -30.720600
C -18.583900 -6.268300 -34.308600
O -18.056800 -5.189800 -34.681500
H -18.051600 -5.591100 -31.462500
32
Fragment
H -18.543100 -6.177100 -41.272000
O -18.537900 -6.578400 -38.053000
C -18.010700 -5.499900 -38.425900
H -17.944100 -8.397800 -42.013800
H -17.910300 -4.669000 -36.709100
N -17.871500 -6.178900 -40.733000
N -17.757700 -5.223900 -39.717600
N -17.697300 -4.553100 -37.535300
H -17.515700 -4.426000 -39.928800
H -17.360100 -2.828500 -38.486200
C -17.106800 -8.273000 -41.627600
N -17.029500 -3.373900 -37.909200
C -16.852100 -7.143300 -40.846000
H -16.260600 -9.945900 -42.363000
H -16.165600 -1.230400 -36.772100
C -16.099200 -9.206900 -41.823000
C -15.777600 -3.134500 -37.281000
C -15.605200 -6.992700 -40.262200
C -15.511800 -1.891700 -36.747900
H -15.424100 -6.244200 -39.739700
H -14.982700 -4.957900 -37.548000
C -14.864400 -9.059200 -41.230300
C -14.808900 -4.110600 -37.207800
C -14.626800 -7.957100 -40.454900
C -14.286300 -1.619900 -36.180800
H -14.202300 -9.699400 -41.354400
H -14.114600 -0.774300 -35.833800
H -13.795400 -7.852300 -40.050000
C -13.580200 -3.841100 -36.631000
C -13.314000 -2.589600 -36.123800
H -12.933500 -4.507800 -36.585400
H -12.484800 -2.402500 -35.746600
64
Fragment
H -24.109800 -9.365700 -36.987900
H -23.661100 -7.260400 -36.149000
C -23.280600 -9.178600 -36.610600
C -23.014500 -7.927100 -36.103400
H -22.799200 -3.915900 -32.684400
H -22.480000 -10.993900 -36.900600
H -22.392300 -2.068800 -31.380100
C -22.308400 -10.148300 -36.553700
C -21.967900 -3.811100 -32.279600
C -21.785800 -7.657600 -35.526700
C -21.730200 -2.709000 -31.504200
H -21.612000 -6.810300 -35.186500
H -21.170500 -5.524000 -32.994800
C -21.082900 -9.876500 -35.986600
C -20.989500 -4.775500 -32.472300
C -20.817000 -8.633700 -35.453400
C -20.495400 -2.561300 -30.911400
H -20.429000 -10.537800 -35.962300
H -20.334000 -1.822300 -30.371500
C -19.742500 -4.624900 -31.888500
N -19.565100 -8.394300 -34.825300
C -19.487800 -3.495200 -31.106800
H -19.234600 -8.939700 -34.248200
H -19.079000 -7.342200 -32.805700
N -18.897400 -7.215100 -35.199100
N -18.836900 -6.544300 -33.016800
N -18.723100 -5.589300 -32.001500
H -18.684300 -7.099200 -36.025400
H -18.650600 -3.370400 -30.720600
C -18.583900 -6.268300 -34.308600
O -18.056800 -5.189800 -34.681500
H -18.051600 -5.591100 -31.462500
H -18.543100 -6.177100 -41.272000
O -18.537900 -6.578400 -38.053000
C -18.010700 -5.499900 -38.425900
H -17.944100 -8.397800 -42.013800
H -17.910300 -4.669000 -36.709100
N -17.871500 -6.178900 -40.733000
N -17.757700 -5.223900 -39.717600
N -17.697300 -4.553100 -37.535300
H -17.515700 -4.426000 -39.928800
H -17.360100 -2.828500 -38.486200
C -17.106800 -8.273000 -41.627600
N -17.029500 -3.373900 -37.909200
C -16.852100 -7.143300 -40.846000
H -16.260600 -9.945900 -42.363000
H -16.165600 -1.230400 -36.772100
C -16.099200 -9.206900 -41.823000
C -15.777600 -3.134500 -37.281000
C -15.605200 -6.992700 -40.262200
C -15.511800 -1.891700 -36.747900
H -15.424100 -6.244200 -39.739700
H -14.982700 -4.957900 -37.548000
C -14.864400 -9.059200 -41.230300
C -14.808900 -4.110600 -37.207800
C -14.626800 -7.957100 -40.454900
C -14.286300 -1.619900 -36.180800
H -14.202300 -9.699400 -41.354400
H -14.114600 -0.774300 -35.833800
H -13.795400 -7.852300 -40.050000
C -13.580200 -3.841100 -36.631000
C -13.314000 -2.589600 -36.123800
H -12.933500 -4.507800 -36.585400
H -12.484800 -2.402500 -35.746600
