32
Fragment
H -24.109800 -9.365700 -36.987900
H -23.661100 -7.260400 -36.149000
C -23.280600 -9.178600 -36.610600
C -23.014500 -7.927100 -36.103400
H -22.799200 -3.915900 -32.684400
H -22.480000 -10.993900 -36.900600
H -22.392300 -2.068800 -31.380100
C -22.308400 -10.148300 -36.553700
C -21.967900 -3.811100 -32.279600
C -21.785800 -7.657600 -35.526700
C -21.730200 -2.709000 -31.504200
H -21.612000 -6.810300 -35.186500
H -21.170500 -5.524000 -32.994800
C -21.082900 -9.876500 -35.986600
C -20.989500 -4.775500 -32.472300
C -20.817000 -8.633700 -35.453400
C -20.495400 -2.561300 -30.911400
H -20.429000 -10.537800 -35.962300
H -20.334000 -1.822300 -30.371500
C -19.742500 -4.624900 -31.888500
N -19.565100 -8.394300 -34.825300
C -19.487800 -3.495200 -31.106800
H -19.234600 -8.939700 -34.248200
H -19.079000 -7.342200 -32.805700
N -18.897400 -7.215100 -35.199100
N -18.836900 -6.544300 -33.016800
N -18.723100 -5.589300 -32.001500
H -18.684300 -7.099200 -36.025400
H -18.650600 -3.370400 -30.720600
C -18.583900 -6.268300 -34.308600
O -18.056800 -5.189800 -34.681500
H -18.051600 -5.591100 -31.462500
32
Fragment
H -24.109800 -15.249800 -36.987900
H -23.661100 -13.144500 -36.149000
C -23.280600 -15.062700 -36.610600
C -23.014500 -13.811200 -36.103400
H -22.799200 -9.800000 -32.684400
H -22.480000 -16.878000 -36.900600
H -22.392300 -7.952900 -31.380100
C -22.308400 -16.032400 -36.553700
C -21.967900 -9.695200 -32.279600
C -21.785800 -13.541700 -35.526700
C -21.730200 -8.593100 -31.504200
H -21.612000 -12.694400 -35.186500
H -21.170500 -11.408100 -32.994800
C -21.082900 -15.760600 -35.986600
C -20.989500 -10.659600 -32.472300
C -20.817000 -14.517800 -35.453400
C -20.495400 -8.445400 -30.911400
H -20.429000 -16.421900 -35.962300
H -20.334000 -7.706400 -30.371500
C -19.742500 -10.509000 -31.888500
N -19.565100 -14.278400 -34.825300
C -19.487800 -9.379300 -31.106800
H -19.234600 -14.823800 -34.248200
H -19.079000 -13.226300 -32.805700
N -18.897400 -13.099200 -35.199100
N -18.836900 -12.428400 -33.016800
N -18.723100 -11.473400 -32.001500
H -18.684300 -12.983300 -36.025400
H -18.650600 -9.254500 -30.720600
C -18.583900 -12.152400 -34.308600
O -18.056800 -11.073900 -34.681500
H -18.051600 -11.475200 -31.462500
64
Fragment
H -24.109800 -9.365700 -36.987900
H -23.661100 -7.260400 -36.149000
C -23.280600 -9.178600 -36.610600
C -23.014500 -7.927100 -36.103400
H -22.799200 -3.915900 -32.684400
H -22.480000 -10.993900 -36.900600
H -22.392300 -2.068800 -31.380100
C -22.308400 -10.148300 -36.553700
C -21.967900 -3.811100 -32.279600
C -21.785800 -7.657600 -35.526700
C -21.730200 -2.709000 -31.504200
H -21.612000 -6.810300 -35.186500
H -21.170500 -5.524000 -32.994800
C -21.082900 -9.876500 -35.986600
C -20.989500 -4.775500 -32.472300
C -20.817000 -8.633700 -35.453400
C -20.495400 -2.561300 -30.911400
H -20.429000 -10.537800 -35.962300
H -20.334000 -1.822300 -30.371500
C -19.742500 -4.624900 -31.888500
N -19.565100 -8.394300 -34.825300
C -19.487800 -3.495200 -31.106800
H -19.234600 -8.939700 -34.248200
H -19.079000 -7.342200 -32.805700
N -18.897400 -7.215100 -35.199100
N -18.836900 -6.544300 -33.016800
N -18.723100 -5.589300 -32.001500
H -18.684300 -7.099200 -36.025400
H -18.650600 -3.370400 -30.720600
C -18.583900 -6.268300 -34.308600
O -18.056800 -5.189800 -34.681500
H -18.051600 -5.591100 -31.462500
H -24.109800 -15.249800 -36.987900
H -23.661100 -13.144500 -36.149000
C -23.280600 -15.062700 -36.610600
C -23.014500 -13.811200 -36.103400
H -22.799200 -9.800000 -32.684400
H -22.480000 -16.878000 -36.900600
H -22.392300 -7.952900 -31.380100
C -22.308400 -16.032400 -36.553700
C -21.967900 -9.695200 -32.279600
C -21.785800 -13.541700 -35.526700
C -21.730200 -8.593100 -31.504200
H -21.612000 -12.694400 -35.186500
H -21.170500 -11.408100 -32.994800
C -21.082900 -15.760600 -35.986600
C -20.989500 -10.659600 -32.472300
C -20.817000 -14.517800 -35.453400
C -20.495400 -8.445400 -30.911400
H -20.429000 -16.421900 -35.962300
H -20.334000 -7.706400 -30.371500
C -19.742500 -10.509000 -31.888500
N -19.565100 -14.278400 -34.825300
C -19.487800 -9.379300 -31.106800
H -19.234600 -14.823800 -34.248200
H -19.079000 -13.226300 -32.805700
N -18.897400 -13.099200 -35.199100
N -18.836900 -12.428400 -33.016800
N -18.723100 -11.473400 -32.001500
H -18.684300 -12.983300 -36.025400
H -18.650600 -9.254500 -30.720600
C -18.583900 -12.152400 -34.308600
O -18.056800 -11.073900 -34.681500
H -18.051600 -11.475200 -31.462500
