32
Fragment
H -24.109800 -9.365700 -36.987900
H -23.661100 -7.260400 -36.149000
C -23.280600 -9.178600 -36.610600
C -23.014500 -7.927100 -36.103400
H -22.799200 -3.915900 -32.684400
H -22.480000 -10.993900 -36.900600
H -22.392300 -2.068800 -31.380100
C -22.308400 -10.148300 -36.553700
C -21.967900 -3.811100 -32.279600
C -21.785800 -7.657600 -35.526700
C -21.730200 -2.709000 -31.504200
H -21.612000 -6.810300 -35.186500
H -21.170500 -5.524000 -32.994800
C -21.082900 -9.876500 -35.986600
C -20.989500 -4.775500 -32.472300
C -20.817000 -8.633700 -35.453400
C -20.495400 -2.561300 -30.911400
H -20.429000 -10.537800 -35.962300
H -20.334000 -1.822300 -30.371500
C -19.742500 -4.624900 -31.888500
N -19.565100 -8.394300 -34.825300
C -19.487800 -3.495200 -31.106800
H -19.234600 -8.939700 -34.248200
H -19.079000 -7.342200 -32.805700
N -18.897400 -7.215100 -35.199100
N -18.836900 -6.544300 -33.016800
N -18.723100 -5.589300 -32.001500
H -18.684300 -7.099200 -36.025400
H -18.650600 -3.370400 -30.720600
C -18.583900 -6.268300 -34.308600
O -18.056800 -5.189800 -34.681500
H -18.051600 -5.591100 -31.462500
20
Fragment
H -30.461000 -9.853500 -33.923400
N -30.130700 -9.154500 -33.548300
O -30.115600 -10.150700 -31.513700
H -29.959400 -8.454300 -34.017900
C -29.882100 -9.156200 -32.230800
H -29.528700 -6.417800 -32.863900
N -29.372500 -8.020000 -31.706600
H -29.299400 -7.948200 -30.851500
N -28.962700 -6.962700 -32.513300
H -27.711700 -4.939100 -33.462700
C -27.567800 -6.825000 -32.733200
C -27.114000 -5.630500 -33.286900
H -26.973500 -8.627300 -32.073500
C -26.677700 -7.831100 -32.451400
C -25.758700 -5.480500 -33.575700
H -25.453000 -4.688500 -33.954900
C -25.332500 -7.648200 -32.736600
C -24.871300 -6.496000 -33.302900
H -24.731000 -8.327800 -32.536500
H -23.968200 -6.398400 -33.501500
52
Fragment
H -24.109800 -9.365700 -36.987900
H -23.661100 -7.260400 -36.149000
C -23.280600 -9.178600 -36.610600
C -23.014500 -7.927100 -36.103400
H -22.799200 -3.915900 -32.684400
H -22.480000 -10.993900 -36.900600
H -22.392300 -2.068800 -31.380100
C -22.308400 -10.148300 -36.553700
C -21.967900 -3.811100 -32.279600
C -21.785800 -7.657600 -35.526700
C -21.730200 -2.709000 -31.504200
H -21.612000 -6.810300 -35.186500
H -21.170500 -5.524000 -32.994800
C -21.082900 -9.876500 -35.986600
C -20.989500 -4.775500 -32.472300
C -20.817000 -8.633700 -35.453400
C -20.495400 -2.561300 -30.911400
H -20.429000 -10.537800 -35.962300
H -20.334000 -1.822300 -30.371500
C -19.742500 -4.624900 -31.888500
N -19.565100 -8.394300 -34.825300
C -19.487800 -3.495200 -31.106800
H -19.234600 -8.939700 -34.248200
H -19.079000 -7.342200 -32.805700
N -18.897400 -7.215100 -35.199100
N -18.836900 -6.544300 -33.016800
N -18.723100 -5.589300 -32.001500
H -18.684300 -7.099200 -36.025400
H -18.650600 -3.370400 -30.720600
C -18.583900 -6.268300 -34.308600
O -18.056800 -5.189800 -34.681500
H -18.051600 -5.591100 -31.462500
H -30.461000 -9.853500 -33.923400
N -30.130700 -9.154500 -33.548300
O -30.115600 -10.150700 -31.513700
H -29.959400 -8.454300 -34.017900
C -29.882100 -9.156200 -32.230800
H -29.528700 -6.417800 -32.863900
N -29.372500 -8.020000 -31.706600
H -29.299400 -7.948200 -30.851500
N -28.962700 -6.962700 -32.513300
H -27.711700 -4.939100 -33.462700
C -27.567800 -6.825000 -32.733200
C -27.114000 -5.630500 -33.286900
H -26.973500 -8.627300 -32.073500
C -26.677700 -7.831100 -32.451400
C -25.758700 -5.480500 -33.575700
H -25.453000 -4.688500 -33.954900
C -25.332500 -7.648200 -32.736600
C -24.871300 -6.496000 -33.302900
H -24.731000 -8.327800 -32.536500
H -23.968200 -6.398400 -33.501500
