32
Fragment
H -24.109800 -9.365700 -36.987900
H -23.661100 -7.260400 -36.149000
C -23.280600 -9.178600 -36.610600
C -23.014500 -7.927100 -36.103400
H -22.799200 -3.915900 -32.684400
H -22.480000 -10.993900 -36.900600
H -22.392300 -2.068800 -31.380100
C -22.308400 -10.148300 -36.553700
C -21.967900 -3.811100 -32.279600
C -21.785800 -7.657600 -35.526700
C -21.730200 -2.709000 -31.504200
H -21.612000 -6.810300 -35.186500
H -21.170500 -5.524000 -32.994800
C -21.082900 -9.876500 -35.986600
C -20.989500 -4.775500 -32.472300
C -20.817000 -8.633700 -35.453400
C -20.495400 -2.561300 -30.911400
H -20.429000 -10.537800 -35.962300
H -20.334000 -1.822300 -30.371500
C -19.742500 -4.624900 -31.888500
N -19.565100 -8.394300 -34.825300
C -19.487800 -3.495200 -31.106800
H -19.234600 -8.939700 -34.248200
H -19.079000 -7.342200 -32.805700
N -18.897400 -7.215100 -35.199100
N -18.836900 -6.544300 -33.016800
N -18.723100 -5.589300 -32.001500
H -18.684300 -7.099200 -36.025400
H -18.650600 -3.370400 -30.720600
C -18.583900 -6.268300 -34.308600
O -18.056800 -5.189800 -34.681500
H -18.051600 -5.591100 -31.462500
20
Fragment
H -26.636100 -11.253900 -39.233000
H -25.873300 -9.324500 -40.197900
C -25.733100 -11.156300 -39.431500
C -25.271900 -10.004100 -39.997900
H -25.151300 -12.963800 -38.779600
C -24.845600 -12.171800 -39.158800
C -23.926600 -9.821200 -40.283000
H -23.630800 -9.025000 -40.661000
C -23.490300 -12.021800 -39.447500
C -23.036500 -10.827300 -40.001300
H -22.892600 -12.713200 -39.271800
N -21.641700 -10.689600 -40.221200
H -21.305000 -9.704100 -41.882900
N -21.231800 -9.632300 -41.027800
H -21.075700 -11.234500 -39.870600
C -20.722300 -8.496100 -40.503600
H -20.644900 -9.198000 -38.716600
O -20.488800 -7.501600 -41.220800
N -20.473700 -8.497800 -39.186200
H -20.143300 -7.798800 -38.811100
52
Fragment
H -24.109800 -9.365700 -36.987900
H -23.661100 -7.260400 -36.149000
C -23.280600 -9.178600 -36.610600
C -23.014500 -7.927100 -36.103400
H -22.799200 -3.915900 -32.684400
H -22.480000 -10.993900 -36.900600
H -22.392300 -2.068800 -31.380100
C -22.308400 -10.148300 -36.553700
C -21.967900 -3.811100 -32.279600
C -21.785800 -7.657600 -35.526700
C -21.730200 -2.709000 -31.504200
H -21.612000 -6.810300 -35.186500
H -21.170500 -5.524000 -32.994800
C -21.082900 -9.876500 -35.986600
C -20.989500 -4.775500 -32.472300
C -20.817000 -8.633700 -35.453400
C -20.495400 -2.561300 -30.911400
H -20.429000 -10.537800 -35.962300
H -20.334000 -1.822300 -30.371500
C -19.742500 -4.624900 -31.888500
N -19.565100 -8.394300 -34.825300
C -19.487800 -3.495200 -31.106800
H -19.234600 -8.939700 -34.248200
H -19.079000 -7.342200 -32.805700
N -18.897400 -7.215100 -35.199100
N -18.836900 -6.544300 -33.016800
N -18.723100 -5.589300 -32.001500
H -18.684300 -7.099200 -36.025400
H -18.650600 -3.370400 -30.720600
C -18.583900 -6.268300 -34.308600
O -18.056800 -5.189800 -34.681500
H -18.051600 -5.591100 -31.462500
H -26.636100 -11.253900 -39.233000
H -25.873300 -9.324500 -40.197900
C -25.733100 -11.156300 -39.431500
C -25.271900 -10.004100 -39.997900
H -25.151300 -12.963800 -38.779600
C -24.845600 -12.171800 -39.158800
C -23.926600 -9.821200 -40.283000
H -23.630800 -9.025000 -40.661000
C -23.490300 -12.021800 -39.447500
C -23.036500 -10.827300 -40.001300
H -22.892600 -12.713200 -39.271800
N -21.641700 -10.689600 -40.221200
H -21.305000 -9.704100 -41.882900
N -21.231800 -9.632300 -41.027800
H -21.075700 -11.234500 -39.870600
C -20.722300 -8.496100 -40.503600
H -20.644900 -9.198000 -38.716600
O -20.488800 -7.501600 -41.220800
N -20.473700 -8.497800 -39.186200
H -20.143300 -7.798800 -38.811100
