32
Fragment
H -24.109800 -9.365700 -36.987900
H -23.661100 -7.260400 -36.149000
C -23.280600 -9.178600 -36.610600
C -23.014500 -7.927100 -36.103400
H -22.799200 -3.915900 -32.684400
H -22.480000 -10.993900 -36.900600
H -22.392300 -2.068800 -31.380100
C -22.308400 -10.148300 -36.553700
C -21.967900 -3.811100 -32.279600
C -21.785800 -7.657600 -35.526700
C -21.730200 -2.709000 -31.504200
H -21.612000 -6.810300 -35.186500
H -21.170500 -5.524000 -32.994800
C -21.082900 -9.876500 -35.986600
C -20.989500 -4.775500 -32.472300
C -20.817000 -8.633700 -35.453400
C -20.495400 -2.561300 -30.911400
H -20.429000 -10.537800 -35.962300
H -20.334000 -1.822300 -30.371500
C -19.742500 -4.624900 -31.888500
N -19.565100 -8.394300 -34.825300
C -19.487800 -3.495200 -31.106800
H -19.234600 -8.939700 -34.248200
H -19.079000 -7.342200 -32.805700
N -18.897400 -7.215100 -35.199100
N -18.836900 -6.544300 -33.016800
N -18.723100 -5.589300 -32.001500
H -18.684300 -7.099200 -36.025400
H -18.650600 -3.370400 -30.720600
C -18.583900 -6.268300 -34.308600
O -18.056800 -5.189800 -34.681500
H -18.051600 -5.591100 -31.462500
32
Fragment
H -26.453700 -8.533100 -29.149500
O -26.448500 -8.131800 -25.930600
C -25.921300 -9.210400 -26.303400
H -25.854700 -6.312500 -29.891400
H -25.820900 -10.041200 -24.586700
N -25.782100 -8.531400 -28.610600
N -25.668300 -9.486300 -27.595200
N -25.607900 -10.157100 -25.412900
H -25.426200 -10.284200 -27.806400
H -25.270600 -11.881800 -26.363800
C -25.017400 -6.437200 -29.505200
N -24.940100 -11.336300 -25.786800
C -24.762700 -7.567000 -28.723600
H -24.171200 -4.764400 -30.240600
H -24.076200 -13.479900 -24.649700
C -24.009800 -5.503400 -29.700600
C -23.688200 -11.575800 -25.158600
C -23.515800 -7.717600 -28.139800
C -23.422400 -12.818500 -24.625500
H -23.334700 -8.466000 -27.617300
H -22.893300 -9.752300 -25.425500
C -22.775000 -5.651100 -29.107800
C -22.719500 -10.599600 -25.085400
C -22.537400 -6.753200 -28.332500
C -22.196900 -13.090400 -24.058400
H -22.112900 -5.010900 -29.232000
H -22.025200 -13.935900 -23.711400
H -21.706000 -6.857900 -27.927600
C -21.490800 -10.869100 -24.508600
C -21.224600 -12.120700 -24.001400
H -20.844100 -10.202400 -24.463000
H -20.395400 -12.307800 -23.624200
64
Fragment
H -24.109800 -9.365700 -36.987900
H -23.661100 -7.260400 -36.149000
C -23.280600 -9.178600 -36.610600
C -23.014500 -7.927100 -36.103400
H -22.799200 -3.915900 -32.684400
H -22.480000 -10.993900 -36.900600
H -22.392300 -2.068800 -31.380100
C -22.308400 -10.148300 -36.553700
C -21.967900 -3.811100 -32.279600
C -21.785800 -7.657600 -35.526700
C -21.730200 -2.709000 -31.504200
H -21.612000 -6.810300 -35.186500
H -21.170500 -5.524000 -32.994800
C -21.082900 -9.876500 -35.986600
C -20.989500 -4.775500 -32.472300
C -20.817000 -8.633700 -35.453400
C -20.495400 -2.561300 -30.911400
H -20.429000 -10.537800 -35.962300
H -20.334000 -1.822300 -30.371500
C -19.742500 -4.624900 -31.888500
N -19.565100 -8.394300 -34.825300
C -19.487800 -3.495200 -31.106800
H -19.234600 -8.939700 -34.248200
H -19.079000 -7.342200 -32.805700
N -18.897400 -7.215100 -35.199100
N -18.836900 -6.544300 -33.016800
N -18.723100 -5.589300 -32.001500
H -18.684300 -7.099200 -36.025400
H -18.650600 -3.370400 -30.720600
C -18.583900 -6.268300 -34.308600
O -18.056800 -5.189800 -34.681500
H -18.051600 -5.591100 -31.462500
H -26.453700 -8.533100 -29.149500
O -26.448500 -8.131800 -25.930600
C -25.921300 -9.210400 -26.303400
H -25.854700 -6.312500 -29.891400
H -25.820900 -10.041200 -24.586700
N -25.782100 -8.531400 -28.610600
N -25.668300 -9.486300 -27.595200
N -25.607900 -10.157100 -25.412900
H -25.426200 -10.284200 -27.806400
H -25.270600 -11.881800 -26.363800
C -25.017400 -6.437200 -29.505200
N -24.940100 -11.336300 -25.786800
C -24.762700 -7.567000 -28.723600
H -24.171200 -4.764400 -30.240600
H -24.076200 -13.479900 -24.649700
C -24.009800 -5.503400 -29.700600
C -23.688200 -11.575800 -25.158600
C -23.515800 -7.717600 -28.139800
C -23.422400 -12.818500 -24.625500
H -23.334700 -8.466000 -27.617300
H -22.893300 -9.752300 -25.425500
C -22.775000 -5.651100 -29.107800
C -22.719500 -10.599600 -25.085400
C -22.537400 -6.753200 -28.332500
C -22.196900 -13.090400 -24.058400
H -22.112900 -5.010900 -29.232000
H -22.025200 -13.935900 -23.711400
H -21.706000 -6.857900 -27.927600
C -21.490800 -10.869100 -24.508600
C -21.224600 -12.120700 -24.001400
H -20.844100 -10.202400 -24.463000
H -20.395400 -12.307800 -23.624200
