32
Fragment
H -24.109800 -9.365700 -36.987900
H -23.661100 -7.260400 -36.149000
C -23.280600 -9.178600 -36.610600
C -23.014500 -7.927100 -36.103400
H -22.799200 -3.915900 -32.684400
H -22.480000 -10.993900 -36.900600
H -22.392300 -2.068800 -31.380100
C -22.308400 -10.148300 -36.553700
C -21.967900 -3.811100 -32.279600
C -21.785800 -7.657600 -35.526700
C -21.730200 -2.709000 -31.504200
H -21.612000 -6.810300 -35.186500
H -21.170500 -5.524000 -32.994800
C -21.082900 -9.876500 -35.986600
C -20.989500 -4.775500 -32.472300
C -20.817000 -8.633700 -35.453400
C -20.495400 -2.561300 -30.911400
H -20.429000 -10.537800 -35.962300
H -20.334000 -1.822300 -30.371500
C -19.742500 -4.624900 -31.888500
N -19.565100 -8.394300 -34.825300
C -19.487800 -3.495200 -31.106800
H -19.234600 -8.939700 -34.248200
H -19.079000 -7.342200 -32.805700
N -18.897400 -7.215100 -35.199100
N -18.836900 -6.544300 -33.016800
N -18.723100 -5.589300 -32.001500
H -18.684300 -7.099200 -36.025400
H -18.650600 -3.370400 -30.720600
C -18.583900 -6.268300 -34.308600
O -18.056800 -5.189800 -34.681500
H -18.051600 -5.591100 -31.462500
32
Fragment
H -24.109800 -3.481600 -36.987900
H -23.661100 -1.376300 -36.149000
C -23.280600 -3.294500 -36.610600
C -23.014500 -2.043000 -36.103400
H -22.799200 1.968200 -32.684400
H -22.480000 -5.109800 -36.900600
H -22.392300 3.815300 -31.380100
C -22.308400 -4.264200 -36.553700
C -21.967900 2.073000 -32.279600
C -21.785800 -1.773500 -35.526700
C -21.730200 3.175100 -31.504200
H -21.612000 -0.926200 -35.186500
H -21.170500 0.360100 -32.994800
C -21.082900 -3.992400 -35.986600
C -20.989500 1.108600 -32.472300
C -20.817000 -2.749600 -35.453400
C -20.495400 3.322800 -30.911400
H -20.429000 -4.653700 -35.962300
H -20.334000 4.061800 -30.371500
C -19.742500 1.259200 -31.888500
N -19.565100 -2.510200 -34.825300
C -19.487800 2.388900 -31.106800
H -19.234600 -3.055600 -34.248200
H -19.079000 -1.458100 -32.805700
N -18.897400 -1.331000 -35.199100
N -18.836900 -0.660200 -33.016800
N -18.723100 0.294800 -32.001500
H -18.684300 -1.215100 -36.025400
H -18.650600 2.513700 -30.720600
C -18.583900 -0.384200 -34.308600
O -18.056800 0.694300 -34.681500
H -18.051600 0.293000 -31.462500
64
Fragment
H -24.109800 -9.365700 -36.987900
H -23.661100 -7.260400 -36.149000
C -23.280600 -9.178600 -36.610600
C -23.014500 -7.927100 -36.103400
H -22.799200 -3.915900 -32.684400
H -22.480000 -10.993900 -36.900600
H -22.392300 -2.068800 -31.380100
C -22.308400 -10.148300 -36.553700
C -21.967900 -3.811100 -32.279600
C -21.785800 -7.657600 -35.526700
C -21.730200 -2.709000 -31.504200
H -21.612000 -6.810300 -35.186500
H -21.170500 -5.524000 -32.994800
C -21.082900 -9.876500 -35.986600
C -20.989500 -4.775500 -32.472300
C -20.817000 -8.633700 -35.453400
C -20.495400 -2.561300 -30.911400
H -20.429000 -10.537800 -35.962300
H -20.334000 -1.822300 -30.371500
C -19.742500 -4.624900 -31.888500
N -19.565100 -8.394300 -34.825300
C -19.487800 -3.495200 -31.106800
H -19.234600 -8.939700 -34.248200
H -19.079000 -7.342200 -32.805700
N -18.897400 -7.215100 -35.199100
N -18.836900 -6.544300 -33.016800
N -18.723100 -5.589300 -32.001500
H -18.684300 -7.099200 -36.025400
H -18.650600 -3.370400 -30.720600
C -18.583900 -6.268300 -34.308600
O -18.056800 -5.189800 -34.681500
H -18.051600 -5.591100 -31.462500
H -24.109800 -3.481600 -36.987900
H -23.661100 -1.376300 -36.149000
C -23.280600 -3.294500 -36.610600
C -23.014500 -2.043000 -36.103400
H -22.799200 1.968200 -32.684400
H -22.480000 -5.109800 -36.900600
H -22.392300 3.815300 -31.380100
C -22.308400 -4.264200 -36.553700
C -21.967900 2.073000 -32.279600
C -21.785800 -1.773500 -35.526700
C -21.730200 3.175100 -31.504200
H -21.612000 -0.926200 -35.186500
H -21.170500 0.360100 -32.994800
C -21.082900 -3.992400 -35.986600
C -20.989500 1.108600 -32.472300
C -20.817000 -2.749600 -35.453400
C -20.495400 3.322800 -30.911400
H -20.429000 -4.653700 -35.962300
H -20.334000 4.061800 -30.371500
C -19.742500 1.259200 -31.888500
N -19.565100 -2.510200 -34.825300
C -19.487800 2.388900 -31.106800
H -19.234600 -3.055600 -34.248200
H -19.079000 -1.458100 -32.805700
N -18.897400 -1.331000 -35.199100
N -18.836900 -0.660200 -33.016800
N -18.723100 0.294800 -32.001500
H -18.684300 -1.215100 -36.025400
H -18.650600 2.513700 -30.720600
C -18.583900 -0.384200 -34.308600
O -18.056800 0.694300 -34.681500
H -18.051600 0.293000 -31.462500
