23
Fragment
H -14.006600 -23.061800 -17.525100
H -13.814600 -22.079200 -16.339600
C -13.376100 -22.538300 -17.046600
O -12.757200 -21.557300 -17.959200
H -12.701700 -23.103200 -16.687700
C -12.113000 -22.027000 -18.999500
O -12.016600 -23.206100 -19.241400
H -11.992400 -19.375800 -18.694400
C -11.568700 -19.642900 -19.500800
C -11.506900 -20.986200 -19.862400
O -11.459000 -17.020800 -18.847600
H -11.067800 -23.196900 -20.698400
N -11.044500 -17.298600 -19.956500
C -11.003400 -18.709500 -20.335500
C -10.854600 -21.385300 -21.053200
O -10.748500 -22.667200 -21.383800
O -10.663600 -16.472700 -20.769600
C -10.393900 -19.051800 -21.525000
C -10.328900 -20.376700 -21.879800
H -10.026400 -18.382500 -22.088100
O -9.759600 -21.779900 -23.627100
N -9.658300 -20.671500 -23.152600
O -9.085300 -19.767200 -23.715800
23
Fragment
O -10.133800 -10.936800 -16.605700
N -9.560800 -10.032500 -17.168900
O -9.459500 -8.924100 -16.694500
H -9.192600 -12.321500 -18.233400
C -8.890200 -10.327300 -18.441700
C -8.825100 -11.652200 -18.796500
O -8.555500 -14.231300 -19.551900
O -8.470500 -8.036800 -18.937700
C -8.364400 -9.318700 -19.268300
C -8.215600 -11.994500 -19.986000
N -8.174500 -13.405400 -20.365100
H -8.151200 -7.507100 -19.623100
O -7.760000 -13.683200 -21.473900
C -7.712200 -9.717800 -20.459100
C -7.650300 -11.061100 -20.820700
H -7.226600 -11.328200 -21.627100
O -7.202400 -7.497900 -21.080100
C -7.106000 -8.677000 -21.322000
H -6.517300 -7.600800 -23.633800
O -6.461900 -9.146700 -22.362300
C -5.843000 -8.165700 -23.274900
H -5.404400 -8.624800 -23.981900
H -5.212400 -7.642200 -22.796400
46
Fragment
H -14.006600 -23.061800 -17.525100
H -13.814600 -22.079200 -16.339600
C -13.376100 -22.538300 -17.046600
O -12.757200 -21.557300 -17.959200
H -12.701700 -23.103200 -16.687700
C -12.113000 -22.027000 -18.999500
O -12.016600 -23.206100 -19.241400
H -11.992400 -19.375800 -18.694400
C -11.568700 -19.642900 -19.500800
C -11.506900 -20.986200 -19.862400
O -11.459000 -17.020800 -18.847600
H -11.067800 -23.196900 -20.698400
N -11.044500 -17.298600 -19.956500
C -11.003400 -18.709500 -20.335500
C -10.854600 -21.385300 -21.053200
O -10.748500 -22.667200 -21.383800
O -10.663600 -16.472700 -20.769600
C -10.393900 -19.051800 -21.525000
C -10.328900 -20.376700 -21.879800
H -10.026400 -18.382500 -22.088100
O -9.759600 -21.779900 -23.627100
N -9.658300 -20.671500 -23.152600
O -9.085300 -19.767200 -23.715800
O -10.133800 -10.936800 -16.605700
N -9.560800 -10.032500 -17.168900
O -9.459500 -8.924100 -16.694500
H -9.192600 -12.321500 -18.233400
C -8.890200 -10.327300 -18.441700
C -8.825100 -11.652200 -18.796500
O -8.555500 -14.231300 -19.551900
O -8.470500 -8.036800 -18.937700
C -8.364400 -9.318700 -19.268300
C -8.215600 -11.994500 -19.986000
N -8.174500 -13.405400 -20.365100
H -8.151200 -7.507100 -19.623100
O -7.760000 -13.683200 -21.473900
C -7.712200 -9.717800 -20.459100
C -7.650300 -11.061100 -20.820700
H -7.226600 -11.328200 -21.627100
O -7.202400 -7.497900 -21.080100
C -7.106000 -8.677000 -21.322000
H -6.517300 -7.600800 -23.633800
O -6.461900 -9.146700 -22.362300
C -5.843000 -8.165700 -23.274900
H -5.404400 -8.624800 -23.981900
H -5.212400 -7.642200 -22.796400
