23
Fragment
H -14.006600 -23.061800 -17.525100
H -13.814600 -22.079200 -16.339600
C -13.376100 -22.538300 -17.046600
O -12.757200 -21.557300 -17.959200
H -12.701700 -23.103200 -16.687700
C -12.113000 -22.027000 -18.999500
O -12.016600 -23.206100 -19.241400
H -11.992400 -19.375800 -18.694400
C -11.568700 -19.642900 -19.500800
C -11.506900 -20.986200 -19.862400
O -11.459000 -17.020800 -18.847600
H -11.067800 -23.196900 -20.698400
N -11.044500 -17.298600 -19.956500
C -11.003400 -18.709500 -20.335500
C -10.854600 -21.385300 -21.053200
O -10.748500 -22.667200 -21.383800
O -10.663600 -16.472700 -20.769600
C -10.393900 -19.051800 -21.525000
C -10.328900 -20.376700 -21.879800
H -10.026400 -18.382500 -22.088100
O -9.759600 -21.779900 -23.627100
N -9.658300 -20.671500 -23.152600
O -9.085300 -19.767200 -23.715800
16
Fragment
H -14.608800 -13.110600 -16.168900
H -14.284800 -14.538300 -16.693100
N -14.231000 -13.597300 -16.734800
H -13.609600 -11.113300 -17.146100
C -13.519500 -13.075300 -17.750900
C -13.277600 -11.687500 -17.827500
H -13.145600 -14.839200 -18.725300
C -12.998200 -13.901200 -18.764300
C -12.574500 -11.160900 -18.867800
H -12.425400 -10.224400 -18.916200
C -12.281600 -13.374700 -19.808600
C -12.075900 -11.999100 -19.857000
H -11.931300 -13.939600 -20.486000
N -11.330800 -11.448000 -20.944300
O -11.224800 -10.222900 -21.027700
O -10.796800 -12.191000 -21.768200
39
Fragment
H -14.006600 -23.061800 -17.525100
H -13.814600 -22.079200 -16.339600
C -13.376100 -22.538300 -17.046600
O -12.757200 -21.557300 -17.959200
H -12.701700 -23.103200 -16.687700
C -12.113000 -22.027000 -18.999500
O -12.016600 -23.206100 -19.241400
H -11.992400 -19.375800 -18.694400
C -11.568700 -19.642900 -19.500800
C -11.506900 -20.986200 -19.862400
O -11.459000 -17.020800 -18.847600
H -11.067800 -23.196900 -20.698400
N -11.044500 -17.298600 -19.956500
C -11.003400 -18.709500 -20.335500
C -10.854600 -21.385300 -21.053200
O -10.748500 -22.667200 -21.383800
O -10.663600 -16.472700 -20.769600
C -10.393900 -19.051800 -21.525000
C -10.328900 -20.376700 -21.879800
H -10.026400 -18.382500 -22.088100
O -9.759600 -21.779900 -23.627100
N -9.658300 -20.671500 -23.152600
O -9.085300 -19.767200 -23.715800
H -14.608800 -13.110600 -16.168900
H -14.284800 -14.538300 -16.693100
N -14.231000 -13.597300 -16.734800
H -13.609600 -11.113300 -17.146100
C -13.519500 -13.075300 -17.750900
C -13.277600 -11.687500 -17.827500
H -13.145600 -14.839200 -18.725300
C -12.998200 -13.901200 -18.764300
C -12.574500 -11.160900 -18.867800
H -12.425400 -10.224400 -18.916200
C -12.281600 -13.374700 -19.808600
C -12.075900 -11.999100 -19.857000
H -11.931300 -13.939600 -20.486000
N -11.330800 -11.448000 -20.944300
O -11.224800 -10.222900 -21.027700
O -10.796800 -12.191000 -21.768200
