24
Fragment
H -20.678200 -7.422000 -24.761400
H -20.656400 -8.994600 -24.465400
H -20.603300 -7.907000 -19.836800
N -20.345500 -8.018000 -21.850500
C -20.124200 -8.229900 -24.770400
C -19.985000 -7.888400 -20.557100
H -19.804200 -8.396000 -25.681900
C -19.168700 -7.945600 -22.521400
N -18.981000 -8.045900 -23.879300
N -18.659000 -7.729600 -20.393600
H -18.597300 -7.398100 -18.407200
C -18.121700 -7.769500 -21.668700
C -17.949000 -7.540300 -19.127800
C -17.701100 -7.992100 -24.391900
O -17.483400 -8.122300 -25.590000
H -17.412600 -8.337600 -18.930900
H -17.361000 -6.760300 -19.196000
C -16.774900 -7.682500 -22.091700
N -16.661100 -7.782800 -23.495300
O -15.774900 -7.529600 -21.393000
H -15.340200 -7.291800 -24.946800
C -15.300000 -7.679800 -24.047900
H -14.899100 -8.572100 -24.094600
H -14.754900 -7.106400 -23.470100
24
Fragment
H -21.972000 -5.156400 -26.571600
O -21.145800 -5.153100 -26.423900
O -21.028700 -5.313200 -28.653000
C -20.486300 -5.233500 -27.584100
C -18.995000 -5.230800 -27.397700
H -18.729700 -6.020800 -26.862700
H -18.729300 -4.419600 -26.896800
H -18.549000 -6.048700 -29.253400
H -18.462100 -4.440800 -29.242000
C -18.271000 -5.260700 -28.721100
H -17.252200 -5.130500 -31.018000
O -16.873000 -5.338500 -28.392800
C -16.342900 -5.237500 -30.767600
C -15.988600 -5.370300 -29.431700
H -15.580500 -5.163700 -32.646000
C -15.346500 -5.262700 -31.730900
C -14.649700 -5.543800 -29.061000
H -14.415800 -5.638800 -28.145900
C -14.007300 -5.432100 -31.379400
C -13.675600 -5.575000 -30.027400
H -13.260200 -5.324500 -33.322600
C -12.977400 -5.447400 -32.423400
H -12.768000 -5.695200 -29.775500
O -11.791600 -5.605500 -32.225300
48
Fragment
H -20.678200 -7.422000 -24.761400
H -20.656400 -8.994600 -24.465400
H -20.603300 -7.907000 -19.836800
N -20.345500 -8.018000 -21.850500
C -20.124200 -8.229900 -24.770400
C -19.985000 -7.888400 -20.557100
H -19.804200 -8.396000 -25.681900
C -19.168700 -7.945600 -22.521400
N -18.981000 -8.045900 -23.879300
N -18.659000 -7.729600 -20.393600
H -18.597300 -7.398100 -18.407200
C -18.121700 -7.769500 -21.668700
C -17.949000 -7.540300 -19.127800
C -17.701100 -7.992100 -24.391900
O -17.483400 -8.122300 -25.590000
H -17.412600 -8.337600 -18.930900
H -17.361000 -6.760300 -19.196000
C -16.774900 -7.682500 -22.091700
N -16.661100 -7.782800 -23.495300
O -15.774900 -7.529600 -21.393000
H -15.340200 -7.291800 -24.946800
C -15.300000 -7.679800 -24.047900
H -14.899100 -8.572100 -24.094600
H -14.754900 -7.106400 -23.470100
H -21.972000 -5.156400 -26.571600
O -21.145800 -5.153100 -26.423900
O -21.028700 -5.313200 -28.653000
C -20.486300 -5.233500 -27.584100
C -18.995000 -5.230800 -27.397700
H -18.729700 -6.020800 -26.862700
H -18.729300 -4.419600 -26.896800
H -18.549000 -6.048700 -29.253400
H -18.462100 -4.440800 -29.242000
C -18.271000 -5.260700 -28.721100
H -17.252200 -5.130500 -31.018000
O -16.873000 -5.338500 -28.392800
C -16.342900 -5.237500 -30.767600
C -15.988600 -5.370300 -29.431700
H -15.580500 -5.163700 -32.646000
C -15.346500 -5.262700 -31.730900
C -14.649700 -5.543800 -29.061000
H -14.415800 -5.638800 -28.145900
C -14.007300 -5.432100 -31.379400
C -13.675600 -5.575000 -30.027400
H -13.260200 -5.324500 -33.322600
C -12.977400 -5.447400 -32.423400
H -12.768000 -5.695200 -29.775500
O -11.791600 -5.605500 -32.225300
