24
Fragment
H -20.678200 -7.422000 -24.761400
H -20.656400 -8.994600 -24.465400
H -20.603300 -7.907000 -19.836800
N -20.345500 -8.018000 -21.850500
C -20.124200 -8.229900 -24.770400
C -19.985000 -7.888400 -20.557100
H -19.804200 -8.396000 -25.681900
C -19.168700 -7.945600 -22.521400
N -18.981000 -8.045900 -23.879300
N -18.659000 -7.729600 -20.393600
H -18.597300 -7.398100 -18.407200
C -18.121700 -7.769500 -21.668700
C -17.949000 -7.540300 -19.127800
C -17.701100 -7.992100 -24.391900
O -17.483400 -8.122300 -25.590000
H -17.412600 -8.337600 -18.930900
H -17.361000 -6.760300 -19.196000
C -16.774900 -7.682500 -22.091700
N -16.661100 -7.782800 -23.495300
O -15.774900 -7.529600 -21.393000
H -15.340200 -7.291800 -24.946800
C -15.300000 -7.679800 -24.047900
H -14.899100 -8.572100 -24.094600
H -14.754900 -7.106400 -23.470100
24
Fragment
O -28.738100 -8.927500 -24.697500
H -27.761800 -9.017200 -27.147300
C -27.552300 -8.769400 -24.499400
H -27.269500 -8.646500 -23.600200
C -26.854100 -8.897000 -26.895400
C -26.522500 -8.754100 -25.543400
H -26.114000 -8.960800 -28.776900
C -25.880000 -8.865800 -27.861700
C -25.183200 -8.584700 -25.191900
H -24.949300 -8.485700 -24.276800
C -24.541200 -8.692300 -27.491100
C -24.186800 -8.559500 -26.155200
O -23.656700 -8.660500 -28.530000
H -23.277500 -8.452500 -25.904700
C -22.258800 -8.582700 -28.201700
H -22.067700 -7.762800 -27.680700
H -21.980700 -9.370700 -27.669400
H -21.800400 -7.741600 -30.026000
H -21.800100 -9.342800 -30.060100
C -21.534800 -8.552800 -29.525000
C -20.043400 -8.555500 -29.338700
O -19.501100 -8.635200 -28.269800
O -19.383900 -8.475100 -30.498900
H -18.557800 -8.478400 -30.351200
48
Fragment
H -20.678200 -7.422000 -24.761400
H -20.656400 -8.994600 -24.465400
H -20.603300 -7.907000 -19.836800
N -20.345500 -8.018000 -21.850500
C -20.124200 -8.229900 -24.770400
C -19.985000 -7.888400 -20.557100
H -19.804200 -8.396000 -25.681900
C -19.168700 -7.945600 -22.521400
N -18.981000 -8.045900 -23.879300
N -18.659000 -7.729600 -20.393600
H -18.597300 -7.398100 -18.407200
C -18.121700 -7.769500 -21.668700
C -17.949000 -7.540300 -19.127800
C -17.701100 -7.992100 -24.391900
O -17.483400 -8.122300 -25.590000
H -17.412600 -8.337600 -18.930900
H -17.361000 -6.760300 -19.196000
C -16.774900 -7.682500 -22.091700
N -16.661100 -7.782800 -23.495300
O -15.774900 -7.529600 -21.393000
H -15.340200 -7.291800 -24.946800
C -15.300000 -7.679800 -24.047900
H -14.899100 -8.572100 -24.094600
H -14.754900 -7.106400 -23.470100
O -28.738100 -8.927500 -24.697500
H -27.761800 -9.017200 -27.147300
C -27.552300 -8.769400 -24.499400
H -27.269500 -8.646500 -23.600200
C -26.854100 -8.897000 -26.895400
C -26.522500 -8.754100 -25.543400
H -26.114000 -8.960800 -28.776900
C -25.880000 -8.865800 -27.861700
C -25.183200 -8.584700 -25.191900
H -24.949300 -8.485700 -24.276800
C -24.541200 -8.692300 -27.491100
C -24.186800 -8.559500 -26.155200
O -23.656700 -8.660500 -28.530000
H -23.277500 -8.452500 -25.904700
C -22.258800 -8.582700 -28.201700
H -22.067700 -7.762800 -27.680700
H -21.980700 -9.370700 -27.669400
H -21.800400 -7.741600 -30.026000
H -21.800100 -9.342800 -30.060100
C -21.534800 -8.552800 -29.525000
C -20.043400 -8.555500 -29.338700
O -19.501100 -8.635200 -28.269800
O -19.383900 -8.475100 -30.498900
H -18.557800 -8.478400 -30.351200
