24
Fragment
H -20.678200 -7.422000 -24.761400
H -20.656400 -8.994600 -24.465400
H -20.603300 -7.907000 -19.836800
N -20.345500 -8.018000 -21.850500
C -20.124200 -8.229900 -24.770400
C -19.985000 -7.888400 -20.557100
H -19.804200 -8.396000 -25.681900
C -19.168700 -7.945600 -22.521400
N -18.981000 -8.045900 -23.879300
N -18.659000 -7.729600 -20.393600
H -18.597300 -7.398100 -18.407200
C -18.121700 -7.769500 -21.668700
C -17.949000 -7.540300 -19.127800
C -17.701100 -7.992100 -24.391900
O -17.483400 -8.122300 -25.590000
H -17.412600 -8.337600 -18.930900
H -17.361000 -6.760300 -19.196000
C -16.774900 -7.682500 -22.091700
N -16.661100 -7.782800 -23.495300
O -15.774900 -7.529600 -21.393000
H -15.340200 -7.291800 -24.946800
C -15.300000 -7.679800 -24.047900
H -14.899100 -8.572100 -24.094600
H -14.754900 -7.106400 -23.470100
24
Fragment
O -32.336700 -7.682500 -16.565700
H -31.360400 -7.592800 -19.015500
C -31.150900 -7.840600 -16.367600
H -30.868200 -7.963500 -15.468400
C -30.452700 -7.713000 -18.763500
C -30.121100 -7.855900 -17.411500
H -29.712600 -7.649200 -20.645100
C -29.478600 -7.744200 -19.729900
C -28.781800 -8.025300 -17.060100
H -28.547900 -8.124300 -16.144900
C -28.139800 -7.917700 -19.359300
C -27.785400 -8.050500 -18.023400
O -27.255300 -7.949500 -20.398200
H -26.876100 -8.157500 -17.772900
C -25.857400 -8.027300 -20.069800
H -25.666300 -8.847200 -19.548900
H -25.579300 -7.239300 -19.537500
H -25.399000 -8.868400 -21.894100
H -25.398700 -7.267200 -21.928300
C -25.133400 -8.057200 -21.393200
C -23.642000 -8.054500 -21.206800
O -23.099700 -7.974800 -20.138000
O -22.982500 -8.134900 -22.367100
H -22.156400 -8.131600 -22.219400
48
Fragment
H -20.678200 -7.422000 -24.761400
H -20.656400 -8.994600 -24.465400
H -20.603300 -7.907000 -19.836800
N -20.345500 -8.018000 -21.850500
C -20.124200 -8.229900 -24.770400
C -19.985000 -7.888400 -20.557100
H -19.804200 -8.396000 -25.681900
C -19.168700 -7.945600 -22.521400
N -18.981000 -8.045900 -23.879300
N -18.659000 -7.729600 -20.393600
H -18.597300 -7.398100 -18.407200
C -18.121700 -7.769500 -21.668700
C -17.949000 -7.540300 -19.127800
C -17.701100 -7.992100 -24.391900
O -17.483400 -8.122300 -25.590000
H -17.412600 -8.337600 -18.930900
H -17.361000 -6.760300 -19.196000
C -16.774900 -7.682500 -22.091700
N -16.661100 -7.782800 -23.495300
O -15.774900 -7.529600 -21.393000
H -15.340200 -7.291800 -24.946800
C -15.300000 -7.679800 -24.047900
H -14.899100 -8.572100 -24.094600
H -14.754900 -7.106400 -23.470100
O -32.336700 -7.682500 -16.565700
H -31.360400 -7.592800 -19.015500
C -31.150900 -7.840600 -16.367600
H -30.868200 -7.963500 -15.468400
C -30.452700 -7.713000 -18.763500
C -30.121100 -7.855900 -17.411500
H -29.712600 -7.649200 -20.645100
C -29.478600 -7.744200 -19.729900
C -28.781800 -8.025300 -17.060100
H -28.547900 -8.124300 -16.144900
C -28.139800 -7.917700 -19.359300
C -27.785400 -8.050500 -18.023400
O -27.255300 -7.949500 -20.398200
H -26.876100 -8.157500 -17.772900
C -25.857400 -8.027300 -20.069800
H -25.666300 -8.847200 -19.548900
H -25.579300 -7.239300 -19.537500
H -25.399000 -8.868400 -21.894100
H -25.398700 -7.267200 -21.928300
C -25.133400 -8.057200 -21.393200
C -23.642000 -8.054500 -21.206800
O -23.099700 -7.974800 -20.138000
O -22.982500 -8.134900 -22.367100
H -22.156400 -8.131600 -22.219400
