21
Fragment
O -18.026300 -41.732100 -21.801000
H -17.565800 -41.986500 -24.350000
C -16.817200 -41.540200 -21.847900
C -16.629700 -41.826300 -24.306400
H -16.366400 -41.347800 -21.033800
H -16.302400 -42.002400 -26.297300
C -16.026100 -41.587700 -23.068200
C -15.887400 -41.833200 -25.459300
C -14.650800 -41.354100 -23.016000
C -14.505800 -41.585900 -25.388600
H -14.235000 -41.192000 -22.176800
C -13.882100 -41.355200 -24.169000
O -13.873100 -41.601400 -26.600600
H -12.945300 -41.200000 -24.125700
O -12.748800 -41.453900 -29.005100
C -12.499100 -41.230600 -26.611200
H -12.383400 -40.331600 -26.214200
C -12.042800 -41.228200 -28.052600
H -11.965900 -41.878300 -26.084100
O -10.753300 -40.941800 -28.129100
H -10.496900 -41.012600 -28.926700
24
Fragment
H -20.373700 -45.177700 -21.062000
H -19.713300 -44.129800 -20.049100
O -19.680800 -44.961500 -23.238900
C -19.591500 -44.990800 -20.502700
H -19.488700 -45.700300 -19.834300
C -18.573800 -44.954600 -22.731500
N -18.389500 -44.936200 -21.346400
H -18.350300 -44.480900 -25.234300
H -17.733200 -45.959000 -25.243700
C -17.585300 -45.030400 -24.963500
N -17.439000 -44.977300 -23.512800
C -17.172700 -44.802100 -20.662200
O -17.142000 -44.740600 -19.435900
H -16.770000 -44.686700 -25.386400
C -16.209400 -44.859600 -22.914200
C -16.071800 -44.748200 -21.561900
N -15.018600 -44.799200 -23.539200
N -14.716000 -44.582200 -21.341400
H -14.409300 -43.520100 -19.657100
H -14.250300 -45.098500 -19.450200
C -14.142700 -44.616000 -22.537900
C -14.063900 -44.347600 -20.052400
H -13.207700 -44.520400 -22.672300
H -13.096300 -44.267100 -20.185500
45
Fragment
O -18.026300 -41.732100 -21.801000
H -17.565800 -41.986500 -24.350000
C -16.817200 -41.540200 -21.847900
C -16.629700 -41.826300 -24.306400
H -16.366400 -41.347800 -21.033800
H -16.302400 -42.002400 -26.297300
C -16.026100 -41.587700 -23.068200
C -15.887400 -41.833200 -25.459300
C -14.650800 -41.354100 -23.016000
C -14.505800 -41.585900 -25.388600
H -14.235000 -41.192000 -22.176800
C -13.882100 -41.355200 -24.169000
O -13.873100 -41.601400 -26.600600
H -12.945300 -41.200000 -24.125700
O -12.748800 -41.453900 -29.005100
C -12.499100 -41.230600 -26.611200
H -12.383400 -40.331600 -26.214200
C -12.042800 -41.228200 -28.052600
H -11.965900 -41.878300 -26.084100
O -10.753300 -40.941800 -28.129100
H -10.496900 -41.012600 -28.926700
H -20.373700 -45.177700 -21.062000
H -19.713300 -44.129800 -20.049100
O -19.680800 -44.961500 -23.238900
C -19.591500 -44.990800 -20.502700
H -19.488700 -45.700300 -19.834300
C -18.573800 -44.954600 -22.731500
N -18.389500 -44.936200 -21.346400
H -18.350300 -44.480900 -25.234300
H -17.733200 -45.959000 -25.243700
C -17.585300 -45.030400 -24.963500
N -17.439000 -44.977300 -23.512800
C -17.172700 -44.802100 -20.662200
O -17.142000 -44.740600 -19.435900
H -16.770000 -44.686700 -25.386400
C -16.209400 -44.859600 -22.914200
C -16.071800 -44.748200 -21.561900
N -15.018600 -44.799200 -23.539200
N -14.716000 -44.582200 -21.341400
H -14.409300 -43.520100 -19.657100
H -14.250300 -45.098500 -19.450200
C -14.142700 -44.616000 -22.537900
C -14.063900 -44.347600 -20.052400
H -13.207700 -44.520400 -22.672300
H -13.096300 -44.267100 -20.185500
