21
Fragment
O -18.026300 -41.732100 -21.801000
H -17.565800 -41.986500 -24.350000
C -16.817200 -41.540200 -21.847900
C -16.629700 -41.826300 -24.306400
H -16.366400 -41.347800 -21.033800
H -16.302400 -42.002400 -26.297300
C -16.026100 -41.587700 -23.068200
C -15.887400 -41.833200 -25.459300
C -14.650800 -41.354100 -23.016000
C -14.505800 -41.585900 -25.388600
H -14.235000 -41.192000 -22.176800
C -13.882100 -41.355200 -24.169000
O -13.873100 -41.601400 -26.600600
H -12.945300 -41.200000 -24.125700
O -12.748800 -41.453900 -29.005100
C -12.499100 -41.230600 -26.611200
H -12.383400 -40.331600 -26.214200
C -12.042800 -41.228200 -28.052600
H -11.965900 -41.878300 -26.084100
O -10.753300 -40.941800 -28.129100
H -10.496900 -41.012600 -28.926700
21
Fragment
H -14.473700 -44.876800 -25.284400
O -14.208000 -44.966300 -26.075600
H -13.008200 -43.976700 -28.119300
C -12.935800 -44.622100 -26.153700
H -12.608700 -45.528700 -27.984400
C -12.481500 -44.628900 -27.591000
O -12.234600 -44.349100 -25.208200
H -12.059300 -44.633900 -30.077600
C -11.120200 -44.491100 -30.042800
O -11.103600 -44.275000 -27.612000
H -10.789900 -44.618100 -32.042200
C -10.476000 -44.287400 -28.816700
C -10.364400 -44.481600 -31.203800
C -9.095700 -44.076700 -28.766500
C -8.990300 -44.275500 -31.155100
H -8.677900 -44.430700 -33.210300
H -8.667000 -43.934500 -27.931100
C -8.359200 -44.075400 -29.921600
C -8.212300 -44.274200 -32.397200
H -7.420100 -43.939800 -29.884700
O -7.010800 -44.085200 -32.458300
42
Fragment
O -18.026300 -41.732100 -21.801000
H -17.565800 -41.986500 -24.350000
C -16.817200 -41.540200 -21.847900
C -16.629700 -41.826300 -24.306400
H -16.366400 -41.347800 -21.033800
H -16.302400 -42.002400 -26.297300
C -16.026100 -41.587700 -23.068200
C -15.887400 -41.833200 -25.459300
C -14.650800 -41.354100 -23.016000
C -14.505800 -41.585900 -25.388600
H -14.235000 -41.192000 -22.176800
C -13.882100 -41.355200 -24.169000
O -13.873100 -41.601400 -26.600600
H -12.945300 -41.200000 -24.125700
O -12.748800 -41.453900 -29.005100
C -12.499100 -41.230600 -26.611200
H -12.383400 -40.331600 -26.214200
C -12.042800 -41.228200 -28.052600
H -11.965900 -41.878300 -26.084100
O -10.753300 -40.941800 -28.129100
H -10.496900 -41.012600 -28.926700
H -14.473700 -44.876800 -25.284400
O -14.208000 -44.966300 -26.075600
H -13.008200 -43.976700 -28.119300
C -12.935800 -44.622100 -26.153700
H -12.608700 -45.528700 -27.984400
C -12.481500 -44.628900 -27.591000
O -12.234600 -44.349100 -25.208200
H -12.059300 -44.633900 -30.077600
C -11.120200 -44.491100 -30.042800
O -11.103600 -44.275000 -27.612000
H -10.789900 -44.618100 -32.042200
C -10.476000 -44.287400 -28.816700
C -10.364400 -44.481600 -31.203800
C -9.095700 -44.076700 -28.766500
C -8.990300 -44.275500 -31.155100
H -8.677900 -44.430700 -33.210300
H -8.667000 -43.934500 -27.931100
C -8.359200 -44.075400 -29.921600
C -8.212300 -44.274200 -32.397200
H -7.420100 -43.939800 -29.884700
O -7.010800 -44.085200 -32.458300
