21
Fragment
O -18.026300 -41.732100 -21.801000
H -17.565800 -41.986500 -24.350000
C -16.817200 -41.540200 -21.847900
C -16.629700 -41.826300 -24.306400
H -16.366400 -41.347800 -21.033800
H -16.302400 -42.002400 -26.297300
C -16.026100 -41.587700 -23.068200
C -15.887400 -41.833200 -25.459300
C -14.650800 -41.354100 -23.016000
C -14.505800 -41.585900 -25.388600
H -14.235000 -41.192000 -22.176800
C -13.882100 -41.355200 -24.169000
O -13.873100 -41.601400 -26.600600
H -12.945300 -41.200000 -24.125700
O -12.748800 -41.453900 -29.005100
C -12.499100 -41.230600 -26.611200
H -12.383400 -40.331600 -26.214200
C -12.042800 -41.228200 -28.052600
H -11.965900 -41.878300 -26.084100
O -10.753300 -40.941800 -28.129100
H -10.496900 -41.012600 -28.926700
24
Fragment
H -11.937800 -41.514100 -34.016200
H -11.788900 -41.345100 -31.509100
C -10.969900 -41.470500 -34.159600
C -10.854400 -41.257000 -31.658100
H -10.761600 -40.719600 -34.754700
H -10.662600 -42.305900 -34.568200
N -10.292600 -41.276800 -32.873400
N -9.956200 -41.097300 -30.672000
C -8.933800 -41.121800 -32.678600
C -8.769800 -41.028700 -31.325500
H -8.203700 -40.996700 -28.846800
O -7.909200 -41.090900 -34.823300
C -7.849100 -41.047100 -33.595700
N -7.528000 -40.907000 -30.747300
C -7.339500 -40.869000 -29.292200
H -6.964500 -40.001600 -29.033400
H -6.724700 -41.585300 -29.024000
N -6.620700 -40.909900 -32.938600
C -6.416900 -40.902000 -31.554100
H -5.553800 -40.051800 -34.417600
C -5.448200 -40.814300 -33.811200
H -5.362600 -41.638100 -34.334500
O -5.295500 -40.876900 -31.071500
H -4.643600 -40.687900 -33.265200
45
Fragment
O -18.026300 -41.732100 -21.801000
H -17.565800 -41.986500 -24.350000
C -16.817200 -41.540200 -21.847900
C -16.629700 -41.826300 -24.306400
H -16.366400 -41.347800 -21.033800
H -16.302400 -42.002400 -26.297300
C -16.026100 -41.587700 -23.068200
C -15.887400 -41.833200 -25.459300
C -14.650800 -41.354100 -23.016000
C -14.505800 -41.585900 -25.388600
H -14.235000 -41.192000 -22.176800
C -13.882100 -41.355200 -24.169000
O -13.873100 -41.601400 -26.600600
H -12.945300 -41.200000 -24.125700
O -12.748800 -41.453900 -29.005100
C -12.499100 -41.230600 -26.611200
H -12.383400 -40.331600 -26.214200
C -12.042800 -41.228200 -28.052600
H -11.965900 -41.878300 -26.084100
O -10.753300 -40.941800 -28.129100
H -10.496900 -41.012600 -28.926700
H -11.937800 -41.514100 -34.016200
H -11.788900 -41.345100 -31.509100
C -10.969900 -41.470500 -34.159600
C -10.854400 -41.257000 -31.658100
H -10.761600 -40.719600 -34.754700
H -10.662600 -42.305900 -34.568200
N -10.292600 -41.276800 -32.873400
N -9.956200 -41.097300 -30.672000
C -8.933800 -41.121800 -32.678600
C -8.769800 -41.028700 -31.325500
H -8.203700 -40.996700 -28.846800
O -7.909200 -41.090900 -34.823300
C -7.849100 -41.047100 -33.595700
N -7.528000 -40.907000 -30.747300
C -7.339500 -40.869000 -29.292200
H -6.964500 -40.001600 -29.033400
H -6.724700 -41.585300 -29.024000
N -6.620700 -40.909900 -32.938600
C -6.416900 -40.902000 -31.554100
H -5.553800 -40.051800 -34.417600
C -5.448200 -40.814300 -33.811200
H -5.362600 -41.638100 -34.334500
O -5.295500 -40.876900 -31.071500
H -4.643600 -40.687900 -33.265200
