24
Fragment
H -20.678200 -7.422000 -24.761400
H -20.656400 -8.994600 -24.465400
H -20.603300 -7.907000 -19.836800
N -20.345500 -8.018000 -21.850500
C -20.124200 -8.229900 -24.770400
C -19.985000 -7.888400 -20.557100
H -19.804200 -8.396000 -25.681900
C -19.168700 -7.945600 -22.521400
N -18.981000 -8.045900 -23.879300
N -18.659000 -7.729600 -20.393600
H -18.597300 -7.398100 -18.407200
C -18.121700 -7.769500 -21.668700
C -17.949000 -7.540300 -19.127800
C -17.701100 -7.992100 -24.391900
O -17.483400 -8.122300 -25.590000
H -17.412600 -8.337600 -18.930900
H -17.361000 -6.760300 -19.196000
C -16.774900 -7.682500 -22.091700
N -16.661100 -7.782800 -23.495300
O -15.774900 -7.529600 -21.393000
H -15.340200 -7.291800 -24.946800
C -15.300000 -7.679800 -24.047900
H -14.899100 -8.572100 -24.094600
H -14.754900 -7.106400 -23.470100
24
Fragment
H -29.169200 -5.156400 -10.307900
O -28.343100 -5.153100 -10.160200
O -28.225900 -5.313200 -12.389300
C -27.683500 -5.233500 -11.320500
C -26.192200 -5.230800 -11.134100
H -25.926900 -6.020800 -10.599000
H -25.926600 -4.419600 -10.633200
H -25.746300 -6.048700 -12.989800
H -25.659300 -4.440800 -12.978400
C -25.468200 -5.260700 -12.457500
H -24.449500 -5.130500 -14.754400
O -24.070300 -5.338500 -12.129100
C -23.540200 -5.237500 -14.503900
C -23.185800 -5.370300 -13.168000
H -22.777700 -5.163700 -16.382400
C -22.543700 -5.262700 -15.467200
C -21.847000 -5.543800 -12.797400
H -21.613000 -5.638800 -11.882200
C -21.204500 -5.432100 -15.115800
C -20.872800 -5.575000 -13.763800
H -20.457400 -5.324500 -17.058900
C -20.174700 -5.447400 -16.159700
H -19.965200 -5.695200 -13.511800
O -18.988800 -5.605500 -15.961600
48
Fragment
H -20.678200 -7.422000 -24.761400
H -20.656400 -8.994600 -24.465400
H -20.603300 -7.907000 -19.836800
N -20.345500 -8.018000 -21.850500
C -20.124200 -8.229900 -24.770400
C -19.985000 -7.888400 -20.557100
H -19.804200 -8.396000 -25.681900
C -19.168700 -7.945600 -22.521400
N -18.981000 -8.045900 -23.879300
N -18.659000 -7.729600 -20.393600
H -18.597300 -7.398100 -18.407200
C -18.121700 -7.769500 -21.668700
C -17.949000 -7.540300 -19.127800
C -17.701100 -7.992100 -24.391900
O -17.483400 -8.122300 -25.590000
H -17.412600 -8.337600 -18.930900
H -17.361000 -6.760300 -19.196000
C -16.774900 -7.682500 -22.091700
N -16.661100 -7.782800 -23.495300
O -15.774900 -7.529600 -21.393000
H -15.340200 -7.291800 -24.946800
C -15.300000 -7.679800 -24.047900
H -14.899100 -8.572100 -24.094600
H -14.754900 -7.106400 -23.470100
H -29.169200 -5.156400 -10.307900
O -28.343100 -5.153100 -10.160200
O -28.225900 -5.313200 -12.389300
C -27.683500 -5.233500 -11.320500
C -26.192200 -5.230800 -11.134100
H -25.926900 -6.020800 -10.599000
H -25.926600 -4.419600 -10.633200
H -25.746300 -6.048700 -12.989800
H -25.659300 -4.440800 -12.978400
C -25.468200 -5.260700 -12.457500
H -24.449500 -5.130500 -14.754400
O -24.070300 -5.338500 -12.129100
C -23.540200 -5.237500 -14.503900
C -23.185800 -5.370300 -13.168000
H -22.777700 -5.163700 -16.382400
C -22.543700 -5.262700 -15.467200
C -21.847000 -5.543800 -12.797400
H -21.613000 -5.638800 -11.882200
C -21.204500 -5.432100 -15.115800
C -20.872800 -5.575000 -13.763800
H -20.457400 -5.324500 -17.058900
C -20.174700 -5.447400 -16.159700
H -19.965200 -5.695200 -13.511800
O -18.988800 -5.605500 -15.961600
