21
Fragment
O -18.026300 -41.732100 -21.801000
H -17.565800 -41.986500 -24.350000
C -16.817200 -41.540200 -21.847900
C -16.629700 -41.826300 -24.306400
H -16.366400 -41.347800 -21.033800
H -16.302400 -42.002400 -26.297300
C -16.026100 -41.587700 -23.068200
C -15.887400 -41.833200 -25.459300
C -14.650800 -41.354100 -23.016000
C -14.505800 -41.585900 -25.388600
H -14.235000 -41.192000 -22.176800
C -13.882100 -41.355200 -24.169000
O -13.873100 -41.601400 -26.600600
H -12.945300 -41.200000 -24.125700
O -12.748800 -41.453900 -29.005100
C -12.499100 -41.230600 -26.611200
H -12.383400 -40.331600 -26.214200
C -12.042800 -41.228200 -28.052600
H -11.965900 -41.878300 -26.084100
O -10.753300 -40.941800 -28.129100
H -10.496900 -41.012600 -28.926700
24
Fragment
H -15.831900 -38.497100 -29.452000
O -15.180000 -38.308100 -31.645700
H -15.112900 -37.546900 -28.382700
C -15.027300 -38.370700 -28.906000
H -14.921700 -39.133200 -28.299600
C -14.058600 -38.283000 -31.163100
N -13.854800 -38.275100 -29.778600
H -13.750800 -37.599700 -33.693300
H -13.511000 -39.183400 -33.683800
C -13.136000 -38.316000 -33.425000
N -12.947500 -38.278000 -31.969900
C -12.626400 -38.137900 -29.121500
O -12.566300 -38.094100 -27.893900
H -12.271700 -38.188300 -33.870400
C -11.705700 -38.156300 -31.391700
C -11.541700 -38.063200 -30.038600
N -10.519300 -38.087700 -32.045200
N -10.182900 -37.908200 -29.843800
H -9.812900 -36.879100 -28.149100
H -9.713900 -38.465400 -27.962500
C -9.621100 -37.928000 -31.059100
C -9.505600 -37.714500 -28.557700
H -8.686600 -37.839900 -31.208100
H -8.537700 -37.670900 -28.701000
45
Fragment
O -18.026300 -41.732100 -21.801000
H -17.565800 -41.986500 -24.350000
C -16.817200 -41.540200 -21.847900
C -16.629700 -41.826300 -24.306400
H -16.366400 -41.347800 -21.033800
H -16.302400 -42.002400 -26.297300
C -16.026100 -41.587700 -23.068200
C -15.887400 -41.833200 -25.459300
C -14.650800 -41.354100 -23.016000
C -14.505800 -41.585900 -25.388600
H -14.235000 -41.192000 -22.176800
C -13.882100 -41.355200 -24.169000
O -13.873100 -41.601400 -26.600600
H -12.945300 -41.200000 -24.125700
O -12.748800 -41.453900 -29.005100
C -12.499100 -41.230600 -26.611200
H -12.383400 -40.331600 -26.214200
C -12.042800 -41.228200 -28.052600
H -11.965900 -41.878300 -26.084100
O -10.753300 -40.941800 -28.129100
H -10.496900 -41.012600 -28.926700
H -15.831900 -38.497100 -29.452000
O -15.180000 -38.308100 -31.645700
H -15.112900 -37.546900 -28.382700
C -15.027300 -38.370700 -28.906000
H -14.921700 -39.133200 -28.299600
C -14.058600 -38.283000 -31.163100
N -13.854800 -38.275100 -29.778600
H -13.750800 -37.599700 -33.693300
H -13.511000 -39.183400 -33.683800
C -13.136000 -38.316000 -33.425000
N -12.947500 -38.278000 -31.969900
C -12.626400 -38.137900 -29.121500
O -12.566300 -38.094100 -27.893900
H -12.271700 -38.188300 -33.870400
C -11.705700 -38.156300 -31.391700
C -11.541700 -38.063200 -30.038600
N -10.519300 -38.087700 -32.045200
N -10.182900 -37.908200 -29.843800
H -9.812900 -36.879100 -28.149100
H -9.713900 -38.465400 -27.962500
C -9.621100 -37.928000 -31.059100
C -9.505600 -37.714500 -28.557700
H -8.686600 -37.839900 -31.208100
H -8.537700 -37.670900 -28.701000
