24
Fragment
H -20.678200 -7.422000 -24.761400
H -20.656400 -8.994600 -24.465400
H -20.603300 -7.907000 -19.836800
N -20.345500 -8.018000 -21.850500
C -20.124200 -8.229900 -24.770400
C -19.985000 -7.888400 -20.557100
H -19.804200 -8.396000 -25.681900
C -19.168700 -7.945600 -22.521400
N -18.981000 -8.045900 -23.879300
N -18.659000 -7.729600 -20.393600
H -18.597300 -7.398100 -18.407200
C -18.121700 -7.769500 -21.668700
C -17.949000 -7.540300 -19.127800
C -17.701100 -7.992100 -24.391900
O -17.483400 -8.122300 -25.590000
H -17.412600 -8.337600 -18.930900
H -17.361000 -6.760300 -19.196000
C -16.774900 -7.682500 -22.091700
N -16.661100 -7.782800 -23.495300
O -15.774900 -7.529600 -21.393000
H -15.340200 -7.291800 -24.946800
C -15.300000 -7.679800 -24.047900
H -14.899100 -8.572100 -24.094600
H -14.754900 -7.106400 -23.470100
24
Fragment
H -25.570600 -11.453600 -18.439700
O -24.744400 -11.456900 -18.292100
O -24.627300 -11.296800 -20.521200
C -24.084900 -11.376500 -19.452300
C -22.593600 -11.379200 -19.265900
H -22.328300 -10.589200 -18.730800
H -22.327900 -12.190400 -18.765000
H -22.147600 -10.561300 -21.121600
H -22.060700 -12.169200 -21.110200
C -21.869600 -11.349300 -20.589300
H -20.850800 -11.479500 -22.886200
O -20.471700 -11.271500 -20.260900
C -19.941500 -11.372500 -22.635800
C -19.587200 -11.239700 -21.299900
H -19.179100 -11.446300 -24.514200
C -18.945100 -11.347300 -23.599000
C -18.248400 -11.066200 -20.929200
H -18.014400 -10.971200 -20.014000
C -17.605900 -11.177900 -23.247600
C -17.274200 -11.035000 -21.895600
H -16.858800 -11.285500 -25.190800
C -16.576100 -11.162600 -24.291600
H -16.366600 -10.914800 -21.643700
O -15.390200 -11.004500 -24.093500
48
Fragment
H -20.678200 -7.422000 -24.761400
H -20.656400 -8.994600 -24.465400
H -20.603300 -7.907000 -19.836800
N -20.345500 -8.018000 -21.850500
C -20.124200 -8.229900 -24.770400
C -19.985000 -7.888400 -20.557100
H -19.804200 -8.396000 -25.681900
C -19.168700 -7.945600 -22.521400
N -18.981000 -8.045900 -23.879300
N -18.659000 -7.729600 -20.393600
H -18.597300 -7.398100 -18.407200
C -18.121700 -7.769500 -21.668700
C -17.949000 -7.540300 -19.127800
C -17.701100 -7.992100 -24.391900
O -17.483400 -8.122300 -25.590000
H -17.412600 -8.337600 -18.930900
H -17.361000 -6.760300 -19.196000
C -16.774900 -7.682500 -22.091700
N -16.661100 -7.782800 -23.495300
O -15.774900 -7.529600 -21.393000
H -15.340200 -7.291800 -24.946800
C -15.300000 -7.679800 -24.047900
H -14.899100 -8.572100 -24.094600
H -14.754900 -7.106400 -23.470100
H -25.570600 -11.453600 -18.439700
O -24.744400 -11.456900 -18.292100
O -24.627300 -11.296800 -20.521200
C -24.084900 -11.376500 -19.452300
C -22.593600 -11.379200 -19.265900
H -22.328300 -10.589200 -18.730800
H -22.327900 -12.190400 -18.765000
H -22.147600 -10.561300 -21.121600
H -22.060700 -12.169200 -21.110200
C -21.869600 -11.349300 -20.589300
H -20.850800 -11.479500 -22.886200
O -20.471700 -11.271500 -20.260900
C -19.941500 -11.372500 -22.635800
C -19.587200 -11.239700 -21.299900
H -19.179100 -11.446300 -24.514200
C -18.945100 -11.347300 -23.599000
C -18.248400 -11.066200 -20.929200
H -18.014400 -10.971200 -20.014000
C -17.605900 -11.177900 -23.247600
C -17.274200 -11.035000 -21.895600
H -16.858800 -11.285500 -25.190800
C -16.576100 -11.162600 -24.291600
H -16.366600 -10.914800 -21.643700
O -15.390200 -11.004500 -24.093500
