24
Fragment
H -20.678200 -7.422000 -24.761400
H -20.656400 -8.994600 -24.465400
H -20.603300 -7.907000 -19.836800
N -20.345500 -8.018000 -21.850500
C -20.124200 -8.229900 -24.770400
C -19.985000 -7.888400 -20.557100
H -19.804200 -8.396000 -25.681900
C -19.168700 -7.945600 -22.521400
N -18.981000 -8.045900 -23.879300
N -18.659000 -7.729600 -20.393600
H -18.597300 -7.398100 -18.407200
C -18.121700 -7.769500 -21.668700
C -17.949000 -7.540300 -19.127800
C -17.701100 -7.992100 -24.391900
O -17.483400 -8.122300 -25.590000
H -17.412600 -8.337600 -18.930900
H -17.361000 -6.760300 -19.196000
C -16.774900 -7.682500 -22.091700
N -16.661100 -7.782800 -23.495300
O -15.774900 -7.529600 -21.393000
H -15.340200 -7.291800 -24.946800
C -15.300000 -7.679800 -24.047900
H -14.899100 -8.572100 -24.094600
H -14.754900 -7.106400 -23.470100
24
Fragment
H -24.276800 -9.188000 -16.629600
H -24.255000 -7.615400 -16.333600
H -24.201900 -8.703000 -11.704900
N -23.944200 -8.592000 -13.718700
C -23.722800 -8.380100 -16.638500
C -23.583700 -8.721600 -12.425300
H -23.402800 -8.214000 -17.550100
C -22.767300 -8.664400 -14.389600
N -22.579600 -8.564100 -15.747400
N -22.257600 -8.880400 -12.261800
H -22.195900 -9.211900 -10.275400
C -21.720300 -8.840500 -13.536900
C -21.547600 -9.069700 -10.996000
C -21.299700 -8.617900 -16.260100
O -21.082000 -8.487700 -17.458200
H -21.011200 -8.272400 -10.799100
H -20.959600 -9.849700 -11.064200
C -20.373500 -8.927500 -13.959900
N -20.259700 -8.827200 -15.363500
O -19.373500 -9.080400 -13.261200
H -18.938800 -9.318200 -16.815000
C -18.898600 -8.930200 -15.916100
H -18.497700 -8.037900 -15.962800
H -18.353500 -9.503600 -15.338200
48
Fragment
H -20.678200 -7.422000 -24.761400
H -20.656400 -8.994600 -24.465400
H -20.603300 -7.907000 -19.836800
N -20.345500 -8.018000 -21.850500
C -20.124200 -8.229900 -24.770400
C -19.985000 -7.888400 -20.557100
H -19.804200 -8.396000 -25.681900
C -19.168700 -7.945600 -22.521400
N -18.981000 -8.045900 -23.879300
N -18.659000 -7.729600 -20.393600
H -18.597300 -7.398100 -18.407200
C -18.121700 -7.769500 -21.668700
C -17.949000 -7.540300 -19.127800
C -17.701100 -7.992100 -24.391900
O -17.483400 -8.122300 -25.590000
H -17.412600 -8.337600 -18.930900
H -17.361000 -6.760300 -19.196000
C -16.774900 -7.682500 -22.091700
N -16.661100 -7.782800 -23.495300
O -15.774900 -7.529600 -21.393000
H -15.340200 -7.291800 -24.946800
C -15.300000 -7.679800 -24.047900
H -14.899100 -8.572100 -24.094600
H -14.754900 -7.106400 -23.470100
H -24.276800 -9.188000 -16.629600
H -24.255000 -7.615400 -16.333600
H -24.201900 -8.703000 -11.704900
N -23.944200 -8.592000 -13.718700
C -23.722800 -8.380100 -16.638500
C -23.583700 -8.721600 -12.425300
H -23.402800 -8.214000 -17.550100
C -22.767300 -8.664400 -14.389600
N -22.579600 -8.564100 -15.747400
N -22.257600 -8.880400 -12.261800
H -22.195900 -9.211900 -10.275400
C -21.720300 -8.840500 -13.536900
C -21.547600 -9.069700 -10.996000
C -21.299700 -8.617900 -16.260100
O -21.082000 -8.487700 -17.458200
H -21.011200 -8.272400 -10.799100
H -20.959600 -9.849700 -11.064200
C -20.373500 -8.927500 -13.959900
N -20.259700 -8.827200 -15.363500
O -19.373500 -9.080400 -13.261200
H -18.938800 -9.318200 -16.815000
C -18.898600 -8.930200 -15.916100
H -18.497700 -8.037900 -15.962800
H -18.353500 -9.503600 -15.338200
