21
Fragment
O -18.026300 -41.732100 -21.801000
H -17.565800 -41.986500 -24.350000
C -16.817200 -41.540200 -21.847900
C -16.629700 -41.826300 -24.306400
H -16.366400 -41.347800 -21.033800
H -16.302400 -42.002400 -26.297300
C -16.026100 -41.587700 -23.068200
C -15.887400 -41.833200 -25.459300
C -14.650800 -41.354100 -23.016000
C -14.505800 -41.585900 -25.388600
H -14.235000 -41.192000 -22.176800
C -13.882100 -41.355200 -24.169000
O -13.873100 -41.601400 -26.600600
H -12.945300 -41.200000 -24.125700
O -12.748800 -41.453900 -29.005100
C -12.499100 -41.230600 -26.611200
H -12.383400 -40.331600 -26.214200
C -12.042800 -41.228200 -28.052600
H -11.965900 -41.878300 -26.084100
O -10.753300 -40.941800 -28.129100
H -10.496900 -41.012600 -28.926700
24
Fragment
H -23.180800 -37.644500 -23.727500
H -23.154900 -37.401700 -26.212700
C -22.248600 -37.809000 -23.817000
C -22.193600 -37.568000 -26.307700
H -22.053100 -38.349300 -26.880600
H -21.766000 -36.784100 -26.712800
N -21.608200 -37.817200 -24.989800
N -21.435300 -38.057900 -22.777500
C -20.282700 -38.094300 -24.714000
C -20.219200 -38.226000 -23.352000
H -19.542300 -37.726400 -20.877000
H -19.387200 -39.320600 -20.897400
C -19.139600 -38.177500 -25.553000
O -19.102800 -38.059000 -26.770200
N -19.043800 -38.459600 -22.688300
C -19.012500 -38.474900 -21.222700
H -18.086200 -38.388900 -20.914600
N -17.967200 -38.410500 -24.799000
C -17.861200 -38.488100 -23.407500
H -16.874500 -38.866600 -26.433700
O -16.785300 -38.581800 -22.850100
C -16.708200 -38.472800 -25.552700
H -16.348200 -37.568000 -25.662300
H -16.061300 -39.025000 -25.064900
45
Fragment
O -18.026300 -41.732100 -21.801000
H -17.565800 -41.986500 -24.350000
C -16.817200 -41.540200 -21.847900
C -16.629700 -41.826300 -24.306400
H -16.366400 -41.347800 -21.033800
H -16.302400 -42.002400 -26.297300
C -16.026100 -41.587700 -23.068200
C -15.887400 -41.833200 -25.459300
C -14.650800 -41.354100 -23.016000
C -14.505800 -41.585900 -25.388600
H -14.235000 -41.192000 -22.176800
C -13.882100 -41.355200 -24.169000
O -13.873100 -41.601400 -26.600600
H -12.945300 -41.200000 -24.125700
O -12.748800 -41.453900 -29.005100
C -12.499100 -41.230600 -26.611200
H -12.383400 -40.331600 -26.214200
C -12.042800 -41.228200 -28.052600
H -11.965900 -41.878300 -26.084100
O -10.753300 -40.941800 -28.129100
H -10.496900 -41.012600 -28.926700
H -23.180800 -37.644500 -23.727500
H -23.154900 -37.401700 -26.212700
C -22.248600 -37.809000 -23.817000
C -22.193600 -37.568000 -26.307700
H -22.053100 -38.349300 -26.880600
H -21.766000 -36.784100 -26.712800
N -21.608200 -37.817200 -24.989800
N -21.435300 -38.057900 -22.777500
C -20.282700 -38.094300 -24.714000
C -20.219200 -38.226000 -23.352000
H -19.542300 -37.726400 -20.877000
H -19.387200 -39.320600 -20.897400
C -19.139600 -38.177500 -25.553000
O -19.102800 -38.059000 -26.770200
N -19.043800 -38.459600 -22.688300
C -19.012500 -38.474900 -21.222700
H -18.086200 -38.388900 -20.914600
N -17.967200 -38.410500 -24.799000
C -17.861200 -38.488100 -23.407500
H -16.874500 -38.866600 -26.433700
O -16.785300 -38.581800 -22.850100
C -16.708200 -38.472800 -25.552700
H -16.348200 -37.568000 -25.662300
H -16.061300 -39.025000 -25.064900
