25
Fragment
H -22.356700 -9.054100 -23.094200
H -21.866400 -9.440700 -25.305600
C -21.453800 -9.184300 -23.355400
C -21.165400 -9.406700 -24.665700
H -20.654500 -9.000100 -21.460300
C -20.434700 -9.142100 -22.374300
H -20.143900 -9.872900 -27.094300
C -19.819400 -9.589600 -25.081500
C -19.463400 -9.828600 -26.432400
C -19.126800 -9.308300 -22.752400
H -18.966700 -9.800200 -20.207800
C -18.779700 -9.529300 -24.114200
H -18.766100 -8.218700 -20.392900
C -18.339700 -9.101900 -20.526100
C -18.163200 -9.996900 -26.794300
O -18.055800 -9.299200 -21.899700
H -17.946400 -10.160400 -27.705400
C -17.432500 -9.710800 -24.523000
O -17.321600 -9.127400 -18.454000
C -17.133200 -9.931100 -25.836000
C -17.046700 -9.174000 -19.741900
H -16.735100 -9.678300 -23.879200
H -16.606300 -9.158000 -18.013900
H -16.228300 -10.041300 -26.103400
O -15.945400 -9.253900 -20.216700
25
Fragment
H -25.487100 -8.264400 -15.116400
H -24.996800 -7.877800 -17.327800
C -24.584200 -8.134200 -15.377600
C -24.295800 -7.911800 -16.687800
H -23.784900 -8.318400 -13.482500
C -23.565100 -8.176400 -14.396400
H -23.274300 -7.445600 -19.116400
C -22.949800 -7.728900 -17.103600
C -22.593800 -7.489900 -18.454600
C -22.257200 -8.010200 -14.774600
H -22.097100 -7.518300 -12.230000
C -21.910100 -7.789200 -16.136400
H -21.896500 -9.099800 -12.415100
C -21.470100 -8.216600 -12.548300
C -21.293600 -7.321600 -18.816500
O -21.186200 -8.019300 -13.921900
H -21.076800 -7.158100 -19.727500
C -20.562900 -7.607700 -16.545200
O -20.451900 -8.191100 -10.476100
C -20.263600 -7.387400 -17.858200
C -20.177100 -8.144500 -11.764100
H -19.865500 -7.640200 -15.901400
H -19.736700 -8.160500 -10.036100
H -19.358700 -7.277200 -18.125600
O -19.075800 -8.064600 -12.238900
50
Fragment
H -22.356700 -9.054100 -23.094200
H -21.866400 -9.440700 -25.305600
C -21.453800 -9.184300 -23.355400
C -21.165400 -9.406700 -24.665700
H -20.654500 -9.000100 -21.460300
C -20.434700 -9.142100 -22.374300
H -20.143900 -9.872900 -27.094300
C -19.819400 -9.589600 -25.081500
C -19.463400 -9.828600 -26.432400
C -19.126800 -9.308300 -22.752400
H -18.966700 -9.800200 -20.207800
C -18.779700 -9.529300 -24.114200
H -18.766100 -8.218700 -20.392900
C -18.339700 -9.101900 -20.526100
C -18.163200 -9.996900 -26.794300
O -18.055800 -9.299200 -21.899700
H -17.946400 -10.160400 -27.705400
C -17.432500 -9.710800 -24.523000
O -17.321600 -9.127400 -18.454000
C -17.133200 -9.931100 -25.836000
C -17.046700 -9.174000 -19.741900
H -16.735100 -9.678300 -23.879200
H -16.606300 -9.158000 -18.013900
H -16.228300 -10.041300 -26.103400
O -15.945400 -9.253900 -20.216700
H -25.487100 -8.264400 -15.116400
H -24.996800 -7.877800 -17.327800
C -24.584200 -8.134200 -15.377600
C -24.295800 -7.911800 -16.687800
H -23.784900 -8.318400 -13.482500
C -23.565100 -8.176400 -14.396400
H -23.274300 -7.445600 -19.116400
C -22.949800 -7.728900 -17.103600
C -22.593800 -7.489900 -18.454600
C -22.257200 -8.010200 -14.774600
H -22.097100 -7.518300 -12.230000
C -21.910100 -7.789200 -16.136400
H -21.896500 -9.099800 -12.415100
C -21.470100 -8.216600 -12.548300
C -21.293600 -7.321600 -18.816500
O -21.186200 -8.019300 -13.921900
H -21.076800 -7.158100 -19.727500
C -20.562900 -7.607700 -16.545200
O -20.451900 -8.191100 -10.476100
C -20.263600 -7.387400 -17.858200
C -20.177100 -8.144500 -11.764100
H -19.865500 -7.640200 -15.901400
H -19.736700 -8.160500 -10.036100
H -19.358700 -7.277200 -18.125600
O -19.075800 -8.064600 -12.238900
