25
Fragment
H -22.356700 -9.054100 -23.094200
H -21.866400 -9.440700 -25.305600
C -21.453800 -9.184300 -23.355400
C -21.165400 -9.406700 -24.665700
H -20.654500 -9.000100 -21.460300
C -20.434700 -9.142100 -22.374300
H -20.143900 -9.872900 -27.094300
C -19.819400 -9.589600 -25.081500
C -19.463400 -9.828600 -26.432400
C -19.126800 -9.308300 -22.752400
H -18.966700 -9.800200 -20.207800
C -18.779700 -9.529300 -24.114200
H -18.766100 -8.218700 -20.392900
C -18.339700 -9.101900 -20.526100
C -18.163200 -9.996900 -26.794300
O -18.055800 -9.299200 -21.899700
H -17.946400 -10.160400 -27.705400
C -17.432500 -9.710800 -24.523000
O -17.321600 -9.127400 -18.454000
C -17.133200 -9.931100 -25.836000
C -17.046700 -9.174000 -19.741900
H -16.735100 -9.678300 -23.879200
H -16.606300 -9.158000 -18.013900
H -16.228300 -10.041300 -26.103400
O -15.945400 -9.253900 -20.216700
24
Fragment
H -19.442800 -10.854500 -30.700200
H -19.413600 -12.391000 -31.013000
O -19.017300 -11.224900 -33.678500
H -19.014300 -11.872900 -29.588100
C -18.984700 -11.681700 -30.528100
H -18.289300 -10.126500 -35.731000
C -17.805700 -11.160000 -33.470900
H -17.712600 -11.489100 -36.251200
N -17.594700 -11.569000 -30.953900
C -17.492500 -10.655000 -35.829300
C -17.130600 -11.311800 -32.228300
N -16.906400 -10.912800 -34.514900
H -16.856700 -10.179800 -36.370900
H -16.555600 -11.835500 -29.233900
C -16.512700 -11.660200 -30.166700
C -15.765500 -11.272300 -32.112900
C -15.503300 -10.932800 -34.446500
N -15.368400 -11.478900 -30.833500
N -14.944800 -11.078800 -33.198100
O -14.824200 -10.826000 -35.454900
C -13.482800 -11.056800 -33.059800
H -13.230800 -11.526500 -32.262300
H -13.180200 -10.147300 -33.005800
H -13.083500 -11.482200 -33.821200
49
Fragment
H -22.356700 -9.054100 -23.094200
H -21.866400 -9.440700 -25.305600
C -21.453800 -9.184300 -23.355400
C -21.165400 -9.406700 -24.665700
H -20.654500 -9.000100 -21.460300
C -20.434700 -9.142100 -22.374300
H -20.143900 -9.872900 -27.094300
C -19.819400 -9.589600 -25.081500
C -19.463400 -9.828600 -26.432400
C -19.126800 -9.308300 -22.752400
H -18.966700 -9.800200 -20.207800
C -18.779700 -9.529300 -24.114200
H -18.766100 -8.218700 -20.392900
C -18.339700 -9.101900 -20.526100
C -18.163200 -9.996900 -26.794300
O -18.055800 -9.299200 -21.899700
H -17.946400 -10.160400 -27.705400
C -17.432500 -9.710800 -24.523000
O -17.321600 -9.127400 -18.454000
C -17.133200 -9.931100 -25.836000
C -17.046700 -9.174000 -19.741900
H -16.735100 -9.678300 -23.879200
H -16.606300 -9.158000 -18.013900
H -16.228300 -10.041300 -26.103400
O -15.945400 -9.253900 -20.216700
H -19.442800 -10.854500 -30.700200
H -19.413600 -12.391000 -31.013000
O -19.017300 -11.224900 -33.678500
H -19.014300 -11.872900 -29.588100
C -18.984700 -11.681700 -30.528100
H -18.289300 -10.126500 -35.731000
C -17.805700 -11.160000 -33.470900
H -17.712600 -11.489100 -36.251200
N -17.594700 -11.569000 -30.953900
C -17.492500 -10.655000 -35.829300
C -17.130600 -11.311800 -32.228300
N -16.906400 -10.912800 -34.514900
H -16.856700 -10.179800 -36.370900
H -16.555600 -11.835500 -29.233900
C -16.512700 -11.660200 -30.166700
C -15.765500 -11.272300 -32.112900
C -15.503300 -10.932800 -34.446500
N -15.368400 -11.478900 -30.833500
N -14.944800 -11.078800 -33.198100
O -14.824200 -10.826000 -35.454900
C -13.482800 -11.056800 -33.059800
H -13.230800 -11.526500 -32.262300
H -13.180200 -10.147300 -33.005800
H -13.083500 -11.482200 -33.821200
