24
Fragment
H -16.059200 -17.404200 -20.993200
H -15.655400 -18.932800 -20.741800
C -15.382500 -18.091800 -21.164500
H -15.291700 -18.226800 -22.131500
O -14.744900 -15.457500 -20.773400
N -14.092400 -17.658400 -20.607200
C -13.883900 -16.280500 -20.454800
O -13.407100 -19.836800 -20.712300
H -13.169700 -13.305800 -19.222000
C -13.162900 -18.682200 -20.402300
H -12.786900 -13.350800 -20.775700
C -12.590900 -16.003800 -19.938500
C -12.445000 -13.459500 -19.863500
N -11.959000 -18.314600 -19.826000
N -11.925200 -14.813400 -19.696400
H -11.726600 -12.811700 -19.705100
C -11.681900 -16.984500 -19.648600
H -11.218500 -20.183200 -19.916100
C -10.918200 -19.310800 -19.585700
H -10.738100 -19.369900 -18.624200
C -10.700000 -15.150300 -19.287500
N -10.500600 -16.471300 -19.236400
H -10.099000 -19.048000 -20.055500
H -10.034900 -14.513900 -19.055300
24
Fragment
H -8.227700 -25.224700 -20.016400
H -8.163600 -20.690600 -19.016200
N -7.762000 -23.267300 -19.835300
C -7.562600 -24.588300 -19.784200
H -7.524500 -20.368700 -20.447500
C -7.344500 -20.427800 -19.486000
H -7.044100 -19.555400 -19.155500
C -6.580800 -22.754100 -19.423000
H -6.536000 -26.926900 -19.366500
N -6.337500 -24.925200 -19.375200
N -6.303600 -21.424000 -19.245700
C -5.817600 -26.279100 -19.208200
C -5.671800 -23.734800 -19.133100
H -5.475800 -26.387800 -18.296000
C -5.099700 -21.056400 -18.669400
H -5.093000 -26.432800 -19.849700
O -4.855500 -19.901800 -18.359400
C -4.378800 -23.458100 -18.616900
N -4.170300 -22.080200 -18.464500
O -3.517700 -24.281100 -18.298300
H -2.970900 -21.511800 -16.940200
C -2.880100 -21.646800 -17.907200
H -2.607200 -20.805800 -18.329800
H -2.203400 -22.334400 -18.078500
48
Fragment
H -16.059200 -17.404200 -20.993200
H -15.655400 -18.932800 -20.741800
C -15.382500 -18.091800 -21.164500
H -15.291700 -18.226800 -22.131500
O -14.744900 -15.457500 -20.773400
N -14.092400 -17.658400 -20.607200
C -13.883900 -16.280500 -20.454800
O -13.407100 -19.836800 -20.712300
H -13.169700 -13.305800 -19.222000
C -13.162900 -18.682200 -20.402300
H -12.786900 -13.350800 -20.775700
C -12.590900 -16.003800 -19.938500
C -12.445000 -13.459500 -19.863500
N -11.959000 -18.314600 -19.826000
N -11.925200 -14.813400 -19.696400
H -11.726600 -12.811700 -19.705100
C -11.681900 -16.984500 -19.648600
H -11.218500 -20.183200 -19.916100
C -10.918200 -19.310800 -19.585700
H -10.738100 -19.369900 -18.624200
C -10.700000 -15.150300 -19.287500
N -10.500600 -16.471300 -19.236400
H -10.099000 -19.048000 -20.055500
H -10.034900 -14.513900 -19.055300
H -8.227700 -25.224700 -20.016400
H -8.163600 -20.690600 -19.016200
N -7.762000 -23.267300 -19.835300
C -7.562600 -24.588300 -19.784200
H -7.524500 -20.368700 -20.447500
C -7.344500 -20.427800 -19.486000
H -7.044100 -19.555400 -19.155500
C -6.580800 -22.754100 -19.423000
H -6.536000 -26.926900 -19.366500
N -6.337500 -24.925200 -19.375200
N -6.303600 -21.424000 -19.245700
C -5.817600 -26.279100 -19.208200
C -5.671800 -23.734800 -19.133100
H -5.475800 -26.387800 -18.296000
C -5.099700 -21.056400 -18.669400
H -5.093000 -26.432800 -19.849700
O -4.855500 -19.901800 -18.359400
C -4.378800 -23.458100 -18.616900
N -4.170300 -22.080200 -18.464500
O -3.517700 -24.281100 -18.298300
H -2.970900 -21.511800 -16.940200
C -2.880100 -21.646800 -17.907200
H -2.607200 -20.805800 -18.329800
H -2.203400 -22.334400 -18.078500
