25
Fragment
H -22.356700 -9.054100 -23.094200
H -21.866400 -9.440700 -25.305600
C -21.453800 -9.184300 -23.355400
C -21.165400 -9.406700 -24.665700
H -20.654500 -9.000100 -21.460300
C -20.434700 -9.142100 -22.374300
H -20.143900 -9.872900 -27.094300
C -19.819400 -9.589600 -25.081500
C -19.463400 -9.828600 -26.432400
C -19.126800 -9.308300 -22.752400
H -18.966700 -9.800200 -20.207800
C -18.779700 -9.529300 -24.114200
H -18.766100 -8.218700 -20.392900
C -18.339700 -9.101900 -20.526100
C -18.163200 -9.996900 -26.794300
O -18.055800 -9.299200 -21.899700
H -17.946400 -10.160400 -27.705400
C -17.432500 -9.710800 -24.523000
O -17.321600 -9.127400 -18.454000
C -17.133200 -9.931100 -25.836000
C -17.046700 -9.174000 -19.741900
H -16.735100 -9.678300 -23.879200
H -16.606300 -9.158000 -18.013900
H -16.228300 -10.041300 -26.103400
O -15.945400 -9.253900 -20.216700
24
Fragment
H -25.703600 -10.854500 -14.744600
H -25.674400 -12.391000 -15.057300
O -25.278100 -11.224900 -17.722900
H -25.275100 -11.872900 -13.632500
C -25.245500 -11.681700 -14.572400
H -24.550000 -10.126500 -19.775400
C -24.066500 -11.160000 -17.515300
H -23.973400 -11.489100 -20.295600
N -23.855500 -11.569000 -14.998300
C -23.753300 -10.655000 -19.873700
C -23.391400 -11.311800 -16.272700
N -23.167200 -10.912800 -18.559300
H -23.117500 -10.179800 -20.415200
H -22.816400 -11.835500 -13.278300
C -22.773500 -11.660200 -14.211000
C -22.026200 -11.272300 -16.157300
C -21.764000 -10.932800 -18.490800
N -21.629200 -11.478900 -14.877800
N -21.205600 -11.078800 -17.242500
O -21.085000 -10.826000 -19.499200
C -19.743600 -11.056800 -17.104100
H -19.491500 -11.526500 -16.306700
H -19.441000 -10.147300 -17.050200
H -19.344300 -11.482200 -17.865500
49
Fragment
H -22.356700 -9.054100 -23.094200
H -21.866400 -9.440700 -25.305600
C -21.453800 -9.184300 -23.355400
C -21.165400 -9.406700 -24.665700
H -20.654500 -9.000100 -21.460300
C -20.434700 -9.142100 -22.374300
H -20.143900 -9.872900 -27.094300
C -19.819400 -9.589600 -25.081500
C -19.463400 -9.828600 -26.432400
C -19.126800 -9.308300 -22.752400
H -18.966700 -9.800200 -20.207800
C -18.779700 -9.529300 -24.114200
H -18.766100 -8.218700 -20.392900
C -18.339700 -9.101900 -20.526100
C -18.163200 -9.996900 -26.794300
O -18.055800 -9.299200 -21.899700
H -17.946400 -10.160400 -27.705400
C -17.432500 -9.710800 -24.523000
O -17.321600 -9.127400 -18.454000
C -17.133200 -9.931100 -25.836000
C -17.046700 -9.174000 -19.741900
H -16.735100 -9.678300 -23.879200
H -16.606300 -9.158000 -18.013900
H -16.228300 -10.041300 -26.103400
O -15.945400 -9.253900 -20.216700
H -25.703600 -10.854500 -14.744600
H -25.674400 -12.391000 -15.057300
O -25.278100 -11.224900 -17.722900
H -25.275100 -11.872900 -13.632500
C -25.245500 -11.681700 -14.572400
H -24.550000 -10.126500 -19.775400
C -24.066500 -11.160000 -17.515300
H -23.973400 -11.489100 -20.295600
N -23.855500 -11.569000 -14.998300
C -23.753300 -10.655000 -19.873700
C -23.391400 -11.311800 -16.272700
N -23.167200 -10.912800 -18.559300
H -23.117500 -10.179800 -20.415200
H -22.816400 -11.835500 -13.278300
C -22.773500 -11.660200 -14.211000
C -22.026200 -11.272300 -16.157300
C -21.764000 -10.932800 -18.490800
N -21.629200 -11.478900 -14.877800
N -21.205600 -11.078800 -17.242500
O -21.085000 -10.826000 -19.499200
C -19.743600 -11.056800 -17.104100
H -19.491500 -11.526500 -16.306700
H -19.441000 -10.147300 -17.050200
H -19.344300 -11.482200 -17.865500
