24
Fragment
H -16.059200 -17.404200 -20.993200
H -15.655400 -18.932800 -20.741800
C -15.382500 -18.091800 -21.164500
H -15.291700 -18.226800 -22.131500
O -14.744900 -15.457500 -20.773400
N -14.092400 -17.658400 -20.607200
C -13.883900 -16.280500 -20.454800
O -13.407100 -19.836800 -20.712300
H -13.169700 -13.305800 -19.222000
C -13.162900 -18.682200 -20.402300
H -12.786900 -13.350800 -20.775700
C -12.590900 -16.003800 -19.938500
C -12.445000 -13.459500 -19.863500
N -11.959000 -18.314600 -19.826000
N -11.925200 -14.813400 -19.696400
H -11.726600 -12.811700 -19.705100
C -11.681900 -16.984500 -19.648600
H -11.218500 -20.183200 -19.916100
C -10.918200 -19.310800 -19.585700
H -10.738100 -19.369900 -18.624200
C -10.700000 -15.150300 -19.287500
N -10.500600 -16.471300 -19.236400
H -10.099000 -19.048000 -20.055500
H -10.034900 -14.513900 -19.055300
25
Fragment
H -19.555500 -17.132600 -18.708800
O -18.786900 -17.405900 -18.508200
O -18.445400 -15.249700 -18.001900
C -18.060300 -16.395700 -18.075600
H -16.766200 -17.434600 -16.842500
C -16.691600 -16.866000 -17.649500
H -16.279200 -17.402900 -18.371500
O -15.886600 -15.736600 -17.369800
C -14.599700 -15.972900 -16.953800
H -14.575500 -17.992300 -16.928500
H -14.230600 -13.952200 -16.873700
C -14.058000 -17.213300 -16.761000
C -13.839900 -14.806600 -16.733100
C -12.709500 -17.329900 -16.306700
H -12.630900 -19.381800 -16.167900
C -12.546000 -14.903800 -16.318800
C -12.121300 -18.589200 -16.047000
H -12.042000 -14.109900 -16.180900
C -11.936400 -16.156900 -16.088800
C -10.820500 -18.673000 -15.623100
C -10.593900 -16.292300 -15.653800
H -10.437100 -19.526200 -15.459400
H -10.067500 -15.513900 -15.518000
C -10.045000 -17.518900 -15.427200
H -9.143200 -17.592300 -15.139000
49
Fragment
H -16.059200 -17.404200 -20.993200
H -15.655400 -18.932800 -20.741800
C -15.382500 -18.091800 -21.164500
H -15.291700 -18.226800 -22.131500
O -14.744900 -15.457500 -20.773400
N -14.092400 -17.658400 -20.607200
C -13.883900 -16.280500 -20.454800
O -13.407100 -19.836800 -20.712300
H -13.169700 -13.305800 -19.222000
C -13.162900 -18.682200 -20.402300
H -12.786900 -13.350800 -20.775700
C -12.590900 -16.003800 -19.938500
C -12.445000 -13.459500 -19.863500
N -11.959000 -18.314600 -19.826000
N -11.925200 -14.813400 -19.696400
H -11.726600 -12.811700 -19.705100
C -11.681900 -16.984500 -19.648600
H -11.218500 -20.183200 -19.916100
C -10.918200 -19.310800 -19.585700
H -10.738100 -19.369900 -18.624200
C -10.700000 -15.150300 -19.287500
N -10.500600 -16.471300 -19.236400
H -10.099000 -19.048000 -20.055500
H -10.034900 -14.513900 -19.055300
H -19.555500 -17.132600 -18.708800
O -18.786900 -17.405900 -18.508200
O -18.445400 -15.249700 -18.001900
C -18.060300 -16.395700 -18.075600
H -16.766200 -17.434600 -16.842500
C -16.691600 -16.866000 -17.649500
H -16.279200 -17.402900 -18.371500
O -15.886600 -15.736600 -17.369800
C -14.599700 -15.972900 -16.953800
H -14.575500 -17.992300 -16.928500
H -14.230600 -13.952200 -16.873700
C -14.058000 -17.213300 -16.761000
C -13.839900 -14.806600 -16.733100
C -12.709500 -17.329900 -16.306700
H -12.630900 -19.381800 -16.167900
C -12.546000 -14.903800 -16.318800
C -12.121300 -18.589200 -16.047000
H -12.042000 -14.109900 -16.180900
C -11.936400 -16.156900 -16.088800
C -10.820500 -18.673000 -15.623100
C -10.593900 -16.292300 -15.653800
H -10.437100 -19.526200 -15.459400
H -10.067500 -15.513900 -15.518000
C -10.045000 -17.518900 -15.427200
H -9.143200 -17.592300 -15.139000
