24
Fragment
H -16.059200 -17.404200 -20.993200
H -15.655400 -18.932800 -20.741800
C -15.382500 -18.091800 -21.164500
H -15.291700 -18.226800 -22.131500
O -14.744900 -15.457500 -20.773400
N -14.092400 -17.658400 -20.607200
C -13.883900 -16.280500 -20.454800
O -13.407100 -19.836800 -20.712300
H -13.169700 -13.305800 -19.222000
C -13.162900 -18.682200 -20.402300
H -12.786900 -13.350800 -20.775700
C -12.590900 -16.003800 -19.938500
C -12.445000 -13.459500 -19.863500
N -11.959000 -18.314600 -19.826000
N -11.925200 -14.813400 -19.696400
H -11.726600 -12.811700 -19.705100
C -11.681900 -16.984500 -19.648600
H -11.218500 -20.183200 -19.916100
C -10.918200 -19.310800 -19.585700
H -10.738100 -19.369900 -18.624200
C -10.700000 -15.150300 -19.287500
N -10.500600 -16.471300 -19.236400
H -10.099000 -19.048000 -20.055500
H -10.034900 -14.513900 -19.055300
25
Fragment
H -27.921000 -15.982900 -25.220800
O -27.152500 -15.709600 -25.020200
O -26.811000 -17.865800 -24.513800
C -26.425800 -16.719800 -24.587500
H -25.131800 -15.680900 -23.354400
C -25.057100 -16.249500 -24.161400
H -24.644800 -15.712600 -24.883400
O -24.252200 -17.378900 -23.881800
C -22.965300 -17.142600 -23.465800
H -22.941100 -15.123200 -23.440400
H -22.596200 -19.163300 -23.385700
C -22.423600 -15.902200 -23.272900
C -22.205500 -18.308900 -23.245000
C -21.075100 -15.785600 -22.818600
H -20.996500 -13.733700 -22.679800
C -20.911600 -18.211700 -22.830700
C -20.486900 -14.526300 -22.558900
H -20.407600 -19.005600 -22.692800
C -20.301900 -16.958600 -22.600700
C -19.186000 -14.442500 -22.135000
C -18.959400 -16.823200 -22.165700
H -18.802700 -13.589300 -21.971300
H -18.433100 -17.601600 -22.029900
C -18.410500 -15.596600 -21.939100
H -17.508700 -15.523200 -21.650900
49
Fragment
H -16.059200 -17.404200 -20.993200
H -15.655400 -18.932800 -20.741800
C -15.382500 -18.091800 -21.164500
H -15.291700 -18.226800 -22.131500
O -14.744900 -15.457500 -20.773400
N -14.092400 -17.658400 -20.607200
C -13.883900 -16.280500 -20.454800
O -13.407100 -19.836800 -20.712300
H -13.169700 -13.305800 -19.222000
C -13.162900 -18.682200 -20.402300
H -12.786900 -13.350800 -20.775700
C -12.590900 -16.003800 -19.938500
C -12.445000 -13.459500 -19.863500
N -11.959000 -18.314600 -19.826000
N -11.925200 -14.813400 -19.696400
H -11.726600 -12.811700 -19.705100
C -11.681900 -16.984500 -19.648600
H -11.218500 -20.183200 -19.916100
C -10.918200 -19.310800 -19.585700
H -10.738100 -19.369900 -18.624200
C -10.700000 -15.150300 -19.287500
N -10.500600 -16.471300 -19.236400
H -10.099000 -19.048000 -20.055500
H -10.034900 -14.513900 -19.055300
H -27.921000 -15.982900 -25.220800
O -27.152500 -15.709600 -25.020200
O -26.811000 -17.865800 -24.513800
C -26.425800 -16.719800 -24.587500
H -25.131800 -15.680900 -23.354400
C -25.057100 -16.249500 -24.161400
H -24.644800 -15.712600 -24.883400
O -24.252200 -17.378900 -23.881800
C -22.965300 -17.142600 -23.465800
H -22.941100 -15.123200 -23.440400
H -22.596200 -19.163300 -23.385700
C -22.423600 -15.902200 -23.272900
C -22.205500 -18.308900 -23.245000
C -21.075100 -15.785600 -22.818600
H -20.996500 -13.733700 -22.679800
C -20.911600 -18.211700 -22.830700
C -20.486900 -14.526300 -22.558900
H -20.407600 -19.005600 -22.692800
C -20.301900 -16.958600 -22.600700
C -19.186000 -14.442500 -22.135000
C -18.959400 -16.823200 -22.165700
H -18.802700 -13.589300 -21.971300
H -18.433100 -17.601600 -22.029900
C -18.410500 -15.596600 -21.939100
H -17.508700 -15.523200 -21.650900
