25
Fragment
H -22.356700 -9.054100 -23.094200
H -21.866400 -9.440700 -25.305600
C -21.453800 -9.184300 -23.355400
C -21.165400 -9.406700 -24.665700
H -20.654500 -9.000100 -21.460300
C -20.434700 -9.142100 -22.374300
H -20.143900 -9.872900 -27.094300
C -19.819400 -9.589600 -25.081500
C -19.463400 -9.828600 -26.432400
C -19.126800 -9.308300 -22.752400
H -18.966700 -9.800200 -20.207800
C -18.779700 -9.529300 -24.114200
H -18.766100 -8.218700 -20.392900
C -18.339700 -9.101900 -20.526100
C -18.163200 -9.996900 -26.794300
O -18.055800 -9.299200 -21.899700
H -17.946400 -10.160400 -27.705400
C -17.432500 -9.710800 -24.523000
O -17.321600 -9.127400 -18.454000
C -17.133200 -9.931100 -25.836000
C -17.046700 -9.174000 -19.741900
H -16.735100 -9.678300 -23.879200
H -16.606300 -9.158000 -18.013900
H -16.228300 -10.041300 -26.103400
O -15.945400 -9.253900 -20.216700
25
Fragment
O -17.632600 -5.790200 -19.672300
H -17.349700 -6.577600 -13.785700
H -16.971800 -5.694300 -21.875200
H -16.842900 -6.214600 -16.009900
C -16.531300 -5.710300 -20.147200
C -16.444800 -6.467400 -14.053100
O -16.256500 -5.663700 -21.435100
C -16.145500 -6.247100 -15.366100
H -15.631700 -6.696700 -12.183700
O -15.522200 -5.835500 -17.989300
C -15.414800 -6.533200 -13.094800
C -15.238400 -5.638200 -19.363000
H -14.812000 -4.755000 -19.496200
C -14.798400 -6.065600 -15.774900
H -14.611300 -6.336500 -19.681300
C -14.451300 -5.844600 -17.136700
C -14.114600 -6.364900 -13.456700
C -13.758600 -6.125900 -14.807600
H -13.434200 -6.409200 -12.794800
C -13.143300 -5.678400 -17.514800
H -12.923600 -5.536400 -18.428800
C -12.412600 -5.943000 -15.223400
C -12.124300 -5.720600 -16.533700
H -11.711600 -5.977000 -14.583400
H -11.221300 -5.590400 -16.794900
50
Fragment
H -22.356700 -9.054100 -23.094200
H -21.866400 -9.440700 -25.305600
C -21.453800 -9.184300 -23.355400
C -21.165400 -9.406700 -24.665700
H -20.654500 -9.000100 -21.460300
C -20.434700 -9.142100 -22.374300
H -20.143900 -9.872900 -27.094300
C -19.819400 -9.589600 -25.081500
C -19.463400 -9.828600 -26.432400
C -19.126800 -9.308300 -22.752400
H -18.966700 -9.800200 -20.207800
C -18.779700 -9.529300 -24.114200
H -18.766100 -8.218700 -20.392900
C -18.339700 -9.101900 -20.526100
C -18.163200 -9.996900 -26.794300
O -18.055800 -9.299200 -21.899700
H -17.946400 -10.160400 -27.705400
C -17.432500 -9.710800 -24.523000
O -17.321600 -9.127400 -18.454000
C -17.133200 -9.931100 -25.836000
C -17.046700 -9.174000 -19.741900
H -16.735100 -9.678300 -23.879200
H -16.606300 -9.158000 -18.013900
H -16.228300 -10.041300 -26.103400
O -15.945400 -9.253900 -20.216700
O -17.632600 -5.790200 -19.672300
H -17.349700 -6.577600 -13.785700
H -16.971800 -5.694300 -21.875200
H -16.842900 -6.214600 -16.009900
C -16.531300 -5.710300 -20.147200
C -16.444800 -6.467400 -14.053100
O -16.256500 -5.663700 -21.435100
C -16.145500 -6.247100 -15.366100
H -15.631700 -6.696700 -12.183700
O -15.522200 -5.835500 -17.989300
C -15.414800 -6.533200 -13.094800
C -15.238400 -5.638200 -19.363000
H -14.812000 -4.755000 -19.496200
C -14.798400 -6.065600 -15.774900
H -14.611300 -6.336500 -19.681300
C -14.451300 -5.844600 -17.136700
C -14.114600 -6.364900 -13.456700
C -13.758600 -6.125900 -14.807600
H -13.434200 -6.409200 -12.794800
C -13.143300 -5.678400 -17.514800
H -12.923600 -5.536400 -18.428800
C -12.412600 -5.943000 -15.223400
C -12.124300 -5.720600 -16.533700
H -11.711600 -5.977000 -14.583400
H -11.221300 -5.590400 -16.794900
