24
Fragment
H -16.059200 -17.404200 -20.993200
H -15.655400 -18.932800 -20.741800
C -15.382500 -18.091800 -21.164500
H -15.291700 -18.226800 -22.131500
O -14.744900 -15.457500 -20.773400
N -14.092400 -17.658400 -20.607200
C -13.883900 -16.280500 -20.454800
O -13.407100 -19.836800 -20.712300
H -13.169700 -13.305800 -19.222000
C -13.162900 -18.682200 -20.402300
H -12.786900 -13.350800 -20.775700
C -12.590900 -16.003800 -19.938500
C -12.445000 -13.459500 -19.863500
N -11.959000 -18.314600 -19.826000
N -11.925200 -14.813400 -19.696400
H -11.726600 -12.811700 -19.705100
C -11.681900 -16.984500 -19.648600
H -11.218500 -20.183200 -19.916100
C -10.918200 -19.310800 -19.585700
H -10.738100 -19.369900 -18.624200
C -10.700000 -15.150300 -19.287500
N -10.500600 -16.471300 -19.236400
H -10.099000 -19.048000 -20.055500
H -10.034900 -14.513900 -19.055300
24
Fragment
H -18.871300 -25.224700 -20.016400
H -18.807200 -20.690600 -19.016200
N -18.405600 -23.267300 -19.835300
C -18.206200 -24.588300 -19.784200
H -18.168100 -20.368700 -20.447500
C -17.988100 -20.427800 -19.486000
H -17.687700 -19.555400 -19.155500
C -17.224400 -22.754100 -19.423000
H -17.179600 -26.926900 -19.366500
N -16.981100 -24.925200 -19.375200
N -16.947200 -21.424000 -19.245700
C -16.461200 -26.279100 -19.208200
C -16.315400 -23.734800 -19.133100
H -16.119400 -26.387800 -18.296000
C -15.743300 -21.056400 -18.669400
H -15.736600 -26.432800 -19.849700
O -15.499100 -19.901800 -18.359400
C -15.022400 -23.458100 -18.616900
N -14.813900 -22.080200 -18.464500
O -14.161300 -24.281100 -18.298300
H -13.614500 -21.511800 -16.940200
C -13.523700 -21.646800 -17.907200
H -13.250800 -20.805800 -18.329800
H -12.847000 -22.334400 -18.078500
48
Fragment
H -16.059200 -17.404200 -20.993200
H -15.655400 -18.932800 -20.741800
C -15.382500 -18.091800 -21.164500
H -15.291700 -18.226800 -22.131500
O -14.744900 -15.457500 -20.773400
N -14.092400 -17.658400 -20.607200
C -13.883900 -16.280500 -20.454800
O -13.407100 -19.836800 -20.712300
H -13.169700 -13.305800 -19.222000
C -13.162900 -18.682200 -20.402300
H -12.786900 -13.350800 -20.775700
C -12.590900 -16.003800 -19.938500
C -12.445000 -13.459500 -19.863500
N -11.959000 -18.314600 -19.826000
N -11.925200 -14.813400 -19.696400
H -11.726600 -12.811700 -19.705100
C -11.681900 -16.984500 -19.648600
H -11.218500 -20.183200 -19.916100
C -10.918200 -19.310800 -19.585700
H -10.738100 -19.369900 -18.624200
C -10.700000 -15.150300 -19.287500
N -10.500600 -16.471300 -19.236400
H -10.099000 -19.048000 -20.055500
H -10.034900 -14.513900 -19.055300
H -18.871300 -25.224700 -20.016400
H -18.807200 -20.690600 -19.016200
N -18.405600 -23.267300 -19.835300
C -18.206200 -24.588300 -19.784200
H -18.168100 -20.368700 -20.447500
C -17.988100 -20.427800 -19.486000
H -17.687700 -19.555400 -19.155500
C -17.224400 -22.754100 -19.423000
H -17.179600 -26.926900 -19.366500
N -16.981100 -24.925200 -19.375200
N -16.947200 -21.424000 -19.245700
C -16.461200 -26.279100 -19.208200
C -16.315400 -23.734800 -19.133100
H -16.119400 -26.387800 -18.296000
C -15.743300 -21.056400 -18.669400
H -15.736600 -26.432800 -19.849700
O -15.499100 -19.901800 -18.359400
C -15.022400 -23.458100 -18.616900
N -14.813900 -22.080200 -18.464500
O -14.161300 -24.281100 -18.298300
H -13.614500 -21.511800 -16.940200
C -13.523700 -21.646800 -17.907200
H -13.250800 -20.805800 -18.329800
H -12.847000 -22.334400 -18.078500
