24
Fragment
H -16.059200 -17.404200 -20.993200
H -15.655400 -18.932800 -20.741800
C -15.382500 -18.091800 -21.164500
H -15.291700 -18.226800 -22.131500
O -14.744900 -15.457500 -20.773400
N -14.092400 -17.658400 -20.607200
C -13.883900 -16.280500 -20.454800
O -13.407100 -19.836800 -20.712300
H -13.169700 -13.305800 -19.222000
C -13.162900 -18.682200 -20.402300
H -12.786900 -13.350800 -20.775700
C -12.590900 -16.003800 -19.938500
C -12.445000 -13.459500 -19.863500
N -11.959000 -18.314600 -19.826000
N -11.925200 -14.813400 -19.696400
H -11.726600 -12.811700 -19.705100
C -11.681900 -16.984500 -19.648600
H -11.218500 -20.183200 -19.916100
C -10.918200 -19.310800 -19.585700
H -10.738100 -19.369900 -18.624200
C -10.700000 -15.150300 -19.287500
N -10.500600 -16.471300 -19.236400
H -10.099000 -19.048000 -20.055500
H -10.034900 -14.513900 -19.055300
25
Fragment
H -19.763100 -8.900100 -23.932700
C -18.861300 -8.973500 -23.644500
H -18.838800 -10.978500 -23.553700
H -18.469100 -6.966200 -23.612300
C -18.312400 -10.200100 -23.417900
C -18.085800 -7.819400 -23.448600
C -16.969900 -10.335500 -22.982900
H -16.864200 -12.382500 -22.890800
C -16.784900 -7.903200 -23.024700
C -16.360200 -11.588600 -22.752900
H -16.275400 -7.110600 -22.903800
C -16.196700 -9.162500 -22.765000
C -15.066300 -11.685800 -22.338600
C -14.848200 -9.279100 -22.310700
H -14.675600 -12.540200 -22.197900
H -14.330800 -8.500100 -22.143200
C -14.306500 -10.519500 -22.117800
O -13.019600 -10.755800 -21.701800
H -12.627000 -9.089500 -20.700200
C -12.214700 -9.626400 -21.422200
H -12.140000 -9.057800 -22.229200
C -10.846000 -10.096700 -20.996100
O -10.460900 -11.242700 -21.069800
O -10.119300 -9.086500 -20.563400
H -9.350800 -9.359800 -20.362800
49
Fragment
H -16.059200 -17.404200 -20.993200
H -15.655400 -18.932800 -20.741800
C -15.382500 -18.091800 -21.164500
H -15.291700 -18.226800 -22.131500
O -14.744900 -15.457500 -20.773400
N -14.092400 -17.658400 -20.607200
C -13.883900 -16.280500 -20.454800
O -13.407100 -19.836800 -20.712300
H -13.169700 -13.305800 -19.222000
C -13.162900 -18.682200 -20.402300
H -12.786900 -13.350800 -20.775700
C -12.590900 -16.003800 -19.938500
C -12.445000 -13.459500 -19.863500
N -11.959000 -18.314600 -19.826000
N -11.925200 -14.813400 -19.696400
H -11.726600 -12.811700 -19.705100
C -11.681900 -16.984500 -19.648600
H -11.218500 -20.183200 -19.916100
C -10.918200 -19.310800 -19.585700
H -10.738100 -19.369900 -18.624200
C -10.700000 -15.150300 -19.287500
N -10.500600 -16.471300 -19.236400
H -10.099000 -19.048000 -20.055500
H -10.034900 -14.513900 -19.055300
H -19.763100 -8.900100 -23.932700
C -18.861300 -8.973500 -23.644500
H -18.838800 -10.978500 -23.553700
H -18.469100 -6.966200 -23.612300
C -18.312400 -10.200100 -23.417900
C -18.085800 -7.819400 -23.448600
C -16.969900 -10.335500 -22.982900
H -16.864200 -12.382500 -22.890800
C -16.784900 -7.903200 -23.024700
C -16.360200 -11.588600 -22.752900
H -16.275400 -7.110600 -22.903800
C -16.196700 -9.162500 -22.765000
C -15.066300 -11.685800 -22.338600
C -14.848200 -9.279100 -22.310700
H -14.675600 -12.540200 -22.197900
H -14.330800 -8.500100 -22.143200
C -14.306500 -10.519500 -22.117800
O -13.019600 -10.755800 -21.701800
H -12.627000 -9.089500 -20.700200
C -12.214700 -9.626400 -21.422200
H -12.140000 -9.057800 -22.229200
C -10.846000 -10.096700 -20.996100
O -10.460900 -11.242700 -21.069800
O -10.119300 -9.086500 -20.563400
H -9.350800 -9.359800 -20.362800
