18
Fragment
H -13.806100 -17.084800 -16.864800
O -13.549100 -19.477600 -16.129900
H -13.357100 -20.301600 -16.076100
C -13.217900 -17.552600 -17.433000
C -12.950800 -18.893600 -17.200600
H -12.859700 -15.971900 -18.674900
C -12.640700 -16.912400 -18.507400
C -12.084000 -19.580200 -18.031500
H -11.886900 -20.521600 -17.827700
C -11.779000 -17.592500 -19.359900
C -11.497800 -18.934500 -19.097800
H -11.460200 -14.877900 -20.171200
C -11.169100 -16.924200 -20.505200
N -11.137800 -15.602400 -20.710700
H -10.852700 -19.407700 -19.641400
N -10.572500 -17.499500 -21.538400
N -10.514900 -15.348900 -21.874700
N -10.183000 -16.491100 -22.364000
18
Fragment
N -8.572000 -11.536100 -19.398400
N -8.240100 -10.393900 -19.887600
N -8.182500 -12.544500 -20.223900
H -7.902300 -14.452700 -22.120900
N -7.617200 -10.647400 -21.051700
C -7.585900 -11.969200 -21.257100
H -7.294800 -9.922900 -21.591100
C -7.257200 -13.979500 -22.664500
C -6.976000 -12.637500 -22.402400
H -6.868100 -15.566600 -23.934600
C -6.671000 -14.625200 -23.730800
C -6.114300 -11.957400 -23.254900
H -5.895300 -11.016900 -23.087400
C -5.804200 -13.938600 -24.561700
C -5.537100 -12.597600 -24.329300
H -5.397900 -15.346600 -25.686200
O -5.205900 -14.522600 -25.632400
H -4.948900 -12.129800 -24.897500
36
Fragment
H -13.806100 -17.084800 -16.864800
O -13.549100 -19.477600 -16.129900
H -13.357100 -20.301600 -16.076100
C -13.217900 -17.552600 -17.433000
C -12.950800 -18.893600 -17.200600
H -12.859700 -15.971900 -18.674900
C -12.640700 -16.912400 -18.507400
C -12.084000 -19.580200 -18.031500
H -11.886900 -20.521600 -17.827700
C -11.779000 -17.592500 -19.359900
C -11.497800 -18.934500 -19.097800
H -11.460200 -14.877900 -20.171200
C -11.169100 -16.924200 -20.505200
N -11.137800 -15.602400 -20.710700
H -10.852700 -19.407700 -19.641400
N -10.572500 -17.499500 -21.538400
N -10.514900 -15.348900 -21.874700
N -10.183000 -16.491100 -22.364000
N -8.572000 -11.536100 -19.398400
N -8.240100 -10.393900 -19.887600
N -8.182500 -12.544500 -20.223900
H -7.902300 -14.452700 -22.120900
N -7.617200 -10.647400 -21.051700
C -7.585900 -11.969200 -21.257100
H -7.294800 -9.922900 -21.591100
C -7.257200 -13.979500 -22.664500
C -6.976000 -12.637500 -22.402400
H -6.868100 -15.566600 -23.934600
C -6.671000 -14.625200 -23.730800
C -6.114300 -11.957400 -23.254900
H -5.895300 -11.016900 -23.087400
C -5.804200 -13.938600 -24.561700
C -5.537100 -12.597600 -24.329300
H -5.397900 -15.346600 -25.686200
O -5.205900 -14.522600 -25.632400
H -4.948900 -12.129800 -24.897500
