18
Fragment
H -13.806100 -17.084800 -16.864800
O -13.549100 -19.477600 -16.129900
H -13.357100 -20.301600 -16.076100
C -13.217900 -17.552600 -17.433000
C -12.950800 -18.893600 -17.200600
H -12.859700 -15.971900 -18.674900
C -12.640700 -16.912400 -18.507400
C -12.084000 -19.580200 -18.031500
H -11.886900 -20.521600 -17.827700
C -11.779000 -17.592500 -19.359900
C -11.497800 -18.934500 -19.097800
H -11.460200 -14.877900 -20.171200
C -11.169100 -16.924200 -20.505200
N -11.137800 -15.602400 -20.710700
H -10.852700 -19.407700 -19.641400
N -10.572500 -17.499500 -21.538400
N -10.514900 -15.348900 -21.874700
N -10.183000 -16.491100 -22.364000
18
Fragment
H -16.431100 -22.555200 -10.898800
O -16.174100 -20.162400 -10.163900
H -15.982100 -19.338400 -10.110100
C -15.842900 -22.087400 -11.467000
C -15.575800 -20.746400 -11.234500
H -15.484700 -23.668100 -12.708900
C -15.265700 -22.727600 -12.541300
C -14.709000 -20.059800 -12.065500
H -14.511900 -19.118400 -11.861700
C -14.404000 -22.047500 -13.393900
C -14.122800 -20.705500 -13.131700
H -14.085200 -24.762100 -14.205200
C -13.794100 -22.715800 -14.539100
N -13.762800 -24.037600 -14.744600
H -13.477700 -20.232300 -13.675400
N -13.197500 -22.140500 -15.572300
N -13.139900 -24.291100 -15.908700
N -12.808000 -23.148900 -16.397900
36
Fragment
H -13.806100 -17.084800 -16.864800
O -13.549100 -19.477600 -16.129900
H -13.357100 -20.301600 -16.076100
C -13.217900 -17.552600 -17.433000
C -12.950800 -18.893600 -17.200600
H -12.859700 -15.971900 -18.674900
C -12.640700 -16.912400 -18.507400
C -12.084000 -19.580200 -18.031500
H -11.886900 -20.521600 -17.827700
C -11.779000 -17.592500 -19.359900
C -11.497800 -18.934500 -19.097800
H -11.460200 -14.877900 -20.171200
C -11.169100 -16.924200 -20.505200
N -11.137800 -15.602400 -20.710700
H -10.852700 -19.407700 -19.641400
N -10.572500 -17.499500 -21.538400
N -10.514900 -15.348900 -21.874700
N -10.183000 -16.491100 -22.364000
H -16.431100 -22.555200 -10.898800
O -16.174100 -20.162400 -10.163900
H -15.982100 -19.338400 -10.110100
C -15.842900 -22.087400 -11.467000
C -15.575800 -20.746400 -11.234500
H -15.484700 -23.668100 -12.708900
C -15.265700 -22.727600 -12.541300
C -14.709000 -20.059800 -12.065500
H -14.511900 -19.118400 -11.861700
C -14.404000 -22.047500 -13.393900
C -14.122800 -20.705500 -13.131700
H -14.085200 -24.762100 -14.205200
C -13.794100 -22.715800 -14.539100
N -13.762800 -24.037600 -14.744600
H -13.477700 -20.232300 -13.675400
N -13.197500 -22.140500 -15.572300
N -13.139900 -24.291100 -15.908700
N -12.808000 -23.148900 -16.397900
