36
Fragment
H -24.144800 -13.023900 -29.063000
H -23.616400 -7.968200 -20.938900
H -23.477800 -12.116700 -28.035300
N -23.417800 -12.733300 -28.659900
H -23.239800 -8.743900 -22.194500
N -23.030600 -8.166000 -21.565600
H -22.991700 -14.437500 -30.348000
N -22.230800 -14.189000 -29.983000
C -22.222100 -13.230100 -28.997500
N -22.019800 -11.439500 -26.767100
H -21.953800 -8.794100 -26.701700
C -21.797400 -7.577800 -21.559300
C -21.738600 -9.154400 -25.849200
C -21.710800 -10.529800 -25.693100
N -21.695600 -6.620400 -20.538000
H -21.491800 -11.941600 -24.249700
H -21.475400 -14.553200 -30.248900
C -21.470300 -11.005400 -24.412200
C -21.460200 -8.273800 -24.787800
H -21.442600 -7.337600 -24.946100
H -21.229200 -4.756100 -19.033500
C -21.214800 -8.752500 -23.519600
C -21.196800 -10.122900 -23.348700
N -21.055300 -12.887600 -28.476300
C -21.007900 -11.946300 -27.427600
H -20.994400 -10.479200 -22.489900
N -20.878100 -7.819600 -22.451900
C -20.501800 -6.208800 -20.128600
N -20.477000 -5.139500 -19.282500
H -19.707500 -4.831900 -18.984900
N -19.692700 -11.601100 -27.138500
H -19.520000 -11.026800 -26.494900
N -19.316100 -6.789600 -20.388200
H -19.281300 -7.520500 -20.875600
H -19.032800 -11.958200 -27.598500
H -18.575200 -6.438200 -20.067400
36
Fragment
H -19.908900 -12.019800 -30.246700
H -19.402200 -14.020000 -29.489200
N -19.254100 -12.043900 -30.833400
H -19.147400 -7.236800 -38.712600
H -19.133500 -11.369200 -31.384100
H -19.060300 -8.001200 -37.395900
N -18.702500 -14.080100 -30.021000
N -18.664600 -7.589100 -38.064800
H -18.469300 -11.701500 -35.718300
C -18.448500 -13.109700 -30.890300
H -18.174500 -14.781800 -29.974500
N -18.005500 -11.580300 -33.182000
C -17.979300 -10.915200 -35.507300
H -17.927300 -10.193200 -37.404300
C -17.659100 -10.020000 -36.509600
C -17.593200 -10.676600 -34.196900
N -17.368000 -13.260100 -31.666900
C -17.294400 -7.496800 -38.102800
C -17.103700 -12.331600 -32.639600
C -16.940300 -8.859200 -36.210000
C -16.896700 -9.510000 -33.901500
N -16.894100 -6.723000 -39.147300
H -16.645000 -9.330000 -33.004700
C -16.565700 -8.612700 -34.886900
N -16.469200 -7.972700 -37.212300
H -16.082300 -7.824300 -34.667500
H -15.961500 -5.495700 -41.012700
N -15.775900 -12.308700 -32.962500
C -15.644800 -6.785100 -39.605200
H -15.482500 -11.752800 -33.578700
N -15.351600 -6.027100 -40.668700
H -15.215100 -12.848900 -32.553100
H -14.813800 -8.097600 -38.480500
N -14.670000 -7.553100 -39.155800
H -14.545700 -6.060700 -41.021100
H -13.875100 -7.518400 -39.533500
72
Fragment
H -24.144800 -13.023900 -29.063000
H -23.616400 -7.968200 -20.938900
H -23.477800 -12.116700 -28.035300
N -23.417800 -12.733300 -28.659900
H -23.239800 -8.743900 -22.194500
N -23.030600 -8.166000 -21.565600
H -22.991700 -14.437500 -30.348000
N -22.230800 -14.189000 -29.983000
C -22.222100 -13.230100 -28.997500
N -22.019800 -11.439500 -26.767100
H -21.953800 -8.794100 -26.701700
C -21.797400 -7.577800 -21.559300
C -21.738600 -9.154400 -25.849200
C -21.710800 -10.529800 -25.693100
N -21.695600 -6.620400 -20.538000
H -21.491800 -11.941600 -24.249700
H -21.475400 -14.553200 -30.248900
C -21.470300 -11.005400 -24.412200
C -21.460200 -8.273800 -24.787800
H -21.442600 -7.337600 -24.946100
H -21.229200 -4.756100 -19.033500
C -21.214800 -8.752500 -23.519600
C -21.196800 -10.122900 -23.348700
N -21.055300 -12.887600 -28.476300
C -21.007900 -11.946300 -27.427600
H -20.994400 -10.479200 -22.489900
N -20.878100 -7.819600 -22.451900
C -20.501800 -6.208800 -20.128600
N -20.477000 -5.139500 -19.282500
H -19.707500 -4.831900 -18.984900
N -19.692700 -11.601100 -27.138500
H -19.520000 -11.026800 -26.494900
N -19.316100 -6.789600 -20.388200
H -19.281300 -7.520500 -20.875600
H -19.032800 -11.958200 -27.598500
H -18.575200 -6.438200 -20.067400
H -19.908900 -12.019800 -30.246700
H -19.402200 -14.020000 -29.489200
N -19.254100 -12.043900 -30.833400
H -19.147400 -7.236800 -38.712600
H -19.133500 -11.369200 -31.384100
H -19.060300 -8.001200 -37.395900
N -18.702500 -14.080100 -30.021000
N -18.664600 -7.589100 -38.064800
H -18.469300 -11.701500 -35.718300
C -18.448500 -13.109700 -30.890300
H -18.174500 -14.781800 -29.974500
N -18.005500 -11.580300 -33.182000
C -17.979300 -10.915200 -35.507300
H -17.927300 -10.193200 -37.404300
C -17.659100 -10.020000 -36.509600
C -17.593200 -10.676600 -34.196900
N -17.368000 -13.260100 -31.666900
C -17.294400 -7.496800 -38.102800
C -17.103700 -12.331600 -32.639600
C -16.940300 -8.859200 -36.210000
C -16.896700 -9.510000 -33.901500
N -16.894100 -6.723000 -39.147300
H -16.645000 -9.330000 -33.004700
C -16.565700 -8.612700 -34.886900
N -16.469200 -7.972700 -37.212300
H -16.082300 -7.824300 -34.667500
H -15.961500 -5.495700 -41.012700
N -15.775900 -12.308700 -32.962500
C -15.644800 -6.785100 -39.605200
H -15.482500 -11.752800 -33.578700
N -15.351600 -6.027100 -40.668700
H -15.215100 -12.848900 -32.553100
H -14.813800 -8.097600 -38.480500
N -14.670000 -7.553100 -39.155800
H -14.545700 -6.060700 -41.021100
H -13.875100 -7.518400 -39.533500
