36
Fragment
H -24.144800 -13.023900 -29.063000
H -23.616400 -7.968200 -20.938900
H -23.477800 -12.116700 -28.035300
N -23.417800 -12.733300 -28.659900
H -23.239800 -8.743900 -22.194500
N -23.030600 -8.166000 -21.565600
H -22.991700 -14.437500 -30.348000
N -22.230800 -14.189000 -29.983000
C -22.222100 -13.230100 -28.997500
N -22.019800 -11.439500 -26.767100
H -21.953800 -8.794100 -26.701700
C -21.797400 -7.577800 -21.559300
C -21.738600 -9.154400 -25.849200
C -21.710800 -10.529800 -25.693100
N -21.695600 -6.620400 -20.538000
H -21.491800 -11.941600 -24.249700
H -21.475400 -14.553200 -30.248900
C -21.470300 -11.005400 -24.412200
C -21.460200 -8.273800 -24.787800
H -21.442600 -7.337600 -24.946100
H -21.229200 -4.756100 -19.033500
C -21.214800 -8.752500 -23.519600
C -21.196800 -10.122900 -23.348700
N -21.055300 -12.887600 -28.476300
C -21.007900 -11.946300 -27.427600
H -20.994400 -10.479200 -22.489900
N -20.878100 -7.819600 -22.451900
C -20.501800 -6.208800 -20.128600
N -20.477000 -5.139500 -19.282500
H -19.707500 -4.831900 -18.984900
N -19.692700 -11.601100 -27.138500
H -19.520000 -11.026800 -26.494900
N -19.316100 -6.789600 -20.388200
H -19.281300 -7.520500 -20.875600
H -19.032800 -11.958200 -27.598500
H -18.575200 -6.438200 -20.067400
36
Fragment
H -24.150200 -22.327000 -23.770700
H -23.479600 -23.784600 -22.283100
N -23.355300 -22.292300 -24.148400
H -23.211600 -21.747800 -24.823700
H -22.810200 -16.996400 -30.751100
N -22.673700 -23.818200 -22.635500
H -22.542800 -18.092500 -29.725500
C -22.380500 -23.060200 -23.699000
N -22.249400 -17.536600 -30.341700
H -22.063800 -24.349600 -22.291500
H -21.943000 -22.021000 -28.636700
N -21.556100 -21.872700 -26.091900
C -21.459600 -21.232700 -28.417300
H -21.380300 -20.515300 -30.299500
N -21.131200 -23.122300 -24.156900
C -21.128600 -20.335300 -29.402700
C -21.085000 -20.986200 -27.094200
C -20.921600 -17.513700 -30.664600
C -20.730900 -22.348600 -25.201400
N -20.657300 -16.585300 -31.637300
C -20.432100 -19.168800 -29.107300
C -20.366200 -19.825400 -26.794600
H -20.098000 -19.652200 -25.899900
C -20.046000 -18.930200 -27.796900
N -20.019800 -18.265000 -30.122200
H -19.850800 -15.063600 -33.329700
C -19.576800 -16.735700 -32.413900
H -19.556000 -18.143900 -27.585900
N -19.360700 -22.256200 -25.239400
N -19.322800 -15.765200 -33.283200
H -18.965000 -21.844200 -25.908300
H -18.891800 -18.476200 -31.920100
H -18.877900 -22.608500 -24.591600
N -18.771200 -17.801400 -32.470800
H -18.623100 -15.825300 -33.815000
H -18.116400 -17.825500 -33.057500
72
Fragment
H -24.144800 -13.023900 -29.063000
H -23.616400 -7.968200 -20.938900
H -23.477800 -12.116700 -28.035300
N -23.417800 -12.733300 -28.659900
H -23.239800 -8.743900 -22.194500
N -23.030600 -8.166000 -21.565600
H -22.991700 -14.437500 -30.348000
N -22.230800 -14.189000 -29.983000
C -22.222100 -13.230100 -28.997500
N -22.019800 -11.439500 -26.767100
H -21.953800 -8.794100 -26.701700
C -21.797400 -7.577800 -21.559300
C -21.738600 -9.154400 -25.849200
C -21.710800 -10.529800 -25.693100
N -21.695600 -6.620400 -20.538000
H -21.491800 -11.941600 -24.249700
H -21.475400 -14.553200 -30.248900
C -21.470300 -11.005400 -24.412200
C -21.460200 -8.273800 -24.787800
H -21.442600 -7.337600 -24.946100
H -21.229200 -4.756100 -19.033500
C -21.214800 -8.752500 -23.519600
C -21.196800 -10.122900 -23.348700
N -21.055300 -12.887600 -28.476300
C -21.007900 -11.946300 -27.427600
H -20.994400 -10.479200 -22.489900
N -20.878100 -7.819600 -22.451900
C -20.501800 -6.208800 -20.128600
N -20.477000 -5.139500 -19.282500
H -19.707500 -4.831900 -18.984900
N -19.692700 -11.601100 -27.138500
H -19.520000 -11.026800 -26.494900
N -19.316100 -6.789600 -20.388200
H -19.281300 -7.520500 -20.875600
H -19.032800 -11.958200 -27.598500
H -18.575200 -6.438200 -20.067400
H -24.150200 -22.327000 -23.770700
H -23.479600 -23.784600 -22.283100
N -23.355300 -22.292300 -24.148400
H -23.211600 -21.747800 -24.823700
H -22.810200 -16.996400 -30.751100
N -22.673700 -23.818200 -22.635500
H -22.542800 -18.092500 -29.725500
C -22.380500 -23.060200 -23.699000
N -22.249400 -17.536600 -30.341700
H -22.063800 -24.349600 -22.291500
H -21.943000 -22.021000 -28.636700
N -21.556100 -21.872700 -26.091900
C -21.459600 -21.232700 -28.417300
H -21.380300 -20.515300 -30.299500
N -21.131200 -23.122300 -24.156900
C -21.128600 -20.335300 -29.402700
C -21.085000 -20.986200 -27.094200
C -20.921600 -17.513700 -30.664600
C -20.730900 -22.348600 -25.201400
N -20.657300 -16.585300 -31.637300
C -20.432100 -19.168800 -29.107300
C -20.366200 -19.825400 -26.794600
H -20.098000 -19.652200 -25.899900
C -20.046000 -18.930200 -27.796900
N -20.019800 -18.265000 -30.122200
H -19.850800 -15.063600 -33.329700
C -19.576800 -16.735700 -32.413900
H -19.556000 -18.143900 -27.585900
N -19.360700 -22.256200 -25.239400
N -19.322800 -15.765200 -33.283200
H -18.965000 -21.844200 -25.908300
H -18.891800 -18.476200 -31.920100
H -18.877900 -22.608500 -24.591600
N -18.771200 -17.801400 -32.470800
H -18.623100 -15.825300 -33.815000
H -18.116400 -17.825500 -33.057500
