36
Fragment
H -24.144800 -13.023900 -29.063000
H -23.616400 -7.968200 -20.938900
H -23.477800 -12.116700 -28.035300
N -23.417800 -12.733300 -28.659900
H -23.239800 -8.743900 -22.194500
N -23.030600 -8.166000 -21.565600
H -22.991700 -14.437500 -30.348000
N -22.230800 -14.189000 -29.983000
C -22.222100 -13.230100 -28.997500
N -22.019800 -11.439500 -26.767100
H -21.953800 -8.794100 -26.701700
C -21.797400 -7.577800 -21.559300
C -21.738600 -9.154400 -25.849200
C -21.710800 -10.529800 -25.693100
N -21.695600 -6.620400 -20.538000
H -21.491800 -11.941600 -24.249700
H -21.475400 -14.553200 -30.248900
C -21.470300 -11.005400 -24.412200
C -21.460200 -8.273800 -24.787800
H -21.442600 -7.337600 -24.946100
H -21.229200 -4.756100 -19.033500
C -21.214800 -8.752500 -23.519600
C -21.196800 -10.122900 -23.348700
N -21.055300 -12.887600 -28.476300
C -21.007900 -11.946300 -27.427600
H -20.994400 -10.479200 -22.489900
N -20.878100 -7.819600 -22.451900
C -20.501800 -6.208800 -20.128600
N -20.477000 -5.139500 -19.282500
H -19.707500 -4.831900 -18.984900
N -19.692700 -11.601100 -27.138500
H -19.520000 -11.026800 -26.494900
N -19.316100 -6.789600 -20.388200
H -19.281300 -7.520500 -20.875600
H -19.032800 -11.958200 -27.598500
H -18.575200 -6.438200 -20.067400
36
Fragment
H -24.211100 -2.981000 -23.770700
H -23.540400 -4.438700 -22.283100
N -23.416100 -2.946300 -24.148400
H -23.272400 -2.401800 -24.823700
H -22.871100 2.349600 -30.751100
N -22.734500 -4.472300 -22.635500
H -22.603700 1.253500 -29.725500
C -22.441400 -3.714300 -23.699000
N -22.310200 1.809300 -30.341700
H -22.124700 -5.003700 -22.291500
H -22.003900 -2.675000 -28.636700
N -21.617000 -2.526700 -26.091900
C -21.520500 -1.886700 -28.417300
H -21.441200 -1.169400 -30.299500
N -21.192000 -3.776300 -24.156900
C -21.189500 -0.989400 -29.402700
C -21.145900 -1.640200 -27.094200
C -20.982500 1.832200 -30.664600
C -20.791800 -3.002600 -25.201400
N -20.718200 2.760700 -31.637300
C -20.493000 0.177200 -29.107300
C -20.427100 -0.479400 -26.794600
H -20.158900 -0.306200 -25.899900
C -20.106900 0.415800 -27.796900
N -20.080600 1.080900 -30.122200
H -19.911700 4.282400 -33.329700
C -19.637700 2.610300 -32.413900
H -19.616800 1.202100 -27.585900
N -19.421600 -2.910200 -25.239400
N -19.383700 3.580800 -33.283200
H -19.025900 -2.498200 -25.908300
H -18.952700 0.869800 -31.920100
H -18.938800 -3.262600 -24.591600
N -18.832100 1.544600 -32.470800
H -18.684000 3.520600 -33.815000
H -18.177300 1.520500 -33.057500
72
Fragment
H -24.144800 -13.023900 -29.063000
H -23.616400 -7.968200 -20.938900
H -23.477800 -12.116700 -28.035300
N -23.417800 -12.733300 -28.659900
H -23.239800 -8.743900 -22.194500
N -23.030600 -8.166000 -21.565600
H -22.991700 -14.437500 -30.348000
N -22.230800 -14.189000 -29.983000
C -22.222100 -13.230100 -28.997500
N -22.019800 -11.439500 -26.767100
H -21.953800 -8.794100 -26.701700
C -21.797400 -7.577800 -21.559300
C -21.738600 -9.154400 -25.849200
C -21.710800 -10.529800 -25.693100
N -21.695600 -6.620400 -20.538000
H -21.491800 -11.941600 -24.249700
H -21.475400 -14.553200 -30.248900
C -21.470300 -11.005400 -24.412200
C -21.460200 -8.273800 -24.787800
H -21.442600 -7.337600 -24.946100
H -21.229200 -4.756100 -19.033500
C -21.214800 -8.752500 -23.519600
C -21.196800 -10.122900 -23.348700
N -21.055300 -12.887600 -28.476300
C -21.007900 -11.946300 -27.427600
H -20.994400 -10.479200 -22.489900
N -20.878100 -7.819600 -22.451900
C -20.501800 -6.208800 -20.128600
N -20.477000 -5.139500 -19.282500
H -19.707500 -4.831900 -18.984900
N -19.692700 -11.601100 -27.138500
H -19.520000 -11.026800 -26.494900
N -19.316100 -6.789600 -20.388200
H -19.281300 -7.520500 -20.875600
H -19.032800 -11.958200 -27.598500
H -18.575200 -6.438200 -20.067400
H -24.211100 -2.981000 -23.770700
H -23.540400 -4.438700 -22.283100
N -23.416100 -2.946300 -24.148400
H -23.272400 -2.401800 -24.823700
H -22.871100 2.349600 -30.751100
N -22.734500 -4.472300 -22.635500
H -22.603700 1.253500 -29.725500
C -22.441400 -3.714300 -23.699000
N -22.310200 1.809300 -30.341700
H -22.124700 -5.003700 -22.291500
H -22.003900 -2.675000 -28.636700
N -21.617000 -2.526700 -26.091900
C -21.520500 -1.886700 -28.417300
H -21.441200 -1.169400 -30.299500
N -21.192000 -3.776300 -24.156900
C -21.189500 -0.989400 -29.402700
C -21.145900 -1.640200 -27.094200
C -20.982500 1.832200 -30.664600
C -20.791800 -3.002600 -25.201400
N -20.718200 2.760700 -31.637300
C -20.493000 0.177200 -29.107300
C -20.427100 -0.479400 -26.794600
H -20.158900 -0.306200 -25.899900
C -20.106900 0.415800 -27.796900
N -20.080600 1.080900 -30.122200
H -19.911700 4.282400 -33.329700
C -19.637700 2.610300 -32.413900
H -19.616800 1.202100 -27.585900
N -19.421600 -2.910200 -25.239400
N -19.383700 3.580800 -33.283200
H -19.025900 -2.498200 -25.908300
H -18.952700 0.869800 -31.920100
H -18.938800 -3.262600 -24.591600
N -18.832100 1.544600 -32.470800
H -18.684000 3.520600 -33.815000
H -18.177300 1.520500 -33.057500
