36
Fragment
H -24.144800 -13.023900 -29.063000
H -23.616400 -7.968200 -20.938900
H -23.477800 -12.116700 -28.035300
N -23.417800 -12.733300 -28.659900
H -23.239800 -8.743900 -22.194500
N -23.030600 -8.166000 -21.565600
H -22.991700 -14.437500 -30.348000
N -22.230800 -14.189000 -29.983000
C -22.222100 -13.230100 -28.997500
N -22.019800 -11.439500 -26.767100
H -21.953800 -8.794100 -26.701700
C -21.797400 -7.577800 -21.559300
C -21.738600 -9.154400 -25.849200
C -21.710800 -10.529800 -25.693100
N -21.695600 -6.620400 -20.538000
H -21.491800 -11.941600 -24.249700
H -21.475400 -14.553200 -30.248900
C -21.470300 -11.005400 -24.412200
C -21.460200 -8.273800 -24.787800
H -21.442600 -7.337600 -24.946100
H -21.229200 -4.756100 -19.033500
C -21.214800 -8.752500 -23.519600
C -21.196800 -10.122900 -23.348700
N -21.055300 -12.887600 -28.476300
C -21.007900 -11.946300 -27.427600
H -20.994400 -10.479200 -22.489900
N -20.878100 -7.819600 -22.451900
C -20.501800 -6.208800 -20.128600
N -20.477000 -5.139500 -19.282500
H -19.707500 -4.831900 -18.984900
N -19.692700 -11.601100 -27.138500
H -19.520000 -11.026800 -26.494900
N -19.316100 -6.789600 -20.388200
H -19.281300 -7.520500 -20.875600
H -19.032800 -11.958200 -27.598500
H -18.575200 -6.438200 -20.067400
36
Fragment
H -23.639000 1.076700 -24.591600
H -23.287500 -3.986100 -16.881100
H -23.111200 0.330400 -23.371900
N -22.985700 0.902200 -24.028200
H -22.742200 -3.004200 -17.910900
N -22.621000 -3.508500 -17.199800
H -22.058400 -4.823100 -15.275300
H -21.860000 0.665500 -19.113600
N -21.786900 2.365000 -25.268900
C -21.766900 1.525200 -24.175900
H -21.616800 1.985500 -21.000100
H -21.542100 3.913900 -27.106900
C -21.525200 0.282700 -19.915500
C -21.414600 -3.549000 -16.598400
C -21.403700 1.061100 -21.042300
N -21.373400 -1.872600 -18.816100
N -21.346300 -4.374700 -15.532700
C -21.167200 -1.048700 -19.940800
C -20.962400 0.497700 -22.262000
N -20.783300 3.823800 -26.670100
N -20.756200 1.321700 -23.386700
C -20.725800 -1.612100 -21.160500
C -20.714900 2.998100 -25.604400
C -20.604300 -0.833600 -22.287300
H -20.587500 -4.464800 -15.095900
H -20.512800 -2.536400 -21.202700
C -20.362700 -2.076100 -18.026900
N -20.342700 -2.916000 -16.933900
H -20.269600 -1.216500 -23.089200
H -20.071200 4.272200 -26.927500
N -19.508600 2.957600 -25.003000
H -19.387400 2.453200 -24.291900
N -19.143900 -1.453200 -18.174600
H -19.018400 -0.881300 -18.830900
H -18.842100 3.435100 -25.321700
H -18.490600 -1.627700 -17.611200
72
Fragment
H -24.144800 -13.023900 -29.063000
H -23.616400 -7.968200 -20.938900
H -23.477800 -12.116700 -28.035300
N -23.417800 -12.733300 -28.659900
H -23.239800 -8.743900 -22.194500
N -23.030600 -8.166000 -21.565600
H -22.991700 -14.437500 -30.348000
N -22.230800 -14.189000 -29.983000
C -22.222100 -13.230100 -28.997500
N -22.019800 -11.439500 -26.767100
H -21.953800 -8.794100 -26.701700
C -21.797400 -7.577800 -21.559300
C -21.738600 -9.154400 -25.849200
C -21.710800 -10.529800 -25.693100
N -21.695600 -6.620400 -20.538000
H -21.491800 -11.941600 -24.249700
H -21.475400 -14.553200 -30.248900
C -21.470300 -11.005400 -24.412200
C -21.460200 -8.273800 -24.787800
H -21.442600 -7.337600 -24.946100
H -21.229200 -4.756100 -19.033500
C -21.214800 -8.752500 -23.519600
C -21.196800 -10.122900 -23.348700
N -21.055300 -12.887600 -28.476300
C -21.007900 -11.946300 -27.427600
H -20.994400 -10.479200 -22.489900
N -20.878100 -7.819600 -22.451900
C -20.501800 -6.208800 -20.128600
N -20.477000 -5.139500 -19.282500
H -19.707500 -4.831900 -18.984900
N -19.692700 -11.601100 -27.138500
H -19.520000 -11.026800 -26.494900
N -19.316100 -6.789600 -20.388200
H -19.281300 -7.520500 -20.875600
H -19.032800 -11.958200 -27.598500
H -18.575200 -6.438200 -20.067400
H -23.639000 1.076700 -24.591600
H -23.287500 -3.986100 -16.881100
H -23.111200 0.330400 -23.371900
N -22.985700 0.902200 -24.028200
H -22.742200 -3.004200 -17.910900
N -22.621000 -3.508500 -17.199800
H -22.058400 -4.823100 -15.275300
H -21.860000 0.665500 -19.113600
N -21.786900 2.365000 -25.268900
C -21.766900 1.525200 -24.175900
H -21.616800 1.985500 -21.000100
H -21.542100 3.913900 -27.106900
C -21.525200 0.282700 -19.915500
C -21.414600 -3.549000 -16.598400
C -21.403700 1.061100 -21.042300
N -21.373400 -1.872600 -18.816100
N -21.346300 -4.374700 -15.532700
C -21.167200 -1.048700 -19.940800
C -20.962400 0.497700 -22.262000
N -20.783300 3.823800 -26.670100
N -20.756200 1.321700 -23.386700
C -20.725800 -1.612100 -21.160500
C -20.714900 2.998100 -25.604400
C -20.604300 -0.833600 -22.287300
H -20.587500 -4.464800 -15.095900
H -20.512800 -2.536400 -21.202700
C -20.362700 -2.076100 -18.026900
N -20.342700 -2.916000 -16.933900
H -20.269600 -1.216500 -23.089200
H -20.071200 4.272200 -26.927500
N -19.508600 2.957600 -25.003000
H -19.387400 2.453200 -24.291900
N -19.143900 -1.453200 -18.174600
H -19.018400 -0.881300 -18.830900
H -18.842100 3.435100 -25.321700
H -18.490600 -1.627700 -17.611200
