36
Fragment
H -24.144800 -13.023900 -29.063000
H -23.616400 -7.968200 -20.938900
H -23.477800 -12.116700 -28.035300
N -23.417800 -12.733300 -28.659900
H -23.239800 -8.743900 -22.194500
N -23.030600 -8.166000 -21.565600
H -22.991700 -14.437500 -30.348000
N -22.230800 -14.189000 -29.983000
C -22.222100 -13.230100 -28.997500
N -22.019800 -11.439500 -26.767100
H -21.953800 -8.794100 -26.701700
C -21.797400 -7.577800 -21.559300
C -21.738600 -9.154400 -25.849200
C -21.710800 -10.529800 -25.693100
N -21.695600 -6.620400 -20.538000
H -21.491800 -11.941600 -24.249700
H -21.475400 -14.553200 -30.248900
C -21.470300 -11.005400 -24.412200
C -21.460200 -8.273800 -24.787800
H -21.442600 -7.337600 -24.946100
H -21.229200 -4.756100 -19.033500
C -21.214800 -8.752500 -23.519600
C -21.196800 -10.122900 -23.348700
N -21.055300 -12.887600 -28.476300
C -21.007900 -11.946300 -27.427600
H -20.994400 -10.479200 -22.489900
N -20.878100 -7.819600 -22.451900
C -20.501800 -6.208800 -20.128600
N -20.477000 -5.139500 -19.282500
H -19.707500 -4.831900 -18.984900
N -19.692700 -11.601100 -27.138500
H -19.520000 -11.026800 -26.494900
N -19.316100 -6.789600 -20.388200
H -19.281300 -7.520500 -20.875600
H -19.032800 -11.958200 -27.598500
H -18.575200 -6.438200 -20.067400
36
Fragment
H -24.954600 -11.993900 -36.332400
H -24.742900 -14.043200 -37.267200
N -24.214900 -12.098000 -35.866000
N -24.002300 -14.193100 -36.817700
H -23.925600 -11.447100 -35.351200
H -23.563000 -14.947100 -36.931700
C -23.532400 -13.251100 -35.944100
H -23.283700 -11.565400 -31.225900
H -22.895100 -7.640500 -29.923900
H -22.876300 -6.572900 -28.835100
N -22.643600 -11.729600 -33.722100
C -22.569800 -10.969100 -31.413700
N -22.466900 -7.208500 -29.286600
H -22.441500 -10.193600 -29.508200
N -22.404800 -13.539600 -35.296300
C -22.062800 -10.137300 -30.379700
C -22.040700 -10.923800 -32.688200
C -21.928400 -12.642600 -34.310900
C -21.142900 -7.529700 -28.993300
C -21.030600 -9.248500 -30.616000
C -21.008500 -10.035100 -32.924500
N -20.666500 -6.632800 -28.007900
H -20.629800 -9.978800 -33.796000
N -20.604400 -12.963800 -34.017600
C -20.501500 -9.203300 -31.890500
N -20.427700 -8.442800 -29.582100
H -20.195000 -13.599400 -34.469100
H -20.176200 -12.531800 -33.380300
H -19.787600 -8.606900 -32.078300
C -19.538900 -6.921300 -27.360100
H -19.508300 -5.225300 -26.372500
H -19.145600 -8.725300 -27.953000
N -19.069000 -5.979300 -26.486500
N -18.856400 -8.074300 -27.438200
H -18.328400 -6.129200 -26.037000
H -18.116700 -8.178500 -26.971800
72
Fragment
H -24.144800 -13.023900 -29.063000
H -23.616400 -7.968200 -20.938900
H -23.477800 -12.116700 -28.035300
N -23.417800 -12.733300 -28.659900
H -23.239800 -8.743900 -22.194500
N -23.030600 -8.166000 -21.565600
H -22.991700 -14.437500 -30.348000
N -22.230800 -14.189000 -29.983000
C -22.222100 -13.230100 -28.997500
N -22.019800 -11.439500 -26.767100
H -21.953800 -8.794100 -26.701700
C -21.797400 -7.577800 -21.559300
C -21.738600 -9.154400 -25.849200
C -21.710800 -10.529800 -25.693100
N -21.695600 -6.620400 -20.538000
H -21.491800 -11.941600 -24.249700
H -21.475400 -14.553200 -30.248900
C -21.470300 -11.005400 -24.412200
C -21.460200 -8.273800 -24.787800
H -21.442600 -7.337600 -24.946100
H -21.229200 -4.756100 -19.033500
C -21.214800 -8.752500 -23.519600
C -21.196800 -10.122900 -23.348700
N -21.055300 -12.887600 -28.476300
C -21.007900 -11.946300 -27.427600
H -20.994400 -10.479200 -22.489900
N -20.878100 -7.819600 -22.451900
C -20.501800 -6.208800 -20.128600
N -20.477000 -5.139500 -19.282500
H -19.707500 -4.831900 -18.984900
N -19.692700 -11.601100 -27.138500
H -19.520000 -11.026800 -26.494900
N -19.316100 -6.789600 -20.388200
H -19.281300 -7.520500 -20.875600
H -19.032800 -11.958200 -27.598500
H -18.575200 -6.438200 -20.067400
H -24.954600 -11.993900 -36.332400
H -24.742900 -14.043200 -37.267200
N -24.214900 -12.098000 -35.866000
N -24.002300 -14.193100 -36.817700
H -23.925600 -11.447100 -35.351200
H -23.563000 -14.947100 -36.931700
C -23.532400 -13.251100 -35.944100
H -23.283700 -11.565400 -31.225900
H -22.895100 -7.640500 -29.923900
H -22.876300 -6.572900 -28.835100
N -22.643600 -11.729600 -33.722100
C -22.569800 -10.969100 -31.413700
N -22.466900 -7.208500 -29.286600
H -22.441500 -10.193600 -29.508200
N -22.404800 -13.539600 -35.296300
C -22.062800 -10.137300 -30.379700
C -22.040700 -10.923800 -32.688200
C -21.928400 -12.642600 -34.310900
C -21.142900 -7.529700 -28.993300
C -21.030600 -9.248500 -30.616000
C -21.008500 -10.035100 -32.924500
N -20.666500 -6.632800 -28.007900
H -20.629800 -9.978800 -33.796000
N -20.604400 -12.963800 -34.017600
C -20.501500 -9.203300 -31.890500
N -20.427700 -8.442800 -29.582100
H -20.195000 -13.599400 -34.469100
H -20.176200 -12.531800 -33.380300
H -19.787600 -8.606900 -32.078300
C -19.538900 -6.921300 -27.360100
H -19.508300 -5.225300 -26.372500
H -19.145600 -8.725300 -27.953000
N -19.069000 -5.979300 -26.486500
N -18.856400 -8.074300 -27.438200
H -18.328400 -6.129200 -26.037000
H -18.116700 -8.178500 -26.971800
