30
Fragment
O -24.385500 -18.431500 -13.649700
H -23.937000 -17.584200 -11.823000
N -23.385400 -19.062300 -14.024200
O -23.378400 -19.777900 -15.003900
N -23.192200 -17.587200 -11.409300
H -23.159500 -17.213200 -10.574700
C -22.210500 -18.195300 -12.016400
C -22.175300 -18.906400 -13.235300
N -21.110100 -19.502400 -13.768000
N -20.957600 -18.168800 -11.454400
N -20.606700 -17.497200 -10.322400
N -19.920800 -19.423000 -13.216400
C -19.859700 -18.711200 -12.062200
C -19.287000 -17.678200 -10.326300
N -18.947100 -16.374800 -8.251300
N -18.780100 -18.399400 -11.355700
C -18.440100 -17.096000 -9.280600
C -17.867500 -16.063000 -7.544800
N -17.806300 -15.351200 -6.390600
N -17.120400 -17.277000 -9.284500
N -16.769500 -16.605400 -8.152600
N -16.617000 -15.271800 -5.838900
C -15.551800 -15.867800 -6.371600
C -15.516600 -16.578900 -7.590500
H -14.567700 -17.561000 -9.032300
N -14.535000 -17.187000 -8.197700
O -14.348700 -14.996300 -4.603100
N -14.341800 -15.711900 -5.582800
H -13.790100 -17.190000 -7.784000
O -13.341600 -16.342700 -5.957200
6
Fragment
H -12.658300 -15.717900 -2.712300
H -12.302700 -15.741100 -1.222200
C -11.944000 -15.584600 -2.109100
H -11.641900 -14.663100 -2.169800
O -10.930200 -16.521200 -2.392700
H -10.222400 -16.436600 -1.836500
36
Fragment
O -24.385500 -18.431500 -13.649700
H -23.937000 -17.584200 -11.823000
N -23.385400 -19.062300 -14.024200
O -23.378400 -19.777900 -15.003900
N -23.192200 -17.587200 -11.409300
H -23.159500 -17.213200 -10.574700
C -22.210500 -18.195300 -12.016400
C -22.175300 -18.906400 -13.235300
N -21.110100 -19.502400 -13.768000
N -20.957600 -18.168800 -11.454400
N -20.606700 -17.497200 -10.322400
N -19.920800 -19.423000 -13.216400
C -19.859700 -18.711200 -12.062200
C -19.287000 -17.678200 -10.326300
N -18.947100 -16.374800 -8.251300
N -18.780100 -18.399400 -11.355700
C -18.440100 -17.096000 -9.280600
C -17.867500 -16.063000 -7.544800
N -17.806300 -15.351200 -6.390600
N -17.120400 -17.277000 -9.284500
N -16.769500 -16.605400 -8.152600
N -16.617000 -15.271800 -5.838900
C -15.551800 -15.867800 -6.371600
C -15.516600 -16.578900 -7.590500
H -14.567700 -17.561000 -9.032300
N -14.535000 -17.187000 -8.197700
O -14.348700 -14.996300 -4.603100
N -14.341800 -15.711900 -5.582800
H -13.790100 -17.190000 -7.784000
O -13.341600 -16.342700 -5.957200
H -12.658300 -15.717900 -2.712300
H -12.302700 -15.741100 -1.222200
C -11.944000 -15.584600 -2.109100
H -11.641900 -14.663100 -2.169800
O -10.930200 -16.521200 -2.392700
H -10.222400 -16.436600 -1.836500
