30
Fragment
O -24.385500 -18.431500 -13.649700
H -23.937000 -17.584200 -11.823000
N -23.385400 -19.062300 -14.024200
O -23.378400 -19.777900 -15.003900
N -23.192200 -17.587200 -11.409300
H -23.159500 -17.213200 -10.574700
C -22.210500 -18.195300 -12.016400
C -22.175300 -18.906400 -13.235300
N -21.110100 -19.502400 -13.768000
N -20.957600 -18.168800 -11.454400
N -20.606700 -17.497200 -10.322400
N -19.920800 -19.423000 -13.216400
C -19.859700 -18.711200 -12.062200
C -19.287000 -17.678200 -10.326300
N -18.947100 -16.374800 -8.251300
N -18.780100 -18.399400 -11.355700
C -18.440100 -17.096000 -9.280600
C -17.867500 -16.063000 -7.544800
N -17.806300 -15.351200 -6.390600
N -17.120400 -17.277000 -9.284500
N -16.769500 -16.605400 -8.152600
N -16.617000 -15.271800 -5.838900
C -15.551800 -15.867800 -6.371600
C -15.516600 -16.578900 -7.590500
H -14.567700 -17.561000 -9.032300
N -14.535000 -17.187000 -8.197700
O -14.348700 -14.996300 -4.603100
N -14.341800 -15.711900 -5.582800
H -13.790100 -17.190000 -7.784000
O -13.341600 -16.342700 -5.957200
30
Fragment
O -24.922800 -10.547000 -10.381900
H -24.474300 -11.394300 -8.555200
N -23.922700 -9.916200 -10.756400
O -23.915700 -9.200600 -11.736100
N -23.729500 -11.391300 -8.141500
H -23.696800 -11.765300 -7.306900
C -22.747800 -10.783200 -8.748600
C -22.712600 -10.072100 -9.967500
N -21.647400 -9.476100 -10.500200
N -21.494900 -10.809700 -8.186600
N -21.144000 -11.481300 -7.054600
N -20.458100 -9.555500 -9.948600
C -20.397000 -10.267300 -8.794400
C -19.824300 -11.300300 -7.058500
N -19.484400 -12.603700 -4.983400
N -19.317400 -10.579100 -8.087900
C -18.977400 -11.882500 -6.012800
C -18.404800 -12.915500 -4.276900
N -18.343600 -13.627300 -3.122700
N -17.657700 -11.701500 -6.016700
N -17.306800 -12.373100 -4.884700
N -17.154300 -13.706700 -2.571100
C -16.089100 -13.110700 -3.103800
C -16.053900 -12.399600 -4.322700
H -15.105000 -11.417500 -5.764400
N -15.072200 -11.791500 -4.929800
O -14.886000 -13.982200 -1.335200
N -14.879100 -13.266600 -2.314900
H -14.327400 -11.788500 -4.516100
O -13.878900 -12.635800 -2.689400
60
Fragment
O -24.385500 -18.431500 -13.649700
H -23.937000 -17.584200 -11.823000
N -23.385400 -19.062300 -14.024200
O -23.378400 -19.777900 -15.003900
N -23.192200 -17.587200 -11.409300
H -23.159500 -17.213200 -10.574700
C -22.210500 -18.195300 -12.016400
C -22.175300 -18.906400 -13.235300
N -21.110100 -19.502400 -13.768000
N -20.957600 -18.168800 -11.454400
N -20.606700 -17.497200 -10.322400
N -19.920800 -19.423000 -13.216400
C -19.859700 -18.711200 -12.062200
C -19.287000 -17.678200 -10.326300
N -18.947100 -16.374800 -8.251300
N -18.780100 -18.399400 -11.355700
C -18.440100 -17.096000 -9.280600
C -17.867500 -16.063000 -7.544800
N -17.806300 -15.351200 -6.390600
N -17.120400 -17.277000 -9.284500
N -16.769500 -16.605400 -8.152600
N -16.617000 -15.271800 -5.838900
C -15.551800 -15.867800 -6.371600
C -15.516600 -16.578900 -7.590500
H -14.567700 -17.561000 -9.032300
N -14.535000 -17.187000 -8.197700
O -14.348700 -14.996300 -4.603100
N -14.341800 -15.711900 -5.582800
H -13.790100 -17.190000 -7.784000
O -13.341600 -16.342700 -5.957200
O -24.922800 -10.547000 -10.381900
H -24.474300 -11.394300 -8.555200
N -23.922700 -9.916200 -10.756400
O -23.915700 -9.200600 -11.736100
N -23.729500 -11.391300 -8.141500
H -23.696800 -11.765300 -7.306900
C -22.747800 -10.783200 -8.748600
C -22.712600 -10.072100 -9.967500
N -21.647400 -9.476100 -10.500200
N -21.494900 -10.809700 -8.186600
N -21.144000 -11.481300 -7.054600
N -20.458100 -9.555500 -9.948600
C -20.397000 -10.267300 -8.794400
C -19.824300 -11.300300 -7.058500
N -19.484400 -12.603700 -4.983400
N -19.317400 -10.579100 -8.087900
C -18.977400 -11.882500 -6.012800
C -18.404800 -12.915500 -4.276900
N -18.343600 -13.627300 -3.122700
N -17.657700 -11.701500 -6.016700
N -17.306800 -12.373100 -4.884700
N -17.154300 -13.706700 -2.571100
C -16.089100 -13.110700 -3.103800
C -16.053900 -12.399600 -4.322700
H -15.105000 -11.417500 -5.764400
N -15.072200 -11.791500 -4.929800
O -14.886000 -13.982200 -1.335200
N -14.879100 -13.266600 -2.314900
H -14.327400 -11.788500 -4.516100
O -13.878900 -12.635800 -2.689400
