36
Fragment
O -8.370100 -18.013300 -24.807300
O -8.069500 -17.901100 -21.656600
H -7.915100 -19.515100 -23.286600
O -7.610700 -22.836600 -21.914200
H -7.385900 -21.679900 -23.862300
N -7.220700 -18.153500 -25.172100
N -7.029800 -18.356800 -21.215700
C -6.996000 -19.677200 -23.252000
O -6.714500 -17.740200 -26.186100
C -6.612400 -21.142300 -23.671000
N -6.461700 -19.452500 -21.915500
N -6.459400 -22.513800 -21.668100
O -6.450600 -18.002300 -20.207500
N -6.333500 -18.792800 -24.231300
N -5.832100 -20.886400 -24.875400
O -5.821300 -22.814100 -20.671200
N -5.781000 -21.794900 -22.652800
O -5.507200 -23.061100 -25.207000
C -5.231800 -19.539000 -24.817300
N -5.119500 -21.928700 -25.451000
C -5.027000 -19.584800 -21.752900
H -5.016800 -19.227400 -25.674300
H -4.790100 -19.432300 -20.802400
C -4.623500 -21.036300 -22.204200
N -4.302200 -18.694600 -22.674000
H -4.189300 -21.505800 -21.548000
O -4.184400 -21.611600 -26.176900
C -3.965700 -19.474600 -23.863600
N -3.740200 -20.832000 -23.347900
O -3.443900 -17.532900 -20.961600
N -3.277900 -17.889800 -22.115200
H -3.211700 -19.109500 -24.324600
N -2.390700 -21.255800 -23.193300
O -2.367500 -17.568900 -22.856600
O -2.228800 -22.261600 -22.530500
O -1.545000 -20.620400 -23.796900
36
Fragment
O -8.616500 -15.311900 -14.838200
O -7.932800 -16.953100 -16.104500
O -7.794100 -12.260400 -15.778400
N -7.770900 -15.947300 -15.441800
H -6.949800 -13.801000 -14.310400
N -6.883700 -12.581300 -16.519800
O -6.717600 -12.224400 -17.673500
N -6.421300 -15.523500 -15.287100
C -6.195900 -14.166100 -14.771500
O -5.977200 -16.303100 -12.458100
H -5.972300 -16.197300 -17.087000
N -5.859400 -13.386100 -15.961000
C -5.538100 -15.727800 -16.430800
H -5.371500 -14.123800 -17.832600
H -5.144800 -13.918900 -12.960800
C -5.134600 -14.276300 -16.882100
N -5.042100 -16.620200 -13.184100
C -4.929800 -14.230500 -13.817700
O -4.654400 -17.752600 -13.428000
N -4.380600 -16.486400 -15.982300
O -4.340300 -17.505600 -17.963900
N -4.329500 -15.577900 -13.759600
N -3.828100 -13.484300 -14.403800
O -3.711000 -12.693800 -18.427500
N -3.702200 -17.205300 -16.967000
N -3.699900 -14.144000 -16.719600
C -3.549100 -15.833800 -14.964000
O -3.447000 -12.431700 -12.449000
C -3.165600 -14.368700 -15.383100
N -3.131800 -13.048300 -17.419400
N -2.940800 -12.845000 -13.462900
H -2.775700 -16.371400 -14.772800
O -2.550800 -17.528100 -16.720900
H -2.246500 -14.206600 -15.348400
O -2.092100 -12.592600 -16.978400
O -1.791500 -12.704800 -13.827700
72
Fragment
O -8.370100 -18.013300 -24.807300
O -8.069500 -17.901100 -21.656600
H -7.915100 -19.515100 -23.286600
O -7.610700 -22.836600 -21.914200
H -7.385900 -21.679900 -23.862300
N -7.220700 -18.153500 -25.172100
N -7.029800 -18.356800 -21.215700
C -6.996000 -19.677200 -23.252000
O -6.714500 -17.740200 -26.186100
C -6.612400 -21.142300 -23.671000
N -6.461700 -19.452500 -21.915500
N -6.459400 -22.513800 -21.668100
O -6.450600 -18.002300 -20.207500
N -6.333500 -18.792800 -24.231300
N -5.832100 -20.886400 -24.875400
O -5.821300 -22.814100 -20.671200
N -5.781000 -21.794900 -22.652800
O -5.507200 -23.061100 -25.207000
C -5.231800 -19.539000 -24.817300
N -5.119500 -21.928700 -25.451000
C -5.027000 -19.584800 -21.752900
H -5.016800 -19.227400 -25.674300
H -4.790100 -19.432300 -20.802400
C -4.623500 -21.036300 -22.204200
N -4.302200 -18.694600 -22.674000
H -4.189300 -21.505800 -21.548000
O -4.184400 -21.611600 -26.176900
C -3.965700 -19.474600 -23.863600
N -3.740200 -20.832000 -23.347900
O -3.443900 -17.532900 -20.961600
N -3.277900 -17.889800 -22.115200
H -3.211700 -19.109500 -24.324600
N -2.390700 -21.255800 -23.193300
O -2.367500 -17.568900 -22.856600
O -2.228800 -22.261600 -22.530500
O -1.545000 -20.620400 -23.796900
O -8.616500 -15.311900 -14.838200
O -7.932800 -16.953100 -16.104500
O -7.794100 -12.260400 -15.778400
N -7.770900 -15.947300 -15.441800
H -6.949800 -13.801000 -14.310400
N -6.883700 -12.581300 -16.519800
O -6.717600 -12.224400 -17.673500
N -6.421300 -15.523500 -15.287100
C -6.195900 -14.166100 -14.771500
O -5.977200 -16.303100 -12.458100
H -5.972300 -16.197300 -17.087000
N -5.859400 -13.386100 -15.961000
C -5.538100 -15.727800 -16.430800
H -5.371500 -14.123800 -17.832600
H -5.144800 -13.918900 -12.960800
C -5.134600 -14.276300 -16.882100
N -5.042100 -16.620200 -13.184100
C -4.929800 -14.230500 -13.817700
O -4.654400 -17.752600 -13.428000
N -4.380600 -16.486400 -15.982300
O -4.340300 -17.505600 -17.963900
N -4.329500 -15.577900 -13.759600
N -3.828100 -13.484300 -14.403800
O -3.711000 -12.693800 -18.427500
N -3.702200 -17.205300 -16.967000
N -3.699900 -14.144000 -16.719600
C -3.549100 -15.833800 -14.964000
O -3.447000 -12.431700 -12.449000
C -3.165600 -14.368700 -15.383100
N -3.131800 -13.048300 -17.419400
N -2.940800 -12.845000 -13.462900
H -2.775700 -16.371400 -14.772800
O -2.550800 -17.528100 -16.720900
H -2.246500 -14.206600 -15.348400
O -2.092100 -12.592600 -16.978400
O -1.791500 -12.704800 -13.827700
