36
Fragment
O -8.370100 -18.013300 -24.807300
O -8.069500 -17.901100 -21.656600
H -7.915100 -19.515100 -23.286600
O -7.610700 -22.836600 -21.914200
H -7.385900 -21.679900 -23.862300
N -7.220700 -18.153500 -25.172100
N -7.029800 -18.356800 -21.215700
C -6.996000 -19.677200 -23.252000
O -6.714500 -17.740200 -26.186100
C -6.612400 -21.142300 -23.671000
N -6.461700 -19.452500 -21.915500
N -6.459400 -22.513800 -21.668100
O -6.450600 -18.002300 -20.207500
N -6.333500 -18.792800 -24.231300
N -5.832100 -20.886400 -24.875400
O -5.821300 -22.814100 -20.671200
N -5.781000 -21.794900 -22.652800
O -5.507200 -23.061100 -25.207000
C -5.231800 -19.539000 -24.817300
N -5.119500 -21.928700 -25.451000
C -5.027000 -19.584800 -21.752900
H -5.016800 -19.227400 -25.674300
H -4.790100 -19.432300 -20.802400
C -4.623500 -21.036300 -22.204200
N -4.302200 -18.694600 -22.674000
H -4.189300 -21.505800 -21.548000
O -4.184400 -21.611600 -26.176900
C -3.965700 -19.474600 -23.863600
N -3.740200 -20.832000 -23.347900
O -3.443900 -17.532900 -20.961600
N -3.277900 -17.889800 -22.115200
H -3.211700 -19.109500 -24.324600
N -2.390700 -21.255800 -23.193300
O -2.367500 -17.568900 -22.856600
O -2.228800 -22.261600 -22.530500
O -1.545000 -20.620400 -23.796900
36
Fragment
O 0.054000 -18.013300 -24.807300
O 0.354600 -17.901100 -21.656600
H 0.509000 -19.515100 -23.286600
O 0.813400 -22.836600 -21.914200
H 1.038200 -21.679900 -23.862300
N 1.203400 -18.153500 -25.172100
N 1.394300 -18.356800 -21.215700
C 1.428100 -19.677200 -23.252000
O 1.709600 -17.740200 -26.186100
C 1.811700 -21.142300 -23.671000
N 1.962400 -19.452500 -21.915500
N 1.964700 -22.513800 -21.668100
O 1.973500 -18.002300 -20.207500
N 2.090600 -18.792800 -24.231300
N 2.592000 -20.886400 -24.875400
O 2.602800 -22.814100 -20.671200
N 2.643100 -21.794900 -22.652800
O 2.916900 -23.061100 -25.207000
C 3.192300 -19.539000 -24.817300
N 3.304600 -21.928700 -25.451000
C 3.397100 -19.584800 -21.752900
H 3.407300 -19.227400 -25.674300
H 3.634000 -19.432300 -20.802400
C 3.800600 -21.036300 -22.204200
N 4.121900 -18.694600 -22.674000
H 4.234800 -21.505800 -21.548000
O 4.239700 -21.611600 -26.176900
C 4.458400 -19.474600 -23.863600
N 4.683900 -20.832000 -23.347900
O 4.980200 -17.532900 -20.961600
N 5.146200 -17.889800 -22.115200
H 5.212400 -19.109500 -24.324600
N 6.033400 -21.255800 -23.193300
O 6.056600 -17.568900 -22.856600
O 6.195300 -22.261600 -22.530500
O 6.879100 -20.620400 -23.796900
72
Fragment
O -8.370100 -18.013300 -24.807300
O -8.069500 -17.901100 -21.656600
H -7.915100 -19.515100 -23.286600
O -7.610700 -22.836600 -21.914200
H -7.385900 -21.679900 -23.862300
N -7.220700 -18.153500 -25.172100
N -7.029800 -18.356800 -21.215700
C -6.996000 -19.677200 -23.252000
O -6.714500 -17.740200 -26.186100
C -6.612400 -21.142300 -23.671000
N -6.461700 -19.452500 -21.915500
N -6.459400 -22.513800 -21.668100
O -6.450600 -18.002300 -20.207500
N -6.333500 -18.792800 -24.231300
N -5.832100 -20.886400 -24.875400
O -5.821300 -22.814100 -20.671200
N -5.781000 -21.794900 -22.652800
O -5.507200 -23.061100 -25.207000
C -5.231800 -19.539000 -24.817300
N -5.119500 -21.928700 -25.451000
C -5.027000 -19.584800 -21.752900
H -5.016800 -19.227400 -25.674300
H -4.790100 -19.432300 -20.802400
C -4.623500 -21.036300 -22.204200
N -4.302200 -18.694600 -22.674000
H -4.189300 -21.505800 -21.548000
O -4.184400 -21.611600 -26.176900
C -3.965700 -19.474600 -23.863600
N -3.740200 -20.832000 -23.347900
O -3.443900 -17.532900 -20.961600
N -3.277900 -17.889800 -22.115200
H -3.211700 -19.109500 -24.324600
N -2.390700 -21.255800 -23.193300
O -2.367500 -17.568900 -22.856600
O -2.228800 -22.261600 -22.530500
O -1.545000 -20.620400 -23.796900
O 0.054000 -18.013300 -24.807300
O 0.354600 -17.901100 -21.656600
H 0.509000 -19.515100 -23.286600
O 0.813400 -22.836600 -21.914200
H 1.038200 -21.679900 -23.862300
N 1.203400 -18.153500 -25.172100
N 1.394300 -18.356800 -21.215700
C 1.428100 -19.677200 -23.252000
O 1.709600 -17.740200 -26.186100
C 1.811700 -21.142300 -23.671000
N 1.962400 -19.452500 -21.915500
N 1.964700 -22.513800 -21.668100
O 1.973500 -18.002300 -20.207500
N 2.090600 -18.792800 -24.231300
N 2.592000 -20.886400 -24.875400
O 2.602800 -22.814100 -20.671200
N 2.643100 -21.794900 -22.652800
O 2.916900 -23.061100 -25.207000
C 3.192300 -19.539000 -24.817300
N 3.304600 -21.928700 -25.451000
C 3.397100 -19.584800 -21.752900
H 3.407300 -19.227400 -25.674300
H 3.634000 -19.432300 -20.802400
C 3.800600 -21.036300 -22.204200
N 4.121900 -18.694600 -22.674000
H 4.234800 -21.505800 -21.548000
O 4.239700 -21.611600 -26.176900
C 4.458400 -19.474600 -23.863600
N 4.683900 -20.832000 -23.347900
O 4.980200 -17.532900 -20.961600
N 5.146200 -17.889800 -22.115200
H 5.212400 -19.109500 -24.324600
N 6.033400 -21.255800 -23.193300
O 6.056600 -17.568900 -22.856600
O 6.195300 -22.261600 -22.530500
O 6.879100 -20.620400 -23.796900
