36
Fragment
O -8.370100 -18.013300 -24.807300
O -8.069500 -17.901100 -21.656600
H -7.915100 -19.515100 -23.286600
O -7.610700 -22.836600 -21.914200
H -7.385900 -21.679900 -23.862300
N -7.220700 -18.153500 -25.172100
N -7.029800 -18.356800 -21.215700
C -6.996000 -19.677200 -23.252000
O -6.714500 -17.740200 -26.186100
C -6.612400 -21.142300 -23.671000
N -6.461700 -19.452500 -21.915500
N -6.459400 -22.513800 -21.668100
O -6.450600 -18.002300 -20.207500
N -6.333500 -18.792800 -24.231300
N -5.832100 -20.886400 -24.875400
O -5.821300 -22.814100 -20.671200
N -5.781000 -21.794900 -22.652800
O -5.507200 -23.061100 -25.207000
C -5.231800 -19.539000 -24.817300
N -5.119500 -21.928700 -25.451000
C -5.027000 -19.584800 -21.752900
H -5.016800 -19.227400 -25.674300
H -4.790100 -19.432300 -20.802400
C -4.623500 -21.036300 -22.204200
N -4.302200 -18.694600 -22.674000
H -4.189300 -21.505800 -21.548000
O -4.184400 -21.611600 -26.176900
C -3.965700 -19.474600 -23.863600
N -3.740200 -20.832000 -23.347900
O -3.443900 -17.532900 -20.961600
N -3.277900 -17.889800 -22.115200
H -3.211700 -19.109500 -24.324600
N -2.390700 -21.255800 -23.193300
O -2.367500 -17.568900 -22.856600
O -2.228800 -22.261600 -22.530500
O -1.545000 -20.620400 -23.796900
36
Fragment
O -14.811800 -25.928900 -27.716500
O -14.128000 -27.570100 -28.982800
O -13.989300 -22.877400 -28.656800
N -13.966100 -26.564300 -28.320100
H -13.145100 -24.418000 -27.188800
N -13.078900 -23.198300 -29.398200
O -12.912900 -22.841400 -30.551800
N -12.616600 -26.140500 -28.165500
C -12.391100 -24.783100 -27.649800
O -12.172400 -26.920100 -25.336500
H -12.167500 -26.814300 -29.965300
N -12.054600 -24.003100 -28.839400
C -11.733300 -26.344800 -29.309200
H -11.566700 -24.740800 -30.711000
H -11.340000 -24.535900 -25.839100
C -11.329800 -24.893300 -29.760400
N -11.237300 -27.237200 -26.062400
C -11.125000 -24.847500 -26.696000
O -10.849600 -28.369600 -26.306300
N -10.575800 -27.103400 -28.860600
O -10.535500 -28.122600 -30.842200
N -10.524700 -26.194900 -26.638000
N -10.023300 -24.101300 -27.282100
O -9.906200 -23.310800 -31.305800
N -9.897400 -27.822300 -29.845300
N -9.895100 -24.761000 -29.597900
C -9.744400 -26.450800 -27.842300
O -9.642300 -23.048700 -25.327300
C -9.360800 -24.985700 -28.261400
N -9.327000 -23.665300 -30.297700
N -9.136100 -23.462000 -26.341200
H -8.970900 -26.988400 -27.651100
O -8.746100 -28.145100 -29.599200
H -8.441700 -24.823600 -28.226800
O -8.287300 -23.209600 -29.856800
O -7.986700 -23.321800 -26.706100
72
Fragment
O -8.370100 -18.013300 -24.807300
O -8.069500 -17.901100 -21.656600
H -7.915100 -19.515100 -23.286600
O -7.610700 -22.836600 -21.914200
H -7.385900 -21.679900 -23.862300
N -7.220700 -18.153500 -25.172100
N -7.029800 -18.356800 -21.215700
C -6.996000 -19.677200 -23.252000
O -6.714500 -17.740200 -26.186100
C -6.612400 -21.142300 -23.671000
N -6.461700 -19.452500 -21.915500
N -6.459400 -22.513800 -21.668100
O -6.450600 -18.002300 -20.207500
N -6.333500 -18.792800 -24.231300
N -5.832100 -20.886400 -24.875400
O -5.821300 -22.814100 -20.671200
N -5.781000 -21.794900 -22.652800
O -5.507200 -23.061100 -25.207000
C -5.231800 -19.539000 -24.817300
N -5.119500 -21.928700 -25.451000
C -5.027000 -19.584800 -21.752900
H -5.016800 -19.227400 -25.674300
H -4.790100 -19.432300 -20.802400
C -4.623500 -21.036300 -22.204200
N -4.302200 -18.694600 -22.674000
H -4.189300 -21.505800 -21.548000
O -4.184400 -21.611600 -26.176900
C -3.965700 -19.474600 -23.863600
N -3.740200 -20.832000 -23.347900
O -3.443900 -17.532900 -20.961600
N -3.277900 -17.889800 -22.115200
H -3.211700 -19.109500 -24.324600
N -2.390700 -21.255800 -23.193300
O -2.367500 -17.568900 -22.856600
O -2.228800 -22.261600 -22.530500
O -1.545000 -20.620400 -23.796900
O -14.811800 -25.928900 -27.716500
O -14.128000 -27.570100 -28.982800
O -13.989300 -22.877400 -28.656800
N -13.966100 -26.564300 -28.320100
H -13.145100 -24.418000 -27.188800
N -13.078900 -23.198300 -29.398200
O -12.912900 -22.841400 -30.551800
N -12.616600 -26.140500 -28.165500
C -12.391100 -24.783100 -27.649800
O -12.172400 -26.920100 -25.336500
H -12.167500 -26.814300 -29.965300
N -12.054600 -24.003100 -28.839400
C -11.733300 -26.344800 -29.309200
H -11.566700 -24.740800 -30.711000
H -11.340000 -24.535900 -25.839100
C -11.329800 -24.893300 -29.760400
N -11.237300 -27.237200 -26.062400
C -11.125000 -24.847500 -26.696000
O -10.849600 -28.369600 -26.306300
N -10.575800 -27.103400 -28.860600
O -10.535500 -28.122600 -30.842200
N -10.524700 -26.194900 -26.638000
N -10.023300 -24.101300 -27.282100
O -9.906200 -23.310800 -31.305800
N -9.897400 -27.822300 -29.845300
N -9.895100 -24.761000 -29.597900
C -9.744400 -26.450800 -27.842300
O -9.642300 -23.048700 -25.327300
C -9.360800 -24.985700 -28.261400
N -9.327000 -23.665300 -30.297700
N -9.136100 -23.462000 -26.341200
H -8.970900 -26.988400 -27.651100
O -8.746100 -28.145100 -29.599200
H -8.441700 -24.823600 -28.226800
O -8.287300 -23.209600 -29.856800
O -7.986700 -23.321800 -26.706100
