36
Fragment
O -8.370100 -18.013300 -24.807300
O -8.069500 -17.901100 -21.656600
H -7.915100 -19.515100 -23.286600
O -7.610700 -22.836600 -21.914200
H -7.385900 -21.679900 -23.862300
N -7.220700 -18.153500 -25.172100
N -7.029800 -18.356800 -21.215700
C -6.996000 -19.677200 -23.252000
O -6.714500 -17.740200 -26.186100
C -6.612400 -21.142300 -23.671000
N -6.461700 -19.452500 -21.915500
N -6.459400 -22.513800 -21.668100
O -6.450600 -18.002300 -20.207500
N -6.333500 -18.792800 -24.231300
N -5.832100 -20.886400 -24.875400
O -5.821300 -22.814100 -20.671200
N -5.781000 -21.794900 -22.652800
O -5.507200 -23.061100 -25.207000
C -5.231800 -19.539000 -24.817300
N -5.119500 -21.928700 -25.451000
C -5.027000 -19.584800 -21.752900
H -5.016800 -19.227400 -25.674300
H -4.790100 -19.432300 -20.802400
C -4.623500 -21.036300 -22.204200
N -4.302200 -18.694600 -22.674000
H -4.189300 -21.505800 -21.548000
O -4.184400 -21.611600 -26.176900
C -3.965700 -19.474600 -23.863600
N -3.740200 -20.832000 -23.347900
O -3.443900 -17.532900 -20.961600
N -3.277900 -17.889800 -22.115200
H -3.211700 -19.109500 -24.324600
N -2.390700 -21.255800 -23.193300
O -2.367500 -17.568900 -22.856600
O -2.228800 -22.261600 -22.530500
O -1.545000 -20.620400 -23.796900
36
Fragment
O -6.387700 -15.311900 -27.716500
O -5.703900 -16.953100 -28.982800
O -5.565200 -12.260400 -28.656800
N -5.542000 -15.947300 -28.320100
H -4.721000 -13.801000 -27.188800
N -4.654800 -12.581300 -29.398200
O -4.488800 -12.224400 -30.551800
N -4.192500 -15.523500 -28.165500
C -3.967000 -14.166100 -27.649800
O -3.748300 -16.303100 -25.336500
H -3.743400 -16.197300 -29.965300
N -3.630500 -13.386100 -28.839400
C -3.309200 -15.727800 -29.309200
H -3.142600 -14.123800 -30.711000
H -2.915900 -13.918900 -25.839100
C -2.905700 -14.276300 -29.760400
N -2.813200 -16.620200 -26.062400
C -2.700900 -14.230500 -26.696000
O -2.425500 -17.752600 -26.306300
N -2.151700 -16.486400 -28.860600
O -2.111400 -17.505600 -30.842200
N -2.100600 -15.577900 -26.638000
N -1.599200 -13.484300 -27.282100
O -1.482100 -12.693800 -31.305800
N -1.473300 -17.205300 -29.845300
N -1.471000 -14.144000 -29.597900
C -1.320300 -15.833800 -27.842300
O -1.218200 -12.431700 -25.327300
C -0.936700 -14.368700 -28.261400
N -0.902900 -13.048300 -30.297700
N -0.712000 -12.845000 -26.341200
H -0.546800 -16.371400 -27.651100
O -0.322000 -17.528100 -29.599200
H -0.017600 -14.206600 -28.226800
O 0.136800 -12.592600 -29.856800
O 0.437400 -12.704800 -26.706100
72
Fragment
O -8.370100 -18.013300 -24.807300
O -8.069500 -17.901100 -21.656600
H -7.915100 -19.515100 -23.286600
O -7.610700 -22.836600 -21.914200
H -7.385900 -21.679900 -23.862300
N -7.220700 -18.153500 -25.172100
N -7.029800 -18.356800 -21.215700
C -6.996000 -19.677200 -23.252000
O -6.714500 -17.740200 -26.186100
C -6.612400 -21.142300 -23.671000
N -6.461700 -19.452500 -21.915500
N -6.459400 -22.513800 -21.668100
O -6.450600 -18.002300 -20.207500
N -6.333500 -18.792800 -24.231300
N -5.832100 -20.886400 -24.875400
O -5.821300 -22.814100 -20.671200
N -5.781000 -21.794900 -22.652800
O -5.507200 -23.061100 -25.207000
C -5.231800 -19.539000 -24.817300
N -5.119500 -21.928700 -25.451000
C -5.027000 -19.584800 -21.752900
H -5.016800 -19.227400 -25.674300
H -4.790100 -19.432300 -20.802400
C -4.623500 -21.036300 -22.204200
N -4.302200 -18.694600 -22.674000
H -4.189300 -21.505800 -21.548000
O -4.184400 -21.611600 -26.176900
C -3.965700 -19.474600 -23.863600
N -3.740200 -20.832000 -23.347900
O -3.443900 -17.532900 -20.961600
N -3.277900 -17.889800 -22.115200
H -3.211700 -19.109500 -24.324600
N -2.390700 -21.255800 -23.193300
O -2.367500 -17.568900 -22.856600
O -2.228800 -22.261600 -22.530500
O -1.545000 -20.620400 -23.796900
O -6.387700 -15.311900 -27.716500
O -5.703900 -16.953100 -28.982800
O -5.565200 -12.260400 -28.656800
N -5.542000 -15.947300 -28.320100
H -4.721000 -13.801000 -27.188800
N -4.654800 -12.581300 -29.398200
O -4.488800 -12.224400 -30.551800
N -4.192500 -15.523500 -28.165500
C -3.967000 -14.166100 -27.649800
O -3.748300 -16.303100 -25.336500
H -3.743400 -16.197300 -29.965300
N -3.630500 -13.386100 -28.839400
C -3.309200 -15.727800 -29.309200
H -3.142600 -14.123800 -30.711000
H -2.915900 -13.918900 -25.839100
C -2.905700 -14.276300 -29.760400
N -2.813200 -16.620200 -26.062400
C -2.700900 -14.230500 -26.696000
O -2.425500 -17.752600 -26.306300
N -2.151700 -16.486400 -28.860600
O -2.111400 -17.505600 -30.842200
N -2.100600 -15.577900 -26.638000
N -1.599200 -13.484300 -27.282100
O -1.482100 -12.693800 -31.305800
N -1.473300 -17.205300 -29.845300
N -1.471000 -14.144000 -29.597900
C -1.320300 -15.833800 -27.842300
O -1.218200 -12.431700 -25.327300
C -0.936700 -14.368700 -28.261400
N -0.902900 -13.048300 -30.297700
N -0.712000 -12.845000 -26.341200
H -0.546800 -16.371400 -27.651100
O -0.322000 -17.528100 -29.599200
H -0.017600 -14.206600 -28.226800
O 0.136800 -12.592600 -29.856800
O 0.437400 -12.704800 -26.706100
