36
Fragment
O -8.370100 -18.013300 -24.807300
O -8.069500 -17.901100 -21.656600
H -7.915100 -19.515100 -23.286600
O -7.610700 -22.836600 -21.914200
H -7.385900 -21.679900 -23.862300
N -7.220700 -18.153500 -25.172100
N -7.029800 -18.356800 -21.215700
C -6.996000 -19.677200 -23.252000
O -6.714500 -17.740200 -26.186100
C -6.612400 -21.142300 -23.671000
N -6.461700 -19.452500 -21.915500
N -6.459400 -22.513800 -21.668100
O -6.450600 -18.002300 -20.207500
N -6.333500 -18.792800 -24.231300
N -5.832100 -20.886400 -24.875400
O -5.821300 -22.814100 -20.671200
N -5.781000 -21.794900 -22.652800
O -5.507200 -23.061100 -25.207000
C -5.231800 -19.539000 -24.817300
N -5.119500 -21.928700 -25.451000
C -5.027000 -19.584800 -21.752900
H -5.016800 -19.227400 -25.674300
H -4.790100 -19.432300 -20.802400
C -4.623500 -21.036300 -22.204200
N -4.302200 -18.694600 -22.674000
H -4.189300 -21.505800 -21.548000
O -4.184400 -21.611600 -26.176900
C -3.965700 -19.474600 -23.863600
N -3.740200 -20.832000 -23.347900
O -3.443900 -17.532900 -20.961600
N -3.277900 -17.889800 -22.115200
H -3.211700 -19.109500 -24.324600
N -2.390700 -21.255800 -23.193300
O -2.367500 -17.568900 -22.856600
O -2.228800 -22.261600 -22.530500
O -1.545000 -20.620400 -23.796900
19
Fragment
H -2.895300 -19.875000 -31.117900
H -2.699200 -21.318900 -31.423200
N -2.373700 -20.465400 -31.525200
N -2.164700 -20.728600 -28.831300
O -1.782000 -20.713700 -27.488200
N -1.115200 -20.369100 -30.875600
C -1.064700 -20.479400 -29.496800
N -0.441000 -20.464400 -27.352600
N -0.172100 -20.403600 -33.009900
C -0.029000 -20.314700 -31.708400
C 0.020000 -20.327000 -28.567500
O 1.118200 -20.309000 -33.524500
C 1.368700 -20.164100 -31.410300
C 1.421800 -20.084100 -28.848000
C 2.023100 -20.000200 -30.122200
N 2.045700 -20.169800 -32.527100
N 2.333700 -19.925700 -27.930200
N 3.306200 -19.780300 -29.981900
O 3.510400 -19.736000 -28.618400
55
Fragment
O -8.370100 -18.013300 -24.807300
O -8.069500 -17.901100 -21.656600
H -7.915100 -19.515100 -23.286600
O -7.610700 -22.836600 -21.914200
H -7.385900 -21.679900 -23.862300
N -7.220700 -18.153500 -25.172100
N -7.029800 -18.356800 -21.215700
C -6.996000 -19.677200 -23.252000
O -6.714500 -17.740200 -26.186100
C -6.612400 -21.142300 -23.671000
N -6.461700 -19.452500 -21.915500
N -6.459400 -22.513800 -21.668100
O -6.450600 -18.002300 -20.207500
N -6.333500 -18.792800 -24.231300
N -5.832100 -20.886400 -24.875400
O -5.821300 -22.814100 -20.671200
N -5.781000 -21.794900 -22.652800
O -5.507200 -23.061100 -25.207000
C -5.231800 -19.539000 -24.817300
N -5.119500 -21.928700 -25.451000
C -5.027000 -19.584800 -21.752900
H -5.016800 -19.227400 -25.674300
H -4.790100 -19.432300 -20.802400
C -4.623500 -21.036300 -22.204200
N -4.302200 -18.694600 -22.674000
H -4.189300 -21.505800 -21.548000
O -4.184400 -21.611600 -26.176900
C -3.965700 -19.474600 -23.863600
N -3.740200 -20.832000 -23.347900
O -3.443900 -17.532900 -20.961600
N -3.277900 -17.889800 -22.115200
H -3.211700 -19.109500 -24.324600
N -2.390700 -21.255800 -23.193300
O -2.367500 -17.568900 -22.856600
O -2.228800 -22.261600 -22.530500
O -1.545000 -20.620400 -23.796900
H -2.895300 -19.875000 -31.117900
H -2.699200 -21.318900 -31.423200
N -2.373700 -20.465400 -31.525200
N -2.164700 -20.728600 -28.831300
O -1.782000 -20.713700 -27.488200
N -1.115200 -20.369100 -30.875600
C -1.064700 -20.479400 -29.496800
N -0.441000 -20.464400 -27.352600
N -0.172100 -20.403600 -33.009900
C -0.029000 -20.314700 -31.708400
C 0.020000 -20.327000 -28.567500
O 1.118200 -20.309000 -33.524500
C 1.368700 -20.164100 -31.410300
C 1.421800 -20.084100 -28.848000
C 2.023100 -20.000200 -30.122200
N 2.045700 -20.169800 -32.527100
N 2.333700 -19.925700 -27.930200
N 3.306200 -19.780300 -29.981900
O 3.510400 -19.736000 -28.618400
