36
Fragment
O -8.370100 -18.013300 -24.807300
O -8.069500 -17.901100 -21.656600
H -7.915100 -19.515100 -23.286600
O -7.610700 -22.836600 -21.914200
H -7.385900 -21.679900 -23.862300
N -7.220700 -18.153500 -25.172100
N -7.029800 -18.356800 -21.215700
C -6.996000 -19.677200 -23.252000
O -6.714500 -17.740200 -26.186100
C -6.612400 -21.142300 -23.671000
N -6.461700 -19.452500 -21.915500
N -6.459400 -22.513800 -21.668100
O -6.450600 -18.002300 -20.207500
N -6.333500 -18.792800 -24.231300
N -5.832100 -20.886400 -24.875400
O -5.821300 -22.814100 -20.671200
N -5.781000 -21.794900 -22.652800
O -5.507200 -23.061100 -25.207000
C -5.231800 -19.539000 -24.817300
N -5.119500 -21.928700 -25.451000
C -5.027000 -19.584800 -21.752900
H -5.016800 -19.227400 -25.674300
H -4.790100 -19.432300 -20.802400
C -4.623500 -21.036300 -22.204200
N -4.302200 -18.694600 -22.674000
H -4.189300 -21.505800 -21.548000
O -4.184400 -21.611600 -26.176900
C -3.965700 -19.474600 -23.863600
N -3.740200 -20.832000 -23.347900
O -3.443900 -17.532900 -20.961600
N -3.277900 -17.889800 -22.115200
H -3.211700 -19.109500 -24.324600
N -2.390700 -21.255800 -23.193300
O -2.367500 -17.568900 -22.856600
O -2.228800 -22.261600 -22.530500
O -1.545000 -20.620400 -23.796900
36
Fragment
O -14.811800 -15.311900 -27.716500
O -14.128000 -16.953100 -28.982800
O -13.989300 -12.260400 -28.656800
N -13.966100 -15.947300 -28.320100
H -13.145100 -13.801000 -27.188800
N -13.078900 -12.581300 -29.398200
O -12.912900 -12.224400 -30.551800
N -12.616600 -15.523500 -28.165500
C -12.391100 -14.166100 -27.649800
O -12.172400 -16.303100 -25.336500
H -12.167500 -16.197300 -29.965300
N -12.054600 -13.386100 -28.839400
C -11.733300 -15.727800 -29.309200
H -11.566700 -14.123800 -30.711000
H -11.340000 -13.918900 -25.839100
C -11.329800 -14.276300 -29.760400
N -11.237300 -16.620200 -26.062400
C -11.125000 -14.230500 -26.696000
O -10.849600 -17.752600 -26.306300
N -10.575800 -16.486400 -28.860600
O -10.535500 -17.505600 -30.842200
N -10.524700 -15.577900 -26.638000
N -10.023300 -13.484300 -27.282100
O -9.906200 -12.693800 -31.305800
N -9.897400 -17.205300 -29.845300
N -9.895100 -14.144000 -29.597900
C -9.744400 -15.833800 -27.842300
O -9.642300 -12.431700 -25.327300
C -9.360800 -14.368700 -28.261400
N -9.327000 -13.048300 -30.297700
N -9.136100 -12.845000 -26.341200
H -8.970900 -16.371400 -27.651100
O -8.746100 -17.528100 -29.599200
H -8.441700 -14.206600 -28.226800
O -8.287300 -12.592600 -29.856800
O -7.986700 -12.704800 -26.706100
72
Fragment
O -8.370100 -18.013300 -24.807300
O -8.069500 -17.901100 -21.656600
H -7.915100 -19.515100 -23.286600
O -7.610700 -22.836600 -21.914200
H -7.385900 -21.679900 -23.862300
N -7.220700 -18.153500 -25.172100
N -7.029800 -18.356800 -21.215700
C -6.996000 -19.677200 -23.252000
O -6.714500 -17.740200 -26.186100
C -6.612400 -21.142300 -23.671000
N -6.461700 -19.452500 -21.915500
N -6.459400 -22.513800 -21.668100
O -6.450600 -18.002300 -20.207500
N -6.333500 -18.792800 -24.231300
N -5.832100 -20.886400 -24.875400
O -5.821300 -22.814100 -20.671200
N -5.781000 -21.794900 -22.652800
O -5.507200 -23.061100 -25.207000
C -5.231800 -19.539000 -24.817300
N -5.119500 -21.928700 -25.451000
C -5.027000 -19.584800 -21.752900
H -5.016800 -19.227400 -25.674300
H -4.790100 -19.432300 -20.802400
C -4.623500 -21.036300 -22.204200
N -4.302200 -18.694600 -22.674000
H -4.189300 -21.505800 -21.548000
O -4.184400 -21.611600 -26.176900
C -3.965700 -19.474600 -23.863600
N -3.740200 -20.832000 -23.347900
O -3.443900 -17.532900 -20.961600
N -3.277900 -17.889800 -22.115200
H -3.211700 -19.109500 -24.324600
N -2.390700 -21.255800 -23.193300
O -2.367500 -17.568900 -22.856600
O -2.228800 -22.261600 -22.530500
O -1.545000 -20.620400 -23.796900
O -14.811800 -15.311900 -27.716500
O -14.128000 -16.953100 -28.982800
O -13.989300 -12.260400 -28.656800
N -13.966100 -15.947300 -28.320100
H -13.145100 -13.801000 -27.188800
N -13.078900 -12.581300 -29.398200
O -12.912900 -12.224400 -30.551800
N -12.616600 -15.523500 -28.165500
C -12.391100 -14.166100 -27.649800
O -12.172400 -16.303100 -25.336500
H -12.167500 -16.197300 -29.965300
N -12.054600 -13.386100 -28.839400
C -11.733300 -15.727800 -29.309200
H -11.566700 -14.123800 -30.711000
H -11.340000 -13.918900 -25.839100
C -11.329800 -14.276300 -29.760400
N -11.237300 -16.620200 -26.062400
C -11.125000 -14.230500 -26.696000
O -10.849600 -17.752600 -26.306300
N -10.575800 -16.486400 -28.860600
O -10.535500 -17.505600 -30.842200
N -10.524700 -15.577900 -26.638000
N -10.023300 -13.484300 -27.282100
O -9.906200 -12.693800 -31.305800
N -9.897400 -17.205300 -29.845300
N -9.895100 -14.144000 -29.597900
C -9.744400 -15.833800 -27.842300
O -9.642300 -12.431700 -25.327300
C -9.360800 -14.368700 -28.261400
N -9.327000 -13.048300 -30.297700
N -9.136100 -12.845000 -26.341200
H -8.970900 -16.371400 -27.651100
O -8.746100 -17.528100 -29.599200
H -8.441700 -14.206600 -28.226800
O -8.287300 -12.592600 -29.856800
O -7.986700 -12.704800 -26.706100
