15
Fragment
H -4.561800 -33.611500 -13.241600
H -4.174000 -33.111100 -14.613300
N -4.079400 -33.672400 -13.946700
C -3.230400 -34.660100 -14.142400
N -3.192800 -35.632500 -13.221500
H -2.436700 -34.090100 -15.866100
C -2.389700 -34.718800 -15.265300
H -2.318600 -37.309800 -12.638100
C -2.317500 -36.626700 -13.337600
C -1.514300 -35.726100 -15.387900
C -1.454000 -36.681100 -14.392900
H -0.987300 -35.808700 -16.222800
N -0.465800 -37.723200 -14.421300
O -0.447900 -38.539000 -13.524200
O 0.330700 -37.716600 -15.350400
15
Fragment
H -5.843500 -42.531000 -17.814000
H -5.455700 -43.031400 -19.185700
N -5.361100 -42.470100 -18.519000
C -4.512100 -41.482400 -18.714700
N -4.474500 -40.510000 -17.793900
H -3.718400 -42.052400 -20.438500
C -3.671400 -41.423700 -19.837700
H -3.600300 -38.832700 -17.210400
C -3.599200 -39.515800 -17.910000
C -2.796000 -40.416400 -19.960300
C -2.735700 -39.461400 -18.965300
H -2.269000 -40.333800 -20.795200
N -1.747500 -38.419300 -18.993700
O -1.729600 -37.603500 -18.096600
O -0.951000 -38.425900 -19.922800
30
Fragment
H -4.561800 -33.611500 -13.241600
H -4.174000 -33.111100 -14.613300
N -4.079400 -33.672400 -13.946700
C -3.230400 -34.660100 -14.142400
N -3.192800 -35.632500 -13.221500
H -2.436700 -34.090100 -15.866100
C -2.389700 -34.718800 -15.265300
H -2.318600 -37.309800 -12.638100
C -2.317500 -36.626700 -13.337600
C -1.514300 -35.726100 -15.387900
C -1.454000 -36.681100 -14.392900
H -0.987300 -35.808700 -16.222800
N -0.465800 -37.723200 -14.421300
O -0.447900 -38.539000 -13.524200
O 0.330700 -37.716600 -15.350400
H -5.843500 -42.531000 -17.814000
H -5.455700 -43.031400 -19.185700
N -5.361100 -42.470100 -18.519000
C -4.512100 -41.482400 -18.714700
N -4.474500 -40.510000 -17.793900
H -3.718400 -42.052400 -20.438500
C -3.671400 -41.423700 -19.837700
H -3.600300 -38.832700 -17.210400
C -3.599200 -39.515800 -17.910000
C -2.796000 -40.416400 -19.960300
C -2.735700 -39.461400 -18.965300
H -2.269000 -40.333800 -20.795200
N -1.747500 -38.419300 -18.993700
O -1.729600 -37.603500 -18.096600
O -0.951000 -38.425900 -19.922800
