15
Fragment
H -4.561800 -33.611500 -13.241600
H -4.174000 -33.111100 -14.613300
N -4.079400 -33.672400 -13.946700
C -3.230400 -34.660100 -14.142400
N -3.192800 -35.632500 -13.221500
H -2.436700 -34.090100 -15.866100
C -2.389700 -34.718800 -15.265300
H -2.318600 -37.309800 -12.638100
C -2.317500 -36.626700 -13.337600
C -1.514300 -35.726100 -15.387900
C -1.454000 -36.681100 -14.392900
H -0.987300 -35.808700 -16.222800
N -0.465800 -37.723200 -14.421300
O -0.447900 -38.539000 -13.524200
O 0.330700 -37.716600 -15.350400
15
Fragment
H -8.137100 -42.531000 -8.669200
H -7.749300 -43.031400 -10.040900
N -7.654700 -42.470100 -9.374300
C -6.805700 -41.482400 -9.570000
N -6.768100 -40.510000 -8.649100
H -6.012000 -42.052400 -11.293800
C -5.965000 -41.423700 -10.693000
H -5.893900 -38.832700 -8.065700
C -5.892900 -39.515800 -8.765200
C -5.089600 -40.416400 -10.815500
C -5.029300 -39.461400 -9.820600
H -4.562600 -40.333800 -11.650400
N -4.041100 -38.419300 -9.848900
O -4.023200 -37.603500 -8.951800
O -3.244600 -38.425900 -10.778000
30
Fragment
H -4.561800 -33.611500 -13.241600
H -4.174000 -33.111100 -14.613300
N -4.079400 -33.672400 -13.946700
C -3.230400 -34.660100 -14.142400
N -3.192800 -35.632500 -13.221500
H -2.436700 -34.090100 -15.866100
C -2.389700 -34.718800 -15.265300
H -2.318600 -37.309800 -12.638100
C -2.317500 -36.626700 -13.337600
C -1.514300 -35.726100 -15.387900
C -1.454000 -36.681100 -14.392900
H -0.987300 -35.808700 -16.222800
N -0.465800 -37.723200 -14.421300
O -0.447900 -38.539000 -13.524200
O 0.330700 -37.716600 -15.350400
H -8.137100 -42.531000 -8.669200
H -7.749300 -43.031400 -10.040900
N -7.654700 -42.470100 -9.374300
C -6.805700 -41.482400 -9.570000
N -6.768100 -40.510000 -8.649100
H -6.012000 -42.052400 -11.293800
C -5.965000 -41.423700 -10.693000
H -5.893900 -38.832700 -8.065700
C -5.892900 -39.515800 -8.765200
C -5.089600 -40.416400 -10.815500
C -5.029300 -39.461400 -9.820600
H -4.562600 -40.333800 -11.650400
N -4.041100 -38.419300 -9.848900
O -4.023200 -37.603500 -8.951800
O -3.244600 -38.425900 -10.778000
