6
Fragment
H -11.206400 -25.440600 -17.732600
O -10.738900 -25.598500 -17.093600
C -9.367900 -25.342000 -17.303200
H -9.257400 -24.357300 -17.398700
H -9.011200 -25.758200 -18.100300
H -8.849200 -25.610400 -16.498700
22
Fragment
H -10.826000 -31.088500 -13.923600
C -10.143900 -30.628300 -14.429200
N -10.056300 -30.801700 -15.763300
H -9.350000 -30.926600 -18.461000
N -9.251600 -29.798400 -13.856400
C -8.991100 -29.996300 -16.082500
H -8.950100 -29.758300 -20.385900
N -8.709700 -30.273600 -18.470200
C -8.512900 -29.387900 -14.917600
C -8.357600 -29.738300 -17.307800
C -8.182700 -29.848200 -19.772800
H -8.105400 -27.805400 -19.475400
H -7.563500 -30.535000 -20.116200
N -7.474300 -28.491100 -14.870900
C -7.435000 -28.533400 -19.626800
N -7.294300 -28.877500 -17.224600
C -6.921700 -28.285800 -16.031100
H -6.917300 -28.343200 -20.431400
C -6.497900 -28.613000 -18.438000
H -6.198600 -27.648200 -16.082000
H -6.004700 -27.789700 -18.309200
H -5.870600 -29.365200 -18.529800
28
Fragment
H -11.206400 -25.440600 -17.732600
O -10.738900 -25.598500 -17.093600
C -9.367900 -25.342000 -17.303200
H -9.257400 -24.357300 -17.398700
H -9.011200 -25.758200 -18.100300
H -8.849200 -25.610400 -16.498700
H -10.826000 -31.088500 -13.923600
C -10.143900 -30.628300 -14.429200
N -10.056300 -30.801700 -15.763300
H -9.350000 -30.926600 -18.461000
N -9.251600 -29.798400 -13.856400
C -8.991100 -29.996300 -16.082500
H -8.950100 -29.758300 -20.385900
N -8.709700 -30.273600 -18.470200
C -8.512900 -29.387900 -14.917600
C -8.357600 -29.738300 -17.307800
C -8.182700 -29.848200 -19.772800
H -8.105400 -27.805400 -19.475400
H -7.563500 -30.535000 -20.116200
N -7.474300 -28.491100 -14.870900
C -7.435000 -28.533400 -19.626800
N -7.294300 -28.877500 -17.224600
C -6.921700 -28.285800 -16.031100
H -6.917300 -28.343200 -20.431400
C -6.497900 -28.613000 -18.438000
H -6.198600 -27.648200 -16.082000
H -6.004700 -27.789700 -18.309200
H -5.870600 -29.365200 -18.529800
