6
Fragment
H -11.206400 -25.440600 -17.732600
O -10.738900 -25.598500 -17.093600
C -9.367900 -25.342000 -17.303200
H -9.257400 -24.357300 -17.398700
H -9.011200 -25.758200 -18.100300
H -8.849200 -25.610400 -16.498700
22
Fragment
H -13.392600 -23.943700 -19.760200
C -12.710500 -24.404000 -20.265700
N -12.622900 -24.230500 -21.599900
H -11.916600 -24.105700 -24.297500
N -11.818200 -25.233900 -19.692900
C -11.557800 -25.035900 -21.919000
H -11.516700 -25.274000 -26.222400
N -11.276300 -24.758700 -24.306700
C -11.079600 -25.644400 -20.754100
C -10.924300 -25.293900 -23.144300
C -10.749300 -25.184000 -25.609300
H -10.672000 -27.226800 -25.311900
H -10.130100 -24.497200 -25.952700
N -10.040900 -26.541100 -20.707400
C -10.001600 -26.498800 -25.463300
N -9.860900 -26.154800 -23.061100
C -9.488400 -26.746500 -21.867600
H -9.483900 -26.689100 -26.267900
C -9.064500 -26.419300 -24.274500
H -8.765200 -27.384000 -21.918500
H -8.571300 -27.242500 -24.145700
H -8.437200 -25.667000 -24.366400
28
Fragment
H -11.206400 -25.440600 -17.732600
O -10.738900 -25.598500 -17.093600
C -9.367900 -25.342000 -17.303200
H -9.257400 -24.357300 -17.398700
H -9.011200 -25.758200 -18.100300
H -8.849200 -25.610400 -16.498700
H -13.392600 -23.943700 -19.760200
C -12.710500 -24.404000 -20.265700
N -12.622900 -24.230500 -21.599900
H -11.916600 -24.105700 -24.297500
N -11.818200 -25.233900 -19.692900
C -11.557800 -25.035900 -21.919000
H -11.516700 -25.274000 -26.222400
N -11.276300 -24.758700 -24.306700
C -11.079600 -25.644400 -20.754100
C -10.924300 -25.293900 -23.144300
C -10.749300 -25.184000 -25.609300
H -10.672000 -27.226800 -25.311900
H -10.130100 -24.497200 -25.952700
N -10.040900 -26.541100 -20.707400
C -10.001600 -26.498800 -25.463300
N -9.860900 -26.154800 -23.061100
C -9.488400 -26.746500 -21.867600
H -9.483900 -26.689100 -26.267900
C -9.064500 -26.419300 -24.274500
H -8.765200 -27.384000 -21.918500
H -8.571300 -27.242500 -24.145700
H -8.437200 -25.667000 -24.366400
