6
Fragment
H -11.206400 -25.440600 -17.732600
O -10.738900 -25.598500 -17.093600
C -9.367900 -25.342000 -17.303200
H -9.257400 -24.357300 -17.398700
H -9.011200 -25.758200 -18.100300
H -8.849200 -25.610400 -16.498700
22
Fragment
H -16.238000 -31.088500 -13.923600
C -15.555900 -30.628300 -14.429200
N -15.468300 -30.801700 -15.763300
H -14.762000 -30.926600 -18.461000
N -14.663600 -29.798400 -13.856400
C -14.403100 -29.996300 -16.082500
H -14.362100 -29.758300 -20.385900
N -14.121700 -30.273600 -18.470200
C -13.924900 -29.387900 -14.917600
C -13.769600 -29.738300 -17.307800
C -13.594700 -29.848200 -19.772800
H -13.517400 -27.805400 -19.475400
H -12.975500 -30.535000 -20.116200
N -12.886300 -28.491100 -14.870900
C -12.847000 -28.533400 -19.626800
N -12.706300 -28.877500 -17.224600
C -12.333700 -28.285800 -16.031100
H -12.329300 -28.343200 -20.431400
C -11.909900 -28.613000 -18.438000
H -11.610600 -27.648200 -16.082000
H -11.416700 -27.789700 -18.309200
H -11.282600 -29.365200 -18.529800
28
Fragment
H -11.206400 -25.440600 -17.732600
O -10.738900 -25.598500 -17.093600
C -9.367900 -25.342000 -17.303200
H -9.257400 -24.357300 -17.398700
H -9.011200 -25.758200 -18.100300
H -8.849200 -25.610400 -16.498700
H -16.238000 -31.088500 -13.923600
C -15.555900 -30.628300 -14.429200
N -15.468300 -30.801700 -15.763300
H -14.762000 -30.926600 -18.461000
N -14.663600 -29.798400 -13.856400
C -14.403100 -29.996300 -16.082500
H -14.362100 -29.758300 -20.385900
N -14.121700 -30.273600 -18.470200
C -13.924900 -29.387900 -14.917600
C -13.769600 -29.738300 -17.307800
C -13.594700 -29.848200 -19.772800
H -13.517400 -27.805400 -19.475400
H -12.975500 -30.535000 -20.116200
N -12.886300 -28.491100 -14.870900
C -12.847000 -28.533400 -19.626800
N -12.706300 -28.877500 -17.224600
C -12.333700 -28.285800 -16.031100
H -12.329300 -28.343200 -20.431400
C -11.909900 -28.613000 -18.438000
H -11.610600 -27.648200 -16.082000
H -11.416700 -27.789700 -18.309200
H -11.282600 -29.365200 -18.529800
