39
Fragment
O -15.170900 -14.379200 -25.515700
H -14.791800 -15.879600 -24.184100
O -14.324900 -14.946100 -27.435900
H -14.225600 -16.576500 -22.863200
N -14.181700 -14.575100 -26.237300
C -13.983400 -16.116100 -23.687300
O -13.730600 -12.100500 -22.782200
H -13.431900 -16.715500 -24.242200
H -13.378700 -15.391800 -21.417000
H -13.314000 -13.815300 -21.666200
N -13.215900 -14.903200 -23.376900
C -12.951600 -14.692600 -21.944400
C -12.911600 -14.354800 -25.723600
C -12.758900 -14.093200 -24.306400
N -12.524000 -11.971900 -23.136900
H -12.485900 -14.988900 -28.114700
H -11.985100 -14.695500 -21.777800
C -11.965800 -12.921700 -23.977700
O -11.860900 -10.978600 -22.754700
C -11.774000 -14.140500 -26.562900
N -11.748100 -14.572100 -27.808900
H -11.155900 -14.390300 -28.237000
C -10.845300 -12.623800 -24.807900
H -10.751900 -9.110900 -25.931600
C -10.655400 -13.473100 -25.956000
H -10.265400 -11.160400 -23.834000
N -10.072600 -11.581000 -24.546500
C -9.881500 -9.552900 -25.838300
H -9.559800 -9.773100 -26.766300
N -9.349900 -13.716200 -26.437600
H -9.239400 -8.935700 -25.445400
O -9.180400 -14.090200 -27.608700
C -9.172800 -10.833000 -25.437800
H -8.974800 -11.341500 -26.263300
O -8.394200 -13.600900 -25.653300
H -8.033100 -10.057700 -23.899800
C -7.866800 -10.581000 -24.713100
H -7.452400 -11.439800 -24.453200
H -7.242300 -10.093900 -25.287900
39
Fragment
O -18.327200 -11.489300 -17.871700
H -17.948100 -9.988900 -16.540100
O -17.481100 -10.922400 -19.791900
H -17.381800 -9.292000 -15.219200
N -17.338000 -11.293400 -18.593300
C -17.139600 -9.752400 -16.043300
O -16.886900 -13.768000 -15.138200
H -16.588100 -9.153000 -16.598200
H -16.535000 -10.476700 -13.773000
H -16.470300 -12.053200 -14.022200
N -16.372100 -10.965300 -15.732900
C -16.107800 -11.175900 -14.300400
C -16.067800 -11.513700 -18.079600
C -15.915200 -11.775300 -16.662400
N -15.680200 -13.896600 -15.492900
H -15.642200 -10.879600 -20.470700
H -15.141400 -11.173000 -14.133800
C -15.122000 -12.946800 -16.333700
O -15.017200 -14.889900 -15.110700
C -14.930300 -11.728000 -18.918900
N -14.904400 -11.296400 -20.164900
H -14.312200 -11.478200 -20.593000
C -14.001600 -13.244700 -17.163900
H -13.908200 -16.757600 -18.287500
C -13.811700 -12.395400 -18.312000
H -13.421600 -14.708100 -16.190000
N -13.228800 -14.287500 -16.902400
C -13.037700 -16.315600 -18.194300
H -12.716000 -16.095400 -19.122300
N -12.506100 -12.152300 -18.793600
H -12.395700 -16.932800 -17.801400
O -12.336600 -11.778300 -19.964600
C -12.329100 -15.035500 -17.793700
H -12.131100 -14.527000 -18.619300
O -11.550400 -12.267600 -18.009300
H -11.189400 -15.810800 -16.255800
C -11.023100 -15.287500 -17.069100
H -10.608600 -14.428700 -16.809200
H -10.398500 -15.774600 -17.643900
78
Fragment
O -15.170900 -14.379200 -25.515700
H -14.791800 -15.879600 -24.184100
O -14.324900 -14.946100 -27.435900
H -14.225600 -16.576500 -22.863200
N -14.181700 -14.575100 -26.237300
C -13.983400 -16.116100 -23.687300
O -13.730600 -12.100500 -22.782200
H -13.431900 -16.715500 -24.242200
H -13.378700 -15.391800 -21.417000
H -13.314000 -13.815300 -21.666200
N -13.215900 -14.903200 -23.376900
C -12.951600 -14.692600 -21.944400
C -12.911600 -14.354800 -25.723600
C -12.758900 -14.093200 -24.306400
N -12.524000 -11.971900 -23.136900
H -12.485900 -14.988900 -28.114700
H -11.985100 -14.695500 -21.777800
C -11.965800 -12.921700 -23.977700
O -11.860900 -10.978600 -22.754700
C -11.774000 -14.140500 -26.562900
N -11.748100 -14.572100 -27.808900
H -11.155900 -14.390300 -28.237000
C -10.845300 -12.623800 -24.807900
H -10.751900 -9.110900 -25.931600
C -10.655400 -13.473100 -25.956000
H -10.265400 -11.160400 -23.834000
N -10.072600 -11.581000 -24.546500
C -9.881500 -9.552900 -25.838300
H -9.559800 -9.773100 -26.766300
N -9.349900 -13.716200 -26.437600
H -9.239400 -8.935700 -25.445400
O -9.180400 -14.090200 -27.608700
C -9.172800 -10.833000 -25.437800
H -8.974800 -11.341500 -26.263300
O -8.394200 -13.600900 -25.653300
H -8.033100 -10.057700 -23.899800
C -7.866800 -10.581000 -24.713100
H -7.452400 -11.439800 -24.453200
H -7.242300 -10.093900 -25.287900
O -18.327200 -11.489300 -17.871700
H -17.948100 -9.988900 -16.540100
O -17.481100 -10.922400 -19.791900
H -17.381800 -9.292000 -15.219200
N -17.338000 -11.293400 -18.593300
C -17.139600 -9.752400 -16.043300
O -16.886900 -13.768000 -15.138200
H -16.588100 -9.153000 -16.598200
H -16.535000 -10.476700 -13.773000
H -16.470300 -12.053200 -14.022200
N -16.372100 -10.965300 -15.732900
C -16.107800 -11.175900 -14.300400
C -16.067800 -11.513700 -18.079600
C -15.915200 -11.775300 -16.662400
N -15.680200 -13.896600 -15.492900
H -15.642200 -10.879600 -20.470700
H -15.141400 -11.173000 -14.133800
C -15.122000 -12.946800 -16.333700
O -15.017200 -14.889900 -15.110700
C -14.930300 -11.728000 -18.918900
N -14.904400 -11.296400 -20.164900
H -14.312200 -11.478200 -20.593000
C -14.001600 -13.244700 -17.163900
H -13.908200 -16.757600 -18.287500
C -13.811700 -12.395400 -18.312000
H -13.421600 -14.708100 -16.190000
N -13.228800 -14.287500 -16.902400
C -13.037700 -16.315600 -18.194300
H -12.716000 -16.095400 -19.122300
N -12.506100 -12.152300 -18.793600
H -12.395700 -16.932800 -17.801400
O -12.336600 -11.778300 -19.964600
C -12.329100 -15.035500 -17.793700
H -12.131100 -14.527000 -18.619300
O -11.550400 -12.267600 -18.009300
H -11.189400 -15.810800 -16.255800
C -11.023100 -15.287500 -17.069100
H -10.608600 -14.428700 -16.809200
H -10.398500 -15.774600 -17.643900
