39
Fragment
O -15.170900 -14.379200 -25.515700
H -14.791800 -15.879600 -24.184100
O -14.324900 -14.946100 -27.435900
H -14.225600 -16.576500 -22.863200
N -14.181700 -14.575100 -26.237300
C -13.983400 -16.116100 -23.687300
O -13.730600 -12.100500 -22.782200
H -13.431900 -16.715500 -24.242200
H -13.378700 -15.391800 -21.417000
H -13.314000 -13.815300 -21.666200
N -13.215900 -14.903200 -23.376900
C -12.951600 -14.692600 -21.944400
C -12.911600 -14.354800 -25.723600
C -12.758900 -14.093200 -24.306400
N -12.524000 -11.971900 -23.136900
H -12.485900 -14.988900 -28.114700
H -11.985100 -14.695500 -21.777800
C -11.965800 -12.921700 -23.977700
O -11.860900 -10.978600 -22.754700
C -11.774000 -14.140500 -26.562900
N -11.748100 -14.572100 -27.808900
H -11.155900 -14.390300 -28.237000
C -10.845300 -12.623800 -24.807900
H -10.751900 -9.110900 -25.931600
C -10.655400 -13.473100 -25.956000
H -10.265400 -11.160400 -23.834000
N -10.072600 -11.581000 -24.546500
C -9.881500 -9.552900 -25.838300
H -9.559800 -9.773100 -26.766300
N -9.349900 -13.716200 -26.437600
H -9.239400 -8.935700 -25.445400
O -9.180400 -14.090200 -27.608700
C -9.172800 -10.833000 -25.437800
H -8.974800 -11.341500 -26.263300
O -8.394200 -13.600900 -25.653300
H -8.033100 -10.057700 -23.899800
C -7.866800 -10.581000 -24.713100
H -7.452400 -11.439800 -24.453200
H -7.242300 -10.093900 -25.287900
39
Fragment
H -20.514900 -6.398400 -28.220200
H -20.304900 -7.744300 -29.054900
C -19.890400 -6.885500 -28.795000
H -19.724100 -6.362200 -29.608300
O -19.363000 -9.905400 -27.854800
H -18.782400 -7.646000 -27.244800
C -18.584400 -7.137500 -28.070300
O -18.576800 -10.394700 -25.899400
H -18.517800 -5.240200 -28.062700
N -18.407300 -10.020700 -27.070500
H -18.197400 -6.077600 -26.741800
C -17.875700 -5.857400 -27.669800
N -17.684600 -7.885500 -28.961600
H -17.491800 -7.464900 -29.674100
C -17.101800 -9.777600 -27.552100
H -17.005300 -5.415400 -27.576500
C -16.911900 -8.928300 -28.700200
H -16.601300 -10.694800 -25.271100
N -16.009100 -10.876600 -25.699200
C -15.983200 -10.445000 -26.945100
O -15.896300 -7.283100 -30.753400
C -15.791400 -9.226200 -29.530400
H -15.772100 -11.000000 -31.730300
H -15.271300 -11.293400 -25.393400
N -15.233200 -8.276400 -30.371200
C -14.998300 -10.397700 -29.201700
C -14.845600 -10.659300 -27.784500
C -14.805600 -10.997100 -31.563700
N -14.541400 -11.207700 -30.131200
H -14.443200 -10.119800 -31.841900
H -14.378500 -11.696300 -32.091100
H -14.325400 -13.020000 -29.265900
O -14.026600 -8.405000 -30.725900
C -13.773800 -12.420600 -29.820800
N -13.575500 -10.879600 -27.270800
H -13.531600 -12.881000 -30.644900
O -13.432300 -11.250600 -26.072200
H -12.965400 -12.184100 -29.324000
O -12.586300 -10.683700 -27.992400
78
Fragment
O -15.170900 -14.379200 -25.515700
H -14.791800 -15.879600 -24.184100
O -14.324900 -14.946100 -27.435900
H -14.225600 -16.576500 -22.863200
N -14.181700 -14.575100 -26.237300
C -13.983400 -16.116100 -23.687300
O -13.730600 -12.100500 -22.782200
H -13.431900 -16.715500 -24.242200
H -13.378700 -15.391800 -21.417000
H -13.314000 -13.815300 -21.666200
N -13.215900 -14.903200 -23.376900
C -12.951600 -14.692600 -21.944400
C -12.911600 -14.354800 -25.723600
C -12.758900 -14.093200 -24.306400
N -12.524000 -11.971900 -23.136900
H -12.485900 -14.988900 -28.114700
H -11.985100 -14.695500 -21.777800
C -11.965800 -12.921700 -23.977700
O -11.860900 -10.978600 -22.754700
C -11.774000 -14.140500 -26.562900
N -11.748100 -14.572100 -27.808900
H -11.155900 -14.390300 -28.237000
C -10.845300 -12.623800 -24.807900
H -10.751900 -9.110900 -25.931600
C -10.655400 -13.473100 -25.956000
H -10.265400 -11.160400 -23.834000
N -10.072600 -11.581000 -24.546500
C -9.881500 -9.552900 -25.838300
H -9.559800 -9.773100 -26.766300
N -9.349900 -13.716200 -26.437600
H -9.239400 -8.935700 -25.445400
O -9.180400 -14.090200 -27.608700
C -9.172800 -10.833000 -25.437800
H -8.974800 -11.341500 -26.263300
O -8.394200 -13.600900 -25.653300
H -8.033100 -10.057700 -23.899800
C -7.866800 -10.581000 -24.713100
H -7.452400 -11.439800 -24.453200
H -7.242300 -10.093900 -25.287900
H -20.514900 -6.398400 -28.220200
H -20.304900 -7.744300 -29.054900
C -19.890400 -6.885500 -28.795000
H -19.724100 -6.362200 -29.608300
O -19.363000 -9.905400 -27.854800
H -18.782400 -7.646000 -27.244800
C -18.584400 -7.137500 -28.070300
O -18.576800 -10.394700 -25.899400
H -18.517800 -5.240200 -28.062700
N -18.407300 -10.020700 -27.070500
H -18.197400 -6.077600 -26.741800
C -17.875700 -5.857400 -27.669800
N -17.684600 -7.885500 -28.961600
H -17.491800 -7.464900 -29.674100
C -17.101800 -9.777600 -27.552100
H -17.005300 -5.415400 -27.576500
C -16.911900 -8.928300 -28.700200
H -16.601300 -10.694800 -25.271100
N -16.009100 -10.876600 -25.699200
C -15.983200 -10.445000 -26.945100
O -15.896300 -7.283100 -30.753400
C -15.791400 -9.226200 -29.530400
H -15.772100 -11.000000 -31.730300
H -15.271300 -11.293400 -25.393400
N -15.233200 -8.276400 -30.371200
C -14.998300 -10.397700 -29.201700
C -14.845600 -10.659300 -27.784500
C -14.805600 -10.997100 -31.563700
N -14.541400 -11.207700 -30.131200
H -14.443200 -10.119800 -31.841900
H -14.378500 -11.696300 -32.091100
H -14.325400 -13.020000 -29.265900
O -14.026600 -8.405000 -30.725900
C -13.773800 -12.420600 -29.820800
N -13.575500 -10.879600 -27.270800
H -13.531600 -12.881000 -30.644900
O -13.432300 -11.250600 -26.072200
H -12.965400 -12.184100 -29.324000
O -12.586300 -10.683700 -27.992400
