39
Fragment
O -15.170900 -14.379200 -25.515700
H -14.791800 -15.879600 -24.184100
O -14.324900 -14.946100 -27.435900
H -14.225600 -16.576500 -22.863200
N -14.181700 -14.575100 -26.237300
C -13.983400 -16.116100 -23.687300
O -13.730600 -12.100500 -22.782200
H -13.431900 -16.715500 -24.242200
H -13.378700 -15.391800 -21.417000
H -13.314000 -13.815300 -21.666200
N -13.215900 -14.903200 -23.376900
C -12.951600 -14.692600 -21.944400
C -12.911600 -14.354800 -25.723600
C -12.758900 -14.093200 -24.306400
N -12.524000 -11.971900 -23.136900
H -12.485900 -14.988900 -28.114700
H -11.985100 -14.695500 -21.777800
C -11.965800 -12.921700 -23.977700
O -11.860900 -10.978600 -22.754700
C -11.774000 -14.140500 -26.562900
N -11.748100 -14.572100 -27.808900
H -11.155900 -14.390300 -28.237000
C -10.845300 -12.623800 -24.807900
H -10.751900 -9.110900 -25.931600
C -10.655400 -13.473100 -25.956000
H -10.265400 -11.160400 -23.834000
N -10.072600 -11.581000 -24.546500
C -9.881500 -9.552900 -25.838300
H -9.559800 -9.773100 -26.766300
N -9.349900 -13.716200 -26.437600
H -9.239400 -8.935700 -25.445400
O -9.180400 -14.090200 -27.608700
C -9.172800 -10.833000 -25.437800
H -8.974800 -11.341500 -26.263300
O -8.394200 -13.600900 -25.653300
H -8.033100 -10.057700 -23.899800
C -7.866800 -10.581000 -24.713100
H -7.452400 -11.439800 -24.453200
H -7.242300 -10.093900 -25.287900
39
Fragment
O -15.170900 -6.988200 -25.515700
H -14.791800 -8.488600 -24.184100
O -14.324900 -7.555100 -27.435900
H -14.225600 -9.185500 -22.863200
N -14.181700 -7.184100 -26.237300
C -13.983400 -8.725100 -23.687300
O -13.730600 -4.709500 -22.782200
H -13.431900 -9.324500 -24.242200
H -13.378700 -8.000800 -21.417000
H -13.314000 -6.424300 -21.666200
N -13.215900 -7.512200 -23.376900
C -12.951600 -7.301600 -21.944400
C -12.911600 -6.963800 -25.723600
C -12.758900 -6.702200 -24.306400
N -12.524000 -4.580900 -23.136900
H -12.485900 -7.597900 -28.114700
H -11.985100 -7.304500 -21.777800
C -11.965800 -5.530700 -23.977700
O -11.860900 -3.587600 -22.754700
C -11.774000 -6.749500 -26.562900
N -11.748100 -7.181100 -27.808900
H -11.155900 -6.999300 -28.237000
C -10.845300 -5.232800 -24.807900
H -10.751900 -1.719900 -25.931600
C -10.655400 -6.082100 -25.956000
H -10.265400 -3.769400 -23.834000
N -10.072600 -4.190000 -24.546500
C -9.881500 -2.161900 -25.838300
H -9.559800 -2.382100 -26.766300
N -9.349900 -6.325200 -26.437600
H -9.239400 -1.544700 -25.445400
O -9.180400 -6.699200 -27.608700
C -9.172800 -3.442000 -25.437800
H -8.974800 -3.950500 -26.263300
O -8.394200 -6.209900 -25.653300
H -8.033100 -2.666700 -23.899800
C -7.866800 -3.190000 -24.713100
H -7.452400 -4.048800 -24.453200
H -7.242300 -2.702900 -25.287900
78
Fragment
O -15.170900 -14.379200 -25.515700
H -14.791800 -15.879600 -24.184100
O -14.324900 -14.946100 -27.435900
H -14.225600 -16.576500 -22.863200
N -14.181700 -14.575100 -26.237300
C -13.983400 -16.116100 -23.687300
O -13.730600 -12.100500 -22.782200
H -13.431900 -16.715500 -24.242200
H -13.378700 -15.391800 -21.417000
H -13.314000 -13.815300 -21.666200
N -13.215900 -14.903200 -23.376900
C -12.951600 -14.692600 -21.944400
C -12.911600 -14.354800 -25.723600
C -12.758900 -14.093200 -24.306400
N -12.524000 -11.971900 -23.136900
H -12.485900 -14.988900 -28.114700
H -11.985100 -14.695500 -21.777800
C -11.965800 -12.921700 -23.977700
O -11.860900 -10.978600 -22.754700
C -11.774000 -14.140500 -26.562900
N -11.748100 -14.572100 -27.808900
H -11.155900 -14.390300 -28.237000
C -10.845300 -12.623800 -24.807900
H -10.751900 -9.110900 -25.931600
C -10.655400 -13.473100 -25.956000
H -10.265400 -11.160400 -23.834000
N -10.072600 -11.581000 -24.546500
C -9.881500 -9.552900 -25.838300
H -9.559800 -9.773100 -26.766300
N -9.349900 -13.716200 -26.437600
H -9.239400 -8.935700 -25.445400
O -9.180400 -14.090200 -27.608700
C -9.172800 -10.833000 -25.437800
H -8.974800 -11.341500 -26.263300
O -8.394200 -13.600900 -25.653300
H -8.033100 -10.057700 -23.899800
C -7.866800 -10.581000 -24.713100
H -7.452400 -11.439800 -24.453200
H -7.242300 -10.093900 -25.287900
O -15.170900 -6.988200 -25.515700
H -14.791800 -8.488600 -24.184100
O -14.324900 -7.555100 -27.435900
H -14.225600 -9.185500 -22.863200
N -14.181700 -7.184100 -26.237300
C -13.983400 -8.725100 -23.687300
O -13.730600 -4.709500 -22.782200
H -13.431900 -9.324500 -24.242200
H -13.378700 -8.000800 -21.417000
H -13.314000 -6.424300 -21.666200
N -13.215900 -7.512200 -23.376900
C -12.951600 -7.301600 -21.944400
C -12.911600 -6.963800 -25.723600
C -12.758900 -6.702200 -24.306400
N -12.524000 -4.580900 -23.136900
H -12.485900 -7.597900 -28.114700
H -11.985100 -7.304500 -21.777800
C -11.965800 -5.530700 -23.977700
O -11.860900 -3.587600 -22.754700
C -11.774000 -6.749500 -26.562900
N -11.748100 -7.181100 -27.808900
H -11.155900 -6.999300 -28.237000
C -10.845300 -5.232800 -24.807900
H -10.751900 -1.719900 -25.931600
C -10.655400 -6.082100 -25.956000
H -10.265400 -3.769400 -23.834000
N -10.072600 -4.190000 -24.546500
C -9.881500 -2.161900 -25.838300
H -9.559800 -2.382100 -26.766300
N -9.349900 -6.325200 -26.437600
H -9.239400 -1.544700 -25.445400
O -9.180400 -6.699200 -27.608700
C -9.172800 -3.442000 -25.437800
H -8.974800 -3.950500 -26.263300
O -8.394200 -6.209900 -25.653300
H -8.033100 -2.666700 -23.899800
C -7.866800 -3.190000 -24.713100
H -7.452400 -4.048800 -24.453200
H -7.242300 -2.702900 -25.287900
