42
Fragment
H -12.927900 -24.557600 -15.297700
H -12.922100 -23.093100 -14.783500
H -12.642500 -23.391000 -16.280600
C -12.521300 -23.703400 -15.391300
H -11.672600 -26.639900 -12.855800
H -11.405900 -25.223800 -13.429600
O -11.264500 -26.645800 -14.782700
C -11.130400 -26.132600 -13.448000
O -11.118700 -23.811900 -15.106200
C -10.550000 -26.036500 -15.786600
H -10.488000 -28.700200 -15.855900
C -10.475500 -24.684100 -15.960800
H -10.222900 -26.193800 -13.175500
H -10.048700 -22.133400 -16.597900
C -9.999100 -28.329100 -16.581200
C -9.914700 -26.933100 -16.721600
C -9.717700 -24.109900 -17.043900
C -9.619200 -22.717900 -17.211800
H -9.444600 -30.104500 -17.400700
C -9.375100 -29.162600 -17.502800
C -9.189000 -26.386600 -17.815700
C -9.080400 -24.973800 -17.971000
C -8.894300 -22.197800 -18.283900
H -8.824700 -21.255900 -18.386100
C -8.650100 -28.642500 -18.575000
C -8.551700 -27.250500 -18.742800
C -8.354700 -24.427300 -19.065200
C -8.270200 -23.031300 -19.205600
H -8.220600 -29.227000 -19.188900
H -8.046500 -25.166600 -22.611300
C -7.793800 -26.676300 -19.826000
H -7.781300 -22.660200 -19.930800
C -7.719400 -25.323900 -20.000200
O -7.150700 -27.548500 -20.680600
C -7.139000 -25.227800 -22.338800
O -7.004900 -24.714600 -21.004100
H -6.863500 -26.136600 -22.357200
H -6.596800 -24.720500 -22.931000
C -5.748100 -27.657000 -20.395500
H -5.626900 -27.969400 -19.506200
H -5.347300 -28.267300 -21.003300
H -5.341500 -26.802800 -20.489100
42
Fragment
H -18.708200 -24.557600 -3.368700
H -18.702400 -23.093100 -2.854600
H -18.422800 -23.391000 -4.351700
C -18.301600 -23.703400 -3.462400
H -17.452900 -26.639900 -0.926900
H -17.186200 -25.223800 -1.500700
O -17.044800 -26.645800 -2.853800
C -16.910700 -26.132600 -1.519000
O -16.899000 -23.811900 -3.177300
C -16.330300 -26.036500 -3.857700
H -16.268300 -28.700200 -3.927000
C -16.255800 -24.684100 -4.031900
H -16.003200 -26.193800 -1.246600
H -15.829000 -22.133400 -4.669000
C -15.779400 -28.329100 -4.652300
C -15.695000 -26.933100 -4.792700
C -15.498000 -24.109900 -5.115000
C -15.399500 -22.717900 -5.282800
H -15.224900 -30.104500 -5.471800
C -15.155400 -29.162600 -5.573900
C -14.969300 -26.386600 -5.886800
C -14.860700 -24.973800 -6.042100
C -14.674600 -22.197800 -6.355000
H -14.605000 -21.255900 -6.457100
C -14.430400 -28.642500 -6.646100
C -14.332000 -27.250500 -6.813900
C -14.134900 -24.427300 -7.136200
C -14.050500 -23.031300 -7.276600
H -14.000900 -29.227000 -7.259900
H -13.826800 -25.166600 -10.682400
C -13.574100 -26.676300 -7.897100
H -13.561600 -22.660200 -8.001900
C -13.499700 -25.323900 -8.071200
O -12.931000 -27.548500 -8.751700
C -12.919300 -25.227800 -10.409900
O -12.785200 -24.714600 -9.075200
H -12.643700 -26.136600 -10.428300
H -12.377100 -24.720500 -11.002000
C -11.528300 -27.657000 -8.466600
H -11.407200 -27.969400 -7.577300
H -11.127600 -28.267300 -9.074300
H -11.121700 -26.802800 -8.560200
84
Fragment
H -12.927900 -24.557600 -15.297700
H -12.922100 -23.093100 -14.783500
H -12.642500 -23.391000 -16.280600
C -12.521300 -23.703400 -15.391300
H -11.672600 -26.639900 -12.855800
H -11.405900 -25.223800 -13.429600
O -11.264500 -26.645800 -14.782700
C -11.130400 -26.132600 -13.448000
O -11.118700 -23.811900 -15.106200
C -10.550000 -26.036500 -15.786600
H -10.488000 -28.700200 -15.855900
C -10.475500 -24.684100 -15.960800
H -10.222900 -26.193800 -13.175500
H -10.048700 -22.133400 -16.597900
C -9.999100 -28.329100 -16.581200
C -9.914700 -26.933100 -16.721600
C -9.717700 -24.109900 -17.043900
C -9.619200 -22.717900 -17.211800
H -9.444600 -30.104500 -17.400700
C -9.375100 -29.162600 -17.502800
C -9.189000 -26.386600 -17.815700
C -9.080400 -24.973800 -17.971000
C -8.894300 -22.197800 -18.283900
H -8.824700 -21.255900 -18.386100
C -8.650100 -28.642500 -18.575000
C -8.551700 -27.250500 -18.742800
C -8.354700 -24.427300 -19.065200
C -8.270200 -23.031300 -19.205600
H -8.220600 -29.227000 -19.188900
H -8.046500 -25.166600 -22.611300
C -7.793800 -26.676300 -19.826000
H -7.781300 -22.660200 -19.930800
C -7.719400 -25.323900 -20.000200
O -7.150700 -27.548500 -20.680600
C -7.139000 -25.227800 -22.338800
O -7.004900 -24.714600 -21.004100
H -6.863500 -26.136600 -22.357200
H -6.596800 -24.720500 -22.931000
C -5.748100 -27.657000 -20.395500
H -5.626900 -27.969400 -19.506200
H -5.347300 -28.267300 -21.003300
H -5.341500 -26.802800 -20.489100
H -18.708200 -24.557600 -3.368700
H -18.702400 -23.093100 -2.854600
H -18.422800 -23.391000 -4.351700
C -18.301600 -23.703400 -3.462400
H -17.452900 -26.639900 -0.926900
H -17.186200 -25.223800 -1.500700
O -17.044800 -26.645800 -2.853800
C -16.910700 -26.132600 -1.519000
O -16.899000 -23.811900 -3.177300
C -16.330300 -26.036500 -3.857700
H -16.268300 -28.700200 -3.927000
C -16.255800 -24.684100 -4.031900
H -16.003200 -26.193800 -1.246600
H -15.829000 -22.133400 -4.669000
C -15.779400 -28.329100 -4.652300
C -15.695000 -26.933100 -4.792700
C -15.498000 -24.109900 -5.115000
C -15.399500 -22.717900 -5.282800
H -15.224900 -30.104500 -5.471800
C -15.155400 -29.162600 -5.573900
C -14.969300 -26.386600 -5.886800
C -14.860700 -24.973800 -6.042100
C -14.674600 -22.197800 -6.355000
H -14.605000 -21.255900 -6.457100
C -14.430400 -28.642500 -6.646100
C -14.332000 -27.250500 -6.813900
C -14.134900 -24.427300 -7.136200
C -14.050500 -23.031300 -7.276600
H -14.000900 -29.227000 -7.259900
H -13.826800 -25.166600 -10.682400
C -13.574100 -26.676300 -7.897100
H -13.561600 -22.660200 -8.001900
C -13.499700 -25.323900 -8.071200
O -12.931000 -27.548500 -8.751700
C -12.919300 -25.227800 -10.409900
O -12.785200 -24.714600 -9.075200
H -12.643700 -26.136600 -10.428300
H -12.377100 -24.720500 -11.002000
C -11.528300 -27.657000 -8.466600
H -11.407200 -27.969400 -7.577300
H -11.127600 -28.267300 -9.074300
H -11.121700 -26.802800 -8.560200
