42
Fragment
H -12.927900 -24.557600 -15.297700
H -12.922100 -23.093100 -14.783500
H -12.642500 -23.391000 -16.280600
C -12.521300 -23.703400 -15.391300
H -11.672600 -26.639900 -12.855800
H -11.405900 -25.223800 -13.429600
O -11.264500 -26.645800 -14.782700
C -11.130400 -26.132600 -13.448000
O -11.118700 -23.811900 -15.106200
C -10.550000 -26.036500 -15.786600
H -10.488000 -28.700200 -15.855900
C -10.475500 -24.684100 -15.960800
H -10.222900 -26.193800 -13.175500
H -10.048700 -22.133400 -16.597900
C -9.999100 -28.329100 -16.581200
C -9.914700 -26.933100 -16.721600
C -9.717700 -24.109900 -17.043900
C -9.619200 -22.717900 -17.211800
H -9.444600 -30.104500 -17.400700
C -9.375100 -29.162600 -17.502800
C -9.189000 -26.386600 -17.815700
C -9.080400 -24.973800 -17.971000
C -8.894300 -22.197800 -18.283900
H -8.824700 -21.255900 -18.386100
C -8.650100 -28.642500 -18.575000
C -8.551700 -27.250500 -18.742800
C -8.354700 -24.427300 -19.065200
C -8.270200 -23.031300 -19.205600
H -8.220600 -29.227000 -19.188900
H -8.046500 -25.166600 -22.611300
C -7.793800 -26.676300 -19.826000
H -7.781300 -22.660200 -19.930800
C -7.719400 -25.323900 -20.000200
O -7.150700 -27.548500 -20.680600
C -7.139000 -25.227800 -22.338800
O -7.004900 -24.714600 -21.004100
H -6.863500 -26.136600 -22.357200
H -6.596800 -24.720500 -22.931000
C -5.748100 -27.657000 -20.395500
H -5.626900 -27.969400 -19.506200
H -5.347300 -28.267300 -21.003300
H -5.341500 -26.802800 -20.489100
20
Fragment
N -15.343300 -20.591400 -13.059000
H -15.110100 -17.607800 -13.087200
H -15.052700 -15.315700 -13.058600
C -14.786300 -20.005800 -13.879800
C -14.714200 -17.137900 -13.811300
N -14.705500 -12.308700 -12.787400
C -14.695300 -15.786300 -13.801500
C -14.489300 -12.910400 -13.746100
C -14.140800 -19.250800 -14.911200
C -14.140800 -17.873100 -14.911200
C -14.140800 -15.042900 -14.911200
C -14.140800 -13.663300 -14.911200
C -13.792300 -12.910400 -16.076300
C -13.586300 -15.786300 -16.020800
N -13.576100 -12.308700 -17.034900
C -13.567400 -17.137900 -16.011000
C -13.495300 -20.005800 -15.942500
H -13.228900 -15.315700 -16.763700
H -13.171500 -17.607800 -16.735100
N -12.938300 -20.591400 -16.763400
62
Fragment
H -12.927900 -24.557600 -15.297700
H -12.922100 -23.093100 -14.783500
H -12.642500 -23.391000 -16.280600
C -12.521300 -23.703400 -15.391300
H -11.672600 -26.639900 -12.855800
H -11.405900 -25.223800 -13.429600
O -11.264500 -26.645800 -14.782700
C -11.130400 -26.132600 -13.448000
O -11.118700 -23.811900 -15.106200
C -10.550000 -26.036500 -15.786600
H -10.488000 -28.700200 -15.855900
C -10.475500 -24.684100 -15.960800
H -10.222900 -26.193800 -13.175500
H -10.048700 -22.133400 -16.597900
C -9.999100 -28.329100 -16.581200
C -9.914700 -26.933100 -16.721600
C -9.717700 -24.109900 -17.043900
C -9.619200 -22.717900 -17.211800
H -9.444600 -30.104500 -17.400700
C -9.375100 -29.162600 -17.502800
C -9.189000 -26.386600 -17.815700
C -9.080400 -24.973800 -17.971000
C -8.894300 -22.197800 -18.283900
H -8.824700 -21.255900 -18.386100
C -8.650100 -28.642500 -18.575000
C -8.551700 -27.250500 -18.742800
C -8.354700 -24.427300 -19.065200
C -8.270200 -23.031300 -19.205600
H -8.220600 -29.227000 -19.188900
H -8.046500 -25.166600 -22.611300
C -7.793800 -26.676300 -19.826000
H -7.781300 -22.660200 -19.930800
C -7.719400 -25.323900 -20.000200
O -7.150700 -27.548500 -20.680600
C -7.139000 -25.227800 -22.338800
O -7.004900 -24.714600 -21.004100
H -6.863500 -26.136600 -22.357200
H -6.596800 -24.720500 -22.931000
C -5.748100 -27.657000 -20.395500
H -5.626900 -27.969400 -19.506200
H -5.347300 -28.267300 -21.003300
H -5.341500 -26.802800 -20.489100
N -15.343300 -20.591400 -13.059000
H -15.110100 -17.607800 -13.087200
H -15.052700 -15.315700 -13.058600
C -14.786300 -20.005800 -13.879800
C -14.714200 -17.137900 -13.811300
N -14.705500 -12.308700 -12.787400
C -14.695300 -15.786300 -13.801500
C -14.489300 -12.910400 -13.746100
C -14.140800 -19.250800 -14.911200
C -14.140800 -17.873100 -14.911200
C -14.140800 -15.042900 -14.911200
C -14.140800 -13.663300 -14.911200
C -13.792300 -12.910400 -16.076300
C -13.586300 -15.786300 -16.020800
N -13.576100 -12.308700 -17.034900
C -13.567400 -17.137900 -16.011000
C -13.495300 -20.005800 -15.942500
H -13.228900 -15.315700 -16.763700
H -13.171500 -17.607800 -16.735100
N -12.938300 -20.591400 -16.763400
