26
Fragment
H -7.616500 -8.450000 -10.390100
H -7.477100 -8.654800 -8.123700
C -7.352300 -7.718200 -9.881400
C -7.264400 -7.843300 -8.524900
H -7.129600 -6.477200 -11.432100
C -7.060000 -6.538100 -10.507100
H -6.932100 -7.653300 -5.864500
C -6.861400 -6.777100 -7.740000
C -6.738800 -6.852900 -6.296800
C -6.653900 -5.412600 -9.757200
C -6.555700 -5.537300 -8.354600
H -6.431800 -4.063600 -11.262600
C -6.356000 -4.156200 -10.339900
C -6.355900 -5.804100 -5.581100
H -6.280000 -5.896700 -4.658500
C -6.156100 -4.423000 -7.566500
C -6.058000 -4.547700 -6.163800
C -5.973100 -3.107400 -9.624300
C -5.850400 -3.183200 -8.181000
H -5.779700 -2.307000 -10.056500
C -5.651800 -3.422200 -5.414000
H -5.582300 -3.483100 -4.488900
C -5.447400 -2.117000 -7.396100
C -5.359500 -2.242100 -6.039700
H -5.234700 -1.305500 -7.797300
H -5.095300 -1.510300 -5.531000
26
Fragment
H -6.880400 -13.430200 -18.350600
H -6.741000 -13.634900 -16.084300
C -6.616200 -12.698400 -17.841900
C -6.528300 -12.823500 -16.485500
H -6.393500 -11.457300 -19.392600
C -6.323900 -11.518300 -18.467600
H -6.196000 -12.633500 -13.825100
C -6.125300 -11.757200 -15.700600
C -6.002700 -11.833100 -14.257300
C -5.917800 -10.392800 -17.717800
C -5.819600 -10.517400 -16.315100
H -5.695800 -9.043800 -19.223100
C -5.619900 -9.136400 -18.300500
C -5.619800 -10.784200 -13.541700
H -5.543900 -10.876800 -12.619000
C -5.420000 -9.403200 -15.527000
C -5.321900 -9.527800 -14.124400
C -5.237000 -8.087500 -17.584800
C -5.114300 -8.163400 -16.141600
H -5.043700 -7.287100 -18.017100
C -4.915800 -8.402300 -13.374500
H -4.846200 -8.463300 -12.449500
C -4.711400 -7.097100 -15.356700
C -4.623400 -7.222200 -14.000200
H -4.498600 -6.285700 -15.757900
H -4.359300 -6.490400 -13.491500
52
Fragment
H -7.616500 -8.450000 -10.390100
H -7.477100 -8.654800 -8.123700
C -7.352300 -7.718200 -9.881400
C -7.264400 -7.843300 -8.524900
H -7.129600 -6.477200 -11.432100
C -7.060000 -6.538100 -10.507100
H -6.932100 -7.653300 -5.864500
C -6.861400 -6.777100 -7.740000
C -6.738800 -6.852900 -6.296800
C -6.653900 -5.412600 -9.757200
C -6.555700 -5.537300 -8.354600
H -6.431800 -4.063600 -11.262600
C -6.356000 -4.156200 -10.339900
C -6.355900 -5.804100 -5.581100
H -6.280000 -5.896700 -4.658500
C -6.156100 -4.423000 -7.566500
C -6.058000 -4.547700 -6.163800
C -5.973100 -3.107400 -9.624300
C -5.850400 -3.183200 -8.181000
H -5.779700 -2.307000 -10.056500
C -5.651800 -3.422200 -5.414000
H -5.582300 -3.483100 -4.488900
C -5.447400 -2.117000 -7.396100
C -5.359500 -2.242100 -6.039700
H -5.234700 -1.305500 -7.797300
H -5.095300 -1.510300 -5.531000
H -6.880400 -13.430200 -18.350600
H -6.741000 -13.634900 -16.084300
C -6.616200 -12.698400 -17.841900
C -6.528300 -12.823500 -16.485500
H -6.393500 -11.457300 -19.392600
C -6.323900 -11.518300 -18.467600
H -6.196000 -12.633500 -13.825100
C -6.125300 -11.757200 -15.700600
C -6.002700 -11.833100 -14.257300
C -5.917800 -10.392800 -17.717800
C -5.819600 -10.517400 -16.315100
H -5.695800 -9.043800 -19.223100
C -5.619900 -9.136400 -18.300500
C -5.619800 -10.784200 -13.541700
H -5.543900 -10.876800 -12.619000
C -5.420000 -9.403200 -15.527000
C -5.321900 -9.527800 -14.124400
C -5.237000 -8.087500 -17.584800
C -5.114300 -8.163400 -16.141600
H -5.043700 -7.287100 -18.017100
C -4.915800 -8.402300 -13.374500
H -4.846200 -8.463300 -12.449500
C -4.711400 -7.097100 -15.356700
C -4.623400 -7.222200 -14.000200
H -4.498600 -6.285700 -15.757900
H -4.359300 -6.490400 -13.491500
