26
Fragment
H -7.616500 -8.450000 -10.390100
H -7.477100 -8.654800 -8.123700
C -7.352300 -7.718200 -9.881400
C -7.264400 -7.843300 -8.524900
H -7.129600 -6.477200 -11.432100
C -7.060000 -6.538100 -10.507100
H -6.932100 -7.653300 -5.864500
C -6.861400 -6.777100 -7.740000
C -6.738800 -6.852900 -6.296800
C -6.653900 -5.412600 -9.757200
C -6.555700 -5.537300 -8.354600
H -6.431800 -4.063600 -11.262600
C -6.356000 -4.156200 -10.339900
C -6.355900 -5.804100 -5.581100
H -6.280000 -5.896700 -4.658500
C -6.156100 -4.423000 -7.566500
C -6.058000 -4.547700 -6.163800
C -5.973100 -3.107400 -9.624300
C -5.850400 -3.183200 -8.181000
H -5.779700 -2.307000 -10.056500
C -5.651800 -3.422200 -5.414000
H -5.582300 -3.483100 -4.488900
C -5.447400 -2.117000 -7.396100
C -5.359500 -2.242100 -6.039700
H -5.234700 -1.305500 -7.797300
H -5.095300 -1.510300 -5.531000
26
Fragment
H -8.048800 -11.842400 -2.429600
H -7.909400 -12.047100 -0.163200
C -7.784600 -11.110600 -1.920900
C -7.696700 -11.235700 -0.564400
H -7.561900 -9.869500 -3.471600
C -7.492300 -9.930500 -2.546600
H -7.364400 -11.045700 2.096000
C -7.293700 -10.169400 0.220500
C -7.171100 -10.245300 1.663800
C -7.086200 -8.804900 -1.796700
C -6.988000 -8.929600 -0.394000
H -6.864100 -7.456000 -3.302000
C -6.788300 -7.548600 -2.379400
C -6.788200 -9.196400 2.379400
H -6.712300 -9.289000 3.302000
C -6.588400 -7.815400 0.394000
C -6.490300 -7.940000 1.796700
C -6.405300 -6.499700 -1.663800
C -6.282700 -6.575600 -0.220500
H -6.212000 -5.699300 -2.096000
C -6.084100 -6.814500 2.546600
H -6.014600 -6.875500 3.471600
C -5.879700 -5.509300 0.564400
C -5.791800 -5.634400 1.920900
H -5.667000 -4.697900 0.163200
H -5.527600 -4.902600 2.429600
52
Fragment
H -7.616500 -8.450000 -10.390100
H -7.477100 -8.654800 -8.123700
C -7.352300 -7.718200 -9.881400
C -7.264400 -7.843300 -8.524900
H -7.129600 -6.477200 -11.432100
C -7.060000 -6.538100 -10.507100
H -6.932100 -7.653300 -5.864500
C -6.861400 -6.777100 -7.740000
C -6.738800 -6.852900 -6.296800
C -6.653900 -5.412600 -9.757200
C -6.555700 -5.537300 -8.354600
H -6.431800 -4.063600 -11.262600
C -6.356000 -4.156200 -10.339900
C -6.355900 -5.804100 -5.581100
H -6.280000 -5.896700 -4.658500
C -6.156100 -4.423000 -7.566500
C -6.058000 -4.547700 -6.163800
C -5.973100 -3.107400 -9.624300
C -5.850400 -3.183200 -8.181000
H -5.779700 -2.307000 -10.056500
C -5.651800 -3.422200 -5.414000
H -5.582300 -3.483100 -4.488900
C -5.447400 -2.117000 -7.396100
C -5.359500 -2.242100 -6.039700
H -5.234700 -1.305500 -7.797300
H -5.095300 -1.510300 -5.531000
H -8.048800 -11.842400 -2.429600
H -7.909400 -12.047100 -0.163200
C -7.784600 -11.110600 -1.920900
C -7.696700 -11.235700 -0.564400
H -7.561900 -9.869500 -3.471600
C -7.492300 -9.930500 -2.546600
H -7.364400 -11.045700 2.096000
C -7.293700 -10.169400 0.220500
C -7.171100 -10.245300 1.663800
C -7.086200 -8.804900 -1.796700
C -6.988000 -8.929600 -0.394000
H -6.864100 -7.456000 -3.302000
C -6.788300 -7.548600 -2.379400
C -6.788200 -9.196400 2.379400
H -6.712300 -9.289000 3.302000
C -6.588400 -7.815400 0.394000
C -6.490300 -7.940000 1.796700
C -6.405300 -6.499700 -1.663800
C -6.282700 -6.575600 -0.220500
H -6.212000 -5.699300 -2.096000
C -6.084100 -6.814500 2.546600
H -6.014600 -6.875500 3.471600
C -5.879700 -5.509300 0.564400
C -5.791800 -5.634400 1.920900
H -5.667000 -4.697900 0.163200
H -5.527600 -4.902600 2.429600
