26
Fragment
H -7.616500 -8.450000 -10.390100
H -7.477100 -8.654800 -8.123700
C -7.352300 -7.718200 -9.881400
C -7.264400 -7.843300 -8.524900
H -7.129600 -6.477200 -11.432100
C -7.060000 -6.538100 -10.507100
H -6.932100 -7.653300 -5.864500
C -6.861400 -6.777100 -7.740000
C -6.738800 -6.852900 -6.296800
C -6.653900 -5.412600 -9.757200
C -6.555700 -5.537300 -8.354600
H -6.431800 -4.063600 -11.262600
C -6.356000 -4.156200 -10.339900
C -6.355900 -5.804100 -5.581100
H -6.280000 -5.896700 -4.658500
C -6.156100 -4.423000 -7.566500
C -6.058000 -4.547700 -6.163800
C -5.973100 -3.107400 -9.624300
C -5.850400 -3.183200 -8.181000
H -5.779700 -2.307000 -10.056500
C -5.651800 -3.422200 -5.414000
H -5.582300 -3.483100 -4.488900
C -5.447400 -2.117000 -7.396100
C -5.359500 -2.242100 -6.039700
H -5.234700 -1.305500 -7.797300
H -5.095300 -1.510300 -5.531000
18
Fragment
N -4.599500 -3.201400 -2.071300
C -4.292800 -2.306500 -1.493400
O -4.053700 -2.428000 1.200400
H -3.996800 -2.380100 2.017200
C -3.906800 -1.129500 -0.726800
C -3.806000 -1.230000 0.666300
N -3.794800 0.274200 -3.946000
C -3.741400 0.160900 -2.823600
C -3.646800 0.081900 -1.382700
C -3.445200 -0.081900 1.382700
C -3.350600 -0.160900 2.823600
N -3.297200 -0.274200 3.946000
C -3.286000 1.230000 -0.666300
C -3.185200 1.129500 0.726800
H -3.095200 2.380100 -2.017200
O -3.038300 2.428000 -1.200400
C -2.799200 2.306500 1.493400
N -2.492500 3.201400 2.071300
44
Fragment
H -7.616500 -8.450000 -10.390100
H -7.477100 -8.654800 -8.123700
C -7.352300 -7.718200 -9.881400
C -7.264400 -7.843300 -8.524900
H -7.129600 -6.477200 -11.432100
C -7.060000 -6.538100 -10.507100
H -6.932100 -7.653300 -5.864500
C -6.861400 -6.777100 -7.740000
C -6.738800 -6.852900 -6.296800
C -6.653900 -5.412600 -9.757200
C -6.555700 -5.537300 -8.354600
H -6.431800 -4.063600 -11.262600
C -6.356000 -4.156200 -10.339900
C -6.355900 -5.804100 -5.581100
H -6.280000 -5.896700 -4.658500
C -6.156100 -4.423000 -7.566500
C -6.058000 -4.547700 -6.163800
C -5.973100 -3.107400 -9.624300
C -5.850400 -3.183200 -8.181000
H -5.779700 -2.307000 -10.056500
C -5.651800 -3.422200 -5.414000
H -5.582300 -3.483100 -4.488900
C -5.447400 -2.117000 -7.396100
C -5.359500 -2.242100 -6.039700
H -5.234700 -1.305500 -7.797300
H -5.095300 -1.510300 -5.531000
N -4.599500 -3.201400 -2.071300
C -4.292800 -2.306500 -1.493400
O -4.053700 -2.428000 1.200400
H -3.996800 -2.380100 2.017200
C -3.906800 -1.129500 -0.726800
C -3.806000 -1.230000 0.666300
N -3.794800 0.274200 -3.946000
C -3.741400 0.160900 -2.823600
C -3.646800 0.081900 -1.382700
C -3.445200 -0.081900 1.382700
C -3.350600 -0.160900 2.823600
N -3.297200 -0.274200 3.946000
C -3.286000 1.230000 -0.666300
C -3.185200 1.129500 0.726800
H -3.095200 2.380100 -2.017200
O -3.038300 2.428000 -1.200400
C -2.799200 2.306500 1.493400
N -2.492500 3.201400 2.071300
