34
Fragment
H -21.954600 -14.212700 -62.755700
H -21.440400 -12.962600 -64.610900
H -21.324700 -15.199400 -60.618400
C -21.077800 -13.861000 -62.857900
C -20.775200 -13.162100 -63.964300
C -20.456700 -14.819700 -60.682900
C -20.112000 -14.086800 -61.838700
H -19.801500 -15.524200 -58.897600
C -19.567300 -14.998100 -59.652000
C -19.445600 -12.730500 -64.137400
H -19.428400 -11.824900 -65.944900
N -18.958600 -12.068000 -65.241700
C -18.760800 -13.558200 -61.969100
C -18.414600 -12.938600 -63.213700
C -18.315700 -14.392600 -59.737500
C -17.944200 -13.693700 -60.826600
H -17.710800 -14.475100 -59.009900
C -17.613400 -11.851000 -65.059400
C -17.202900 -12.375900 -63.844900
H -17.152200 -13.244300 -60.682900
H -17.144200 -10.775200 -66.766300
C -16.801600 -11.115900 -65.948200
C -15.795200 -12.250800 -63.531000
H -15.583500 -13.540500 -61.894000
C -15.515900 -10.916800 -65.587400
C -15.141600 -12.866800 -62.428800
C -14.988900 -11.469000 -64.403100
H -14.953900 -10.392200 -66.144800
C -13.828000 -12.629100 -62.137100
C -13.618100 -11.241800 -64.050600
H -13.433500 -13.041400 -61.377700
H -13.082800 -10.691500 -64.610100
C -13.064100 -11.790300 -62.938800
H -12.161500 -11.602400 -62.711200
34
Fragment
H -10.839600 -14.212700 -62.755700
H -10.325400 -12.962600 -64.610900
H -10.209700 -15.199400 -60.618400
C -9.962800 -13.861000 -62.857900
C -9.660200 -13.162100 -63.964300
C -9.341700 -14.819700 -60.682900
C -8.997000 -14.086800 -61.838700
H -8.686500 -15.524200 -58.897600
C -8.452300 -14.998100 -59.652000
C -8.330600 -12.730500 -64.137400
H -8.313400 -11.824900 -65.944900
N -7.843600 -12.068000 -65.241700
C -7.645800 -13.558200 -61.969100
C -7.299600 -12.938600 -63.213700
C -7.200700 -14.392600 -59.737500
C -6.829200 -13.693700 -60.826600
H -6.595800 -14.475100 -59.009900
C -6.498400 -11.851000 -65.059400
C -6.087900 -12.375900 -63.844900
H -6.037200 -13.244300 -60.682900
H -6.029200 -10.775200 -66.766300
C -5.686600 -11.115900 -65.948200
C -4.680200 -12.250800 -63.531000
H -4.468500 -13.540500 -61.894000
C -4.400900 -10.916800 -65.587400
C -4.026600 -12.866800 -62.428800
C -3.873900 -11.469000 -64.403100
H -3.838900 -10.392200 -66.144800
C -2.713000 -12.629100 -62.137100
C -2.503100 -11.241800 -64.050600
H -2.318500 -13.041400 -61.377700
H -1.967800 -10.691500 -64.610100
C -1.949100 -11.790300 -62.938800
H -1.046500 -11.602400 -62.711200
68
Fragment
H -21.954600 -14.212700 -62.755700
H -21.440400 -12.962600 -64.610900
H -21.324700 -15.199400 -60.618400
C -21.077800 -13.861000 -62.857900
C -20.775200 -13.162100 -63.964300
C -20.456700 -14.819700 -60.682900
C -20.112000 -14.086800 -61.838700
H -19.801500 -15.524200 -58.897600
C -19.567300 -14.998100 -59.652000
C -19.445600 -12.730500 -64.137400
H -19.428400 -11.824900 -65.944900
N -18.958600 -12.068000 -65.241700
C -18.760800 -13.558200 -61.969100
C -18.414600 -12.938600 -63.213700
C -18.315700 -14.392600 -59.737500
C -17.944200 -13.693700 -60.826600
H -17.710800 -14.475100 -59.009900
C -17.613400 -11.851000 -65.059400
C -17.202900 -12.375900 -63.844900
H -17.152200 -13.244300 -60.682900
H -17.144200 -10.775200 -66.766300
C -16.801600 -11.115900 -65.948200
C -15.795200 -12.250800 -63.531000
H -15.583500 -13.540500 -61.894000
C -15.515900 -10.916800 -65.587400
C -15.141600 -12.866800 -62.428800
C -14.988900 -11.469000 -64.403100
H -14.953900 -10.392200 -66.144800
C -13.828000 -12.629100 -62.137100
C -13.618100 -11.241800 -64.050600
H -13.433500 -13.041400 -61.377700
H -13.082800 -10.691500 -64.610100
C -13.064100 -11.790300 -62.938800
H -12.161500 -11.602400 -62.711200
H -10.839600 -14.212700 -62.755700
H -10.325400 -12.962600 -64.610900
H -10.209700 -15.199400 -60.618400
C -9.962800 -13.861000 -62.857900
C -9.660200 -13.162100 -63.964300
C -9.341700 -14.819700 -60.682900
C -8.997000 -14.086800 -61.838700
H -8.686500 -15.524200 -58.897600
C -8.452300 -14.998100 -59.652000
C -8.330600 -12.730500 -64.137400
H -8.313400 -11.824900 -65.944900
N -7.843600 -12.068000 -65.241700
C -7.645800 -13.558200 -61.969100
C -7.299600 -12.938600 -63.213700
C -7.200700 -14.392600 -59.737500
C -6.829200 -13.693700 -60.826600
H -6.595800 -14.475100 -59.009900
C -6.498400 -11.851000 -65.059400
C -6.087900 -12.375900 -63.844900
H -6.037200 -13.244300 -60.682900
H -6.029200 -10.775200 -66.766300
C -5.686600 -11.115900 -65.948200
C -4.680200 -12.250800 -63.531000
H -4.468500 -13.540500 -61.894000
C -4.400900 -10.916800 -65.587400
C -4.026600 -12.866800 -62.428800
C -3.873900 -11.469000 -64.403100
H -3.838900 -10.392200 -66.144800
C -2.713000 -12.629100 -62.137100
C -2.503100 -11.241800 -64.050600
H -2.318500 -13.041400 -61.377700
H -1.967800 -10.691500 -64.610100
C -1.949100 -11.790300 -62.938800
H -1.046500 -11.602400 -62.711200
