34
Fragment
H -21.954600 -14.212700 -62.755700
H -21.440400 -12.962600 -64.610900
H -21.324700 -15.199400 -60.618400
C -21.077800 -13.861000 -62.857900
C -20.775200 -13.162100 -63.964300
C -20.456700 -14.819700 -60.682900
C -20.112000 -14.086800 -61.838700
H -19.801500 -15.524200 -58.897600
C -19.567300 -14.998100 -59.652000
C -19.445600 -12.730500 -64.137400
H -19.428400 -11.824900 -65.944900
N -18.958600 -12.068000 -65.241700
C -18.760800 -13.558200 -61.969100
C -18.414600 -12.938600 -63.213700
C -18.315700 -14.392600 -59.737500
C -17.944200 -13.693700 -60.826600
H -17.710800 -14.475100 -59.009900
C -17.613400 -11.851000 -65.059400
C -17.202900 -12.375900 -63.844900
H -17.152200 -13.244300 -60.682900
H -17.144200 -10.775200 -66.766300
C -16.801600 -11.115900 -65.948200
C -15.795200 -12.250800 -63.531000
H -15.583500 -13.540500 -61.894000
C -15.515900 -10.916800 -65.587400
C -15.141600 -12.866800 -62.428800
C -14.988900 -11.469000 -64.403100
H -14.953900 -10.392200 -66.144800
C -13.828000 -12.629100 -62.137100
C -13.618100 -11.241800 -64.050600
H -13.433500 -13.041400 -61.377700
H -13.082800 -10.691500 -64.610100
C -13.064100 -11.790300 -62.938800
H -12.161500 -11.602400 -62.711200
20
Fragment
N -29.028300 -11.556400 -69.150400
C -28.188700 -12.045000 -69.750500
N -27.918400 -13.610000 -72.822000
C -27.583800 -13.188100 -71.805300
C -27.168200 -12.656500 -70.548500
H -26.064700 -11.795000 -68.309300
C -25.848400 -12.737200 -70.148700
C -25.421500 -12.175300 -68.896000
H -25.122200 -13.776800 -71.799900
C -24.856800 -13.371700 -70.982200
C -24.124000 -12.182000 -68.545300
H -23.864500 -11.798000 -67.715900
C -23.565700 -13.396100 -70.618900
C -23.123200 -12.757200 -69.399400
H -22.932400 -13.840000 -71.170800
C -21.788900 -12.686100 -69.085900
C -21.352500 -11.881400 -67.977000
N -21.058600 -11.200300 -67.118300
C -20.757700 -13.356100 -69.843600
N -19.918500 -13.895800 -70.421100
54
Fragment
H -21.954600 -14.212700 -62.755700
H -21.440400 -12.962600 -64.610900
H -21.324700 -15.199400 -60.618400
C -21.077800 -13.861000 -62.857900
C -20.775200 -13.162100 -63.964300
C -20.456700 -14.819700 -60.682900
C -20.112000 -14.086800 -61.838700
H -19.801500 -15.524200 -58.897600
C -19.567300 -14.998100 -59.652000
C -19.445600 -12.730500 -64.137400
H -19.428400 -11.824900 -65.944900
N -18.958600 -12.068000 -65.241700
C -18.760800 -13.558200 -61.969100
C -18.414600 -12.938600 -63.213700
C -18.315700 -14.392600 -59.737500
C -17.944200 -13.693700 -60.826600
H -17.710800 -14.475100 -59.009900
C -17.613400 -11.851000 -65.059400
C -17.202900 -12.375900 -63.844900
H -17.152200 -13.244300 -60.682900
H -17.144200 -10.775200 -66.766300
C -16.801600 -11.115900 -65.948200
C -15.795200 -12.250800 -63.531000
H -15.583500 -13.540500 -61.894000
C -15.515900 -10.916800 -65.587400
C -15.141600 -12.866800 -62.428800
C -14.988900 -11.469000 -64.403100
H -14.953900 -10.392200 -66.144800
C -13.828000 -12.629100 -62.137100
C -13.618100 -11.241800 -64.050600
H -13.433500 -13.041400 -61.377700
H -13.082800 -10.691500 -64.610100
C -13.064100 -11.790300 -62.938800
H -12.161500 -11.602400 -62.711200
N -29.028300 -11.556400 -69.150400
C -28.188700 -12.045000 -69.750500
N -27.918400 -13.610000 -72.822000
C -27.583800 -13.188100 -71.805300
C -27.168200 -12.656500 -70.548500
H -26.064700 -11.795000 -68.309300
C -25.848400 -12.737200 -70.148700
C -25.421500 -12.175300 -68.896000
H -25.122200 -13.776800 -71.799900
C -24.856800 -13.371700 -70.982200
C -24.124000 -12.182000 -68.545300
H -23.864500 -11.798000 -67.715900
C -23.565700 -13.396100 -70.618900
C -23.123200 -12.757200 -69.399400
H -22.932400 -13.840000 -71.170800
C -21.788900 -12.686100 -69.085900
C -21.352500 -11.881400 -67.977000
N -21.058600 -11.200300 -67.118300
C -20.757700 -13.356100 -69.843600
N -19.918500 -13.895800 -70.421100
