34
Fragment
H -21.954600 -14.212700 -62.755700
H -21.440400 -12.962600 -64.610900
H -21.324700 -15.199400 -60.618400
C -21.077800 -13.861000 -62.857900
C -20.775200 -13.162100 -63.964300
C -20.456700 -14.819700 -60.682900
C -20.112000 -14.086800 -61.838700
H -19.801500 -15.524200 -58.897600
C -19.567300 -14.998100 -59.652000
C -19.445600 -12.730500 -64.137400
H -19.428400 -11.824900 -65.944900
N -18.958600 -12.068000 -65.241700
C -18.760800 -13.558200 -61.969100
C -18.414600 -12.938600 -63.213700
C -18.315700 -14.392600 -59.737500
C -17.944200 -13.693700 -60.826600
H -17.710800 -14.475100 -59.009900
C -17.613400 -11.851000 -65.059400
C -17.202900 -12.375900 -63.844900
H -17.152200 -13.244300 -60.682900
H -17.144200 -10.775200 -66.766300
C -16.801600 -11.115900 -65.948200
C -15.795200 -12.250800 -63.531000
H -15.583500 -13.540500 -61.894000
C -15.515900 -10.916800 -65.587400
C -15.141600 -12.866800 -62.428800
C -14.988900 -11.469000 -64.403100
H -14.953900 -10.392200 -66.144800
C -13.828000 -12.629100 -62.137100
C -13.618100 -11.241800 -64.050600
H -13.433500 -13.041400 -61.377700
H -13.082800 -10.691500 -64.610100
C -13.064100 -11.790300 -62.938800
H -12.161500 -11.602400 -62.711200
34
Fragment
H -17.741400 -8.256000 -69.858300
H -17.243900 -7.232900 -67.850900
C -16.853000 -8.262000 -69.521300
H -16.636200 -9.545200 -71.952400
C -16.562000 -7.687500 -68.331100
N -15.896300 -9.457600 -71.484700
C -15.805100 -8.873500 -70.264800
H -15.664000 -6.683200 -66.092800
C -15.257900 -7.757100 -67.793900
H -15.041200 -10.794800 -73.680300
C -14.979600 -7.175900 -66.529100
C -14.663600 -9.886200 -71.875300
C -14.479800 -8.932700 -69.812600
C -14.364900 -10.602900 -73.041200
C -14.211000 -8.435200 -68.487400
C -13.768700 -7.298100 -65.925600
C -13.704800 -9.553100 -70.902600
H -13.599300 -6.863400 -65.096200
C -13.120800 -11.004900 -73.232300
C -13.003900 -8.627700 -67.757400
H -12.922300 -11.545300 -73.988300
C -12.783100 -8.069500 -66.531600
C -12.325400 -9.848500 -71.173700
H -12.322200 -9.168000 -68.140000
C -12.050100 -10.646500 -72.321600
H -11.952300 -8.207500 -66.091600
H -11.361000 -8.725000 -69.735000
C -11.215300 -9.344300 -70.440800
C -10.728400 -11.054500 -72.578500
H -10.554400 -11.633500 -73.311100
C -9.939600 -9.742600 -70.740800
C -9.706500 -10.641400 -71.805300
H -9.208300 -9.413400 -70.230800
H -8.826000 -10.954300 -71.979200
68
Fragment
H -21.954600 -14.212700 -62.755700
H -21.440400 -12.962600 -64.610900
H -21.324700 -15.199400 -60.618400
C -21.077800 -13.861000 -62.857900
C -20.775200 -13.162100 -63.964300
C -20.456700 -14.819700 -60.682900
C -20.112000 -14.086800 -61.838700
H -19.801500 -15.524200 -58.897600
C -19.567300 -14.998100 -59.652000
C -19.445600 -12.730500 -64.137400
H -19.428400 -11.824900 -65.944900
N -18.958600 -12.068000 -65.241700
C -18.760800 -13.558200 -61.969100
C -18.414600 -12.938600 -63.213700
C -18.315700 -14.392600 -59.737500
C -17.944200 -13.693700 -60.826600
H -17.710800 -14.475100 -59.009900
C -17.613400 -11.851000 -65.059400
C -17.202900 -12.375900 -63.844900
H -17.152200 -13.244300 -60.682900
H -17.144200 -10.775200 -66.766300
C -16.801600 -11.115900 -65.948200
C -15.795200 -12.250800 -63.531000
H -15.583500 -13.540500 -61.894000
C -15.515900 -10.916800 -65.587400
C -15.141600 -12.866800 -62.428800
C -14.988900 -11.469000 -64.403100
H -14.953900 -10.392200 -66.144800
C -13.828000 -12.629100 -62.137100
C -13.618100 -11.241800 -64.050600
H -13.433500 -13.041400 -61.377700
H -13.082800 -10.691500 -64.610100
C -13.064100 -11.790300 -62.938800
H -12.161500 -11.602400 -62.711200
H -17.741400 -8.256000 -69.858300
H -17.243900 -7.232900 -67.850900
C -16.853000 -8.262000 -69.521300
H -16.636200 -9.545200 -71.952400
C -16.562000 -7.687500 -68.331100
N -15.896300 -9.457600 -71.484700
C -15.805100 -8.873500 -70.264800
H -15.664000 -6.683200 -66.092800
C -15.257900 -7.757100 -67.793900
H -15.041200 -10.794800 -73.680300
C -14.979600 -7.175900 -66.529100
C -14.663600 -9.886200 -71.875300
C -14.479800 -8.932700 -69.812600
C -14.364900 -10.602900 -73.041200
C -14.211000 -8.435200 -68.487400
C -13.768700 -7.298100 -65.925600
C -13.704800 -9.553100 -70.902600
H -13.599300 -6.863400 -65.096200
C -13.120800 -11.004900 -73.232300
C -13.003900 -8.627700 -67.757400
H -12.922300 -11.545300 -73.988300
C -12.783100 -8.069500 -66.531600
C -12.325400 -9.848500 -71.173700
H -12.322200 -9.168000 -68.140000
C -12.050100 -10.646500 -72.321600
H -11.952300 -8.207500 -66.091600
H -11.361000 -8.725000 -69.735000
C -11.215300 -9.344300 -70.440800
C -10.728400 -11.054500 -72.578500
H -10.554400 -11.633500 -73.311100
C -9.939600 -9.742600 -70.740800
C -9.706500 -10.641400 -71.805300
H -9.208300 -9.413400 -70.230800
H -8.826000 -10.954300 -71.979200
