23
Fragment
H -17.221700 -13.629900 -30.082700
O -16.595500 -13.281100 -29.684000
H -15.472700 -12.819200 -31.234200
C -15.414500 -13.402000 -30.460600
H -15.324600 -14.315000 -30.776700
H -14.377200 -12.192200 -29.186800
C -14.215200 -13.033100 -29.642600
O -13.944400 -14.060000 -28.675900
Br -13.675700 -14.120100 -24.939900
H -13.446800 -12.919900 -30.221800
C -12.875000 -12.744800 -25.899900
C -12.665000 -13.965400 -28.127500
N -12.530600 -11.586100 -25.389700
N -12.517400 -12.849400 -27.194900
H -12.460300 -14.792400 -27.663000
H -12.021400 -13.862400 -28.845900
C -11.935500 -10.980000 -26.464200
N -11.901600 -11.694600 -27.574100
H -11.796100 -9.460900 -24.538900
N -11.406400 -9.050900 -25.186900
C -11.321500 -9.622100 -26.371800
H -11.071700 -8.268900 -25.060800
O -10.780300 -9.107500 -27.357400
23
Fragment
O -17.381200 -12.982700 -33.524600
H -17.089800 -12.144100 -35.821200
C -16.840000 -13.497300 -34.510200
N -16.755100 -12.926100 -35.695100
H -16.365400 -13.336100 -36.343100
N -16.259900 -15.569800 -33.307800
C -16.226000 -14.855200 -34.417800
H -16.140100 -17.737600 -32.036100
H -15.701200 -18.667600 -33.218900
N -15.644100 -16.724600 -33.687000
N -15.630900 -15.461300 -35.492300
C -15.496500 -17.840600 -32.754500
C -15.286500 -16.620000 -34.982100
H -14.714700 -16.795100 -30.660200
Br -14.485800 -17.995300 -35.942100
O -14.217100 -17.935200 -32.206000
C -13.946300 -16.908300 -31.239400
H -13.784300 -16.067400 -31.695200
H -12.836900 -18.190200 -30.105300
C -12.747000 -17.277200 -30.421300
H -12.688800 -16.694400 -29.647800
O -11.566000 -17.156300 -31.198000
H -10.939800 -17.505100 -30.799300
46
Fragment
H -17.221700 -13.629900 -30.082700
O -16.595500 -13.281100 -29.684000
H -15.472700 -12.819200 -31.234200
C -15.414500 -13.402000 -30.460600
H -15.324600 -14.315000 -30.776700
H -14.377200 -12.192200 -29.186800
C -14.215200 -13.033100 -29.642600
O -13.944400 -14.060000 -28.675900
Br -13.675700 -14.120100 -24.939900
H -13.446800 -12.919900 -30.221800
C -12.875000 -12.744800 -25.899900
C -12.665000 -13.965400 -28.127500
N -12.530600 -11.586100 -25.389700
N -12.517400 -12.849400 -27.194900
H -12.460300 -14.792400 -27.663000
H -12.021400 -13.862400 -28.845900
C -11.935500 -10.980000 -26.464200
N -11.901600 -11.694600 -27.574100
H -11.796100 -9.460900 -24.538900
N -11.406400 -9.050900 -25.186900
C -11.321500 -9.622100 -26.371800
H -11.071700 -8.268900 -25.060800
O -10.780300 -9.107500 -27.357400
O -17.381200 -12.982700 -33.524600
H -17.089800 -12.144100 -35.821200
C -16.840000 -13.497300 -34.510200
N -16.755100 -12.926100 -35.695100
H -16.365400 -13.336100 -36.343100
N -16.259900 -15.569800 -33.307800
C -16.226000 -14.855200 -34.417800
H -16.140100 -17.737600 -32.036100
H -15.701200 -18.667600 -33.218900
N -15.644100 -16.724600 -33.687000
N -15.630900 -15.461300 -35.492300
C -15.496500 -17.840600 -32.754500
C -15.286500 -16.620000 -34.982100
H -14.714700 -16.795100 -30.660200
Br -14.485800 -17.995300 -35.942100
O -14.217100 -17.935200 -32.206000
C -13.946300 -16.908300 -31.239400
H -13.784300 -16.067400 -31.695200
H -12.836900 -18.190200 -30.105300
C -12.747000 -17.277200 -30.421300
H -12.688800 -16.694400 -29.647800
O -11.566000 -17.156300 -31.198000
H -10.939800 -17.505100 -30.799300
