23
Fragment
H -17.221700 -13.629900 -30.082700
O -16.595500 -13.281100 -29.684000
H -15.472700 -12.819200 -31.234200
C -15.414500 -13.402000 -30.460600
H -15.324600 -14.315000 -30.776700
H -14.377200 -12.192200 -29.186800
C -14.215200 -13.033100 -29.642600
O -13.944400 -14.060000 -28.675900
Br -13.675700 -14.120100 -24.939900
H -13.446800 -12.919900 -30.221800
C -12.875000 -12.744800 -25.899900
C -12.665000 -13.965400 -28.127500
N -12.530600 -11.586100 -25.389700
N -12.517400 -12.849400 -27.194900
H -12.460300 -14.792400 -27.663000
H -12.021400 -13.862400 -28.845900
C -11.935500 -10.980000 -26.464200
N -11.901600 -11.694600 -27.574100
H -11.796100 -9.460900 -24.538900
N -11.406400 -9.050900 -25.186900
C -11.321500 -9.622100 -26.371800
H -11.071700 -8.268900 -25.060800
O -10.780300 -9.107500 -27.357400
23
Fragment
H -17.596600 -13.496500 -21.385200
O -16.970300 -13.845300 -20.986500
H -15.847600 -14.307200 -22.536800
C -15.789300 -13.724400 -21.763200
H -15.699500 -12.811400 -22.079300
H -14.752100 -14.934200 -20.489400
C -14.590100 -14.093300 -20.945100
O -14.319300 -13.066400 -19.978500
Br -14.050500 -13.006300 -16.242400
H -13.821700 -14.206500 -21.524400
C -13.249800 -14.381600 -17.202500
C -13.039900 -13.161000 -19.430000
N -12.905500 -15.540300 -16.692300
N -12.892300 -14.277000 -18.497500
H -12.835200 -12.334000 -18.965600
H -12.396300 -13.264000 -20.148500
C -12.310400 -16.146400 -17.766800
N -12.276400 -15.431800 -18.876700
H -12.171000 -17.665500 -15.841500
N -11.781300 -18.075500 -16.489400
C -11.696400 -17.504300 -17.674400
H -11.446600 -18.857500 -16.363300
O -11.155200 -18.018900 -18.660000
46
Fragment
H -17.221700 -13.629900 -30.082700
O -16.595500 -13.281100 -29.684000
H -15.472700 -12.819200 -31.234200
C -15.414500 -13.402000 -30.460600
H -15.324600 -14.315000 -30.776700
H -14.377200 -12.192200 -29.186800
C -14.215200 -13.033100 -29.642600
O -13.944400 -14.060000 -28.675900
Br -13.675700 -14.120100 -24.939900
H -13.446800 -12.919900 -30.221800
C -12.875000 -12.744800 -25.899900
C -12.665000 -13.965400 -28.127500
N -12.530600 -11.586100 -25.389700
N -12.517400 -12.849400 -27.194900
H -12.460300 -14.792400 -27.663000
H -12.021400 -13.862400 -28.845900
C -11.935500 -10.980000 -26.464200
N -11.901600 -11.694600 -27.574100
H -11.796100 -9.460900 -24.538900
N -11.406400 -9.050900 -25.186900
C -11.321500 -9.622100 -26.371800
H -11.071700 -8.268900 -25.060800
O -10.780300 -9.107500 -27.357400
H -17.596600 -13.496500 -21.385200
O -16.970300 -13.845300 -20.986500
H -15.847600 -14.307200 -22.536800
C -15.789300 -13.724400 -21.763200
H -15.699500 -12.811400 -22.079300
H -14.752100 -14.934200 -20.489400
C -14.590100 -14.093300 -20.945100
O -14.319300 -13.066400 -19.978500
Br -14.050500 -13.006300 -16.242400
H -13.821700 -14.206500 -21.524400
C -13.249800 -14.381600 -17.202500
C -13.039900 -13.161000 -19.430000
N -12.905500 -15.540300 -16.692300
N -12.892300 -14.277000 -18.497500
H -12.835200 -12.334000 -18.965600
H -12.396300 -13.264000 -20.148500
C -12.310400 -16.146400 -17.766800
N -12.276400 -15.431800 -18.876700
H -12.171000 -17.665500 -15.841500
N -11.781300 -18.075500 -16.489400
C -11.696400 -17.504300 -17.674400
H -11.446600 -18.857500 -16.363300
O -11.155200 -18.018900 -18.660000
