23
Fragment
H -17.221700 -13.629900 -30.082700
O -16.595500 -13.281100 -29.684000
H -15.472700 -12.819200 -31.234200
C -15.414500 -13.402000 -30.460600
H -15.324600 -14.315000 -30.776700
H -14.377200 -12.192200 -29.186800
C -14.215200 -13.033100 -29.642600
O -13.944400 -14.060000 -28.675900
Br -13.675700 -14.120100 -24.939900
H -13.446800 -12.919900 -30.221800
C -12.875000 -12.744800 -25.899900
C -12.665000 -13.965400 -28.127500
N -12.530600 -11.586100 -25.389700
N -12.517400 -12.849400 -27.194900
H -12.460300 -14.792400 -27.663000
H -12.021400 -13.862400 -28.845900
C -11.935500 -10.980000 -26.464200
N -11.901600 -11.694600 -27.574100
H -11.796100 -9.460900 -24.538900
N -11.406400 -9.050900 -25.186900
C -11.321500 -9.622100 -26.371800
H -11.071700 -8.268900 -25.060800
O -10.780300 -9.107500 -27.357400
23
Fragment
O -10.059700 -6.393300 -24.827100
H -9.768300 -7.231900 -27.123800
C -9.518500 -5.878700 -25.812700
N -9.433500 -6.449900 -26.997700
H -9.043900 -6.039900 -27.645600
N -8.938400 -3.806200 -24.610400
C -8.904400 -4.520800 -25.720400
H -8.818500 -1.638400 -23.338700
H -8.379600 -0.708400 -24.521500
N -8.322500 -2.651400 -24.989600
N -8.309400 -3.914700 -26.794900
C -8.174900 -1.535400 -24.057100
C -7.965000 -2.756000 -26.284700
H -7.393200 -2.580900 -21.962700
Br -7.164300 -1.380700 -27.244700
O -6.895600 -1.440800 -23.508600
C -6.624800 -2.467700 -22.542000
H -6.462700 -3.308600 -22.997700
H -5.515300 -1.185800 -21.407800
C -5.425500 -2.098800 -21.723900
H -5.367300 -2.681600 -20.950400
O -4.244500 -2.219700 -22.500600
H -3.618300 -1.870900 -22.101900
46
Fragment
H -17.221700 -13.629900 -30.082700
O -16.595500 -13.281100 -29.684000
H -15.472700 -12.819200 -31.234200
C -15.414500 -13.402000 -30.460600
H -15.324600 -14.315000 -30.776700
H -14.377200 -12.192200 -29.186800
C -14.215200 -13.033100 -29.642600
O -13.944400 -14.060000 -28.675900
Br -13.675700 -14.120100 -24.939900
H -13.446800 -12.919900 -30.221800
C -12.875000 -12.744800 -25.899900
C -12.665000 -13.965400 -28.127500
N -12.530600 -11.586100 -25.389700
N -12.517400 -12.849400 -27.194900
H -12.460300 -14.792400 -27.663000
H -12.021400 -13.862400 -28.845900
C -11.935500 -10.980000 -26.464200
N -11.901600 -11.694600 -27.574100
H -11.796100 -9.460900 -24.538900
N -11.406400 -9.050900 -25.186900
C -11.321500 -9.622100 -26.371800
H -11.071700 -8.268900 -25.060800
O -10.780300 -9.107500 -27.357400
O -10.059700 -6.393300 -24.827100
H -9.768300 -7.231900 -27.123800
C -9.518500 -5.878700 -25.812700
N -9.433500 -6.449900 -26.997700
H -9.043900 -6.039900 -27.645600
N -8.938400 -3.806200 -24.610400
C -8.904400 -4.520800 -25.720400
H -8.818500 -1.638400 -23.338700
H -8.379600 -0.708400 -24.521500
N -8.322500 -2.651400 -24.989600
N -8.309400 -3.914700 -26.794900
C -8.174900 -1.535400 -24.057100
C -7.965000 -2.756000 -26.284700
H -7.393200 -2.580900 -21.962700
Br -7.164300 -1.380700 -27.244700
O -6.895600 -1.440800 -23.508600
C -6.624800 -2.467700 -22.542000
H -6.462700 -3.308600 -22.997700
H -5.515300 -1.185800 -21.407800
C -5.425500 -2.098800 -21.723900
H -5.367300 -2.681600 -20.950400
O -4.244500 -2.219700 -22.500600
H -3.618300 -1.870900 -22.101900
