23
Fragment
H -17.221700 -13.629900 -30.082700
O -16.595500 -13.281100 -29.684000
H -15.472700 -12.819200 -31.234200
C -15.414500 -13.402000 -30.460600
H -15.324600 -14.315000 -30.776700
H -14.377200 -12.192200 -29.186800
C -14.215200 -13.033100 -29.642600
O -13.944400 -14.060000 -28.675900
Br -13.675700 -14.120100 -24.939900
H -13.446800 -12.919900 -30.221800
C -12.875000 -12.744800 -25.899900
C -12.665000 -13.965400 -28.127500
N -12.530600 -11.586100 -25.389700
N -12.517400 -12.849400 -27.194900
H -12.460300 -14.792400 -27.663000
H -12.021400 -13.862400 -28.845900
C -11.935500 -10.980000 -26.464200
N -11.901600 -11.694600 -27.574100
H -11.796100 -9.460900 -24.538900
N -11.406400 -9.050900 -25.186900
C -11.321500 -9.622100 -26.371800
H -11.071700 -8.268900 -25.060800
O -10.780300 -9.107500 -27.357400
23
Fragment
H -9.525300 -13.629900 -30.082700
O -8.899100 -13.281100 -29.684000
H -7.776300 -12.819200 -31.234200
C -7.718100 -13.402000 -30.460600
H -7.628200 -14.315000 -30.776700
H -6.680800 -12.192200 -29.186800
C -6.518800 -13.033100 -29.642600
O -6.248000 -14.060000 -28.675900
Br -5.979300 -14.120100 -24.939900
H -5.750400 -12.919900 -30.221800
C -5.178600 -12.744800 -25.899900
C -4.968600 -13.965400 -28.127500
N -4.834200 -11.586100 -25.389700
N -4.821000 -12.849400 -27.194900
H -4.763900 -14.792400 -27.663000
H -4.325000 -13.862400 -28.845900
C -4.239100 -10.980000 -26.464200
N -4.205200 -11.694600 -27.574100
H -4.099700 -9.460900 -24.538900
N -3.710000 -9.050900 -25.186900
C -3.625100 -9.622100 -26.371800
H -3.375300 -8.268900 -25.060800
O -3.083900 -9.107500 -27.357400
46
Fragment
H -17.221700 -13.629900 -30.082700
O -16.595500 -13.281100 -29.684000
H -15.472700 -12.819200 -31.234200
C -15.414500 -13.402000 -30.460600
H -15.324600 -14.315000 -30.776700
H -14.377200 -12.192200 -29.186800
C -14.215200 -13.033100 -29.642600
O -13.944400 -14.060000 -28.675900
Br -13.675700 -14.120100 -24.939900
H -13.446800 -12.919900 -30.221800
C -12.875000 -12.744800 -25.899900
C -12.665000 -13.965400 -28.127500
N -12.530600 -11.586100 -25.389700
N -12.517400 -12.849400 -27.194900
H -12.460300 -14.792400 -27.663000
H -12.021400 -13.862400 -28.845900
C -11.935500 -10.980000 -26.464200
N -11.901600 -11.694600 -27.574100
H -11.796100 -9.460900 -24.538900
N -11.406400 -9.050900 -25.186900
C -11.321500 -9.622100 -26.371800
H -11.071700 -8.268900 -25.060800
O -10.780300 -9.107500 -27.357400
H -9.525300 -13.629900 -30.082700
O -8.899100 -13.281100 -29.684000
H -7.776300 -12.819200 -31.234200
C -7.718100 -13.402000 -30.460600
H -7.628200 -14.315000 -30.776700
H -6.680800 -12.192200 -29.186800
C -6.518800 -13.033100 -29.642600
O -6.248000 -14.060000 -28.675900
Br -5.979300 -14.120100 -24.939900
H -5.750400 -12.919900 -30.221800
C -5.178600 -12.744800 -25.899900
C -4.968600 -13.965400 -28.127500
N -4.834200 -11.586100 -25.389700
N -4.821000 -12.849400 -27.194900
H -4.763900 -14.792400 -27.663000
H -4.325000 -13.862400 -28.845900
C -4.239100 -10.980000 -26.464200
N -4.205200 -11.694600 -27.574100
H -4.099700 -9.460900 -24.538900
N -3.710000 -9.050900 -25.186900
C -3.625100 -9.622100 -26.371800
H -3.375300 -8.268900 -25.060800
O -3.083900 -9.107500 -27.357400
