23
Fragment
H -17.221700 -13.629900 -30.082700
O -16.595500 -13.281100 -29.684000
H -15.472700 -12.819200 -31.234200
C -15.414500 -13.402000 -30.460600
H -15.324600 -14.315000 -30.776700
H -14.377200 -12.192200 -29.186800
C -14.215200 -13.033100 -29.642600
O -13.944400 -14.060000 -28.675900
Br -13.675700 -14.120100 -24.939900
H -13.446800 -12.919900 -30.221800
C -12.875000 -12.744800 -25.899900
C -12.665000 -13.965400 -28.127500
N -12.530600 -11.586100 -25.389700
N -12.517400 -12.849400 -27.194900
H -12.460300 -14.792400 -27.663000
H -12.021400 -13.862400 -28.845900
C -11.935500 -10.980000 -26.464200
N -11.901600 -11.694600 -27.574100
H -11.796100 -9.460900 -24.538900
N -11.406400 -9.050900 -25.186900
C -11.321500 -9.622100 -26.371800
H -11.071700 -8.268900 -25.060800
O -10.780300 -9.107500 -27.357400
23
Fragment
H -16.846800 -13.496500 -38.780100
O -16.220600 -13.845300 -38.381400
H -15.097800 -14.307200 -39.931600
C -15.039600 -13.724400 -39.158100
H -14.949800 -12.811400 -39.474100
H -14.002400 -14.934200 -37.884200
C -13.840300 -14.093300 -38.340000
O -13.569500 -13.066400 -37.373400
Br -13.300800 -13.006300 -33.637300
H -13.071900 -14.206500 -38.919200
C -12.500100 -14.381600 -34.597300
C -12.290200 -13.161000 -36.824900
N -12.155700 -15.540300 -34.087100
N -12.142600 -14.277000 -35.892400
H -12.085500 -12.334000 -36.360500
H -11.646600 -13.264000 -37.543300
C -11.560700 -16.146400 -35.161600
N -11.526700 -15.431800 -36.271600
H -11.421200 -17.665500 -33.236300
N -11.031600 -18.075500 -33.884300
C -10.946600 -17.504300 -35.069200
H -10.696800 -18.857500 -33.758200
O -10.405400 -18.018900 -36.054800
46
Fragment
H -17.221700 -13.629900 -30.082700
O -16.595500 -13.281100 -29.684000
H -15.472700 -12.819200 -31.234200
C -15.414500 -13.402000 -30.460600
H -15.324600 -14.315000 -30.776700
H -14.377200 -12.192200 -29.186800
C -14.215200 -13.033100 -29.642600
O -13.944400 -14.060000 -28.675900
Br -13.675700 -14.120100 -24.939900
H -13.446800 -12.919900 -30.221800
C -12.875000 -12.744800 -25.899900
C -12.665000 -13.965400 -28.127500
N -12.530600 -11.586100 -25.389700
N -12.517400 -12.849400 -27.194900
H -12.460300 -14.792400 -27.663000
H -12.021400 -13.862400 -28.845900
C -11.935500 -10.980000 -26.464200
N -11.901600 -11.694600 -27.574100
H -11.796100 -9.460900 -24.538900
N -11.406400 -9.050900 -25.186900
C -11.321500 -9.622100 -26.371800
H -11.071700 -8.268900 -25.060800
O -10.780300 -9.107500 -27.357400
H -16.846800 -13.496500 -38.780100
O -16.220600 -13.845300 -38.381400
H -15.097800 -14.307200 -39.931600
C -15.039600 -13.724400 -39.158100
H -14.949800 -12.811400 -39.474100
H -14.002400 -14.934200 -37.884200
C -13.840300 -14.093300 -38.340000
O -13.569500 -13.066400 -37.373400
Br -13.300800 -13.006300 -33.637300
H -13.071900 -14.206500 -38.919200
C -12.500100 -14.381600 -34.597300
C -12.290200 -13.161000 -36.824900
N -12.155700 -15.540300 -34.087100
N -12.142600 -14.277000 -35.892400
H -12.085500 -12.334000 -36.360500
H -11.646600 -13.264000 -37.543300
C -11.560700 -16.146400 -35.161600
N -11.526700 -15.431800 -36.271600
H -11.421200 -17.665500 -33.236300
N -11.031600 -18.075500 -33.884300
C -10.946600 -17.504300 -35.069200
H -10.696800 -18.857500 -33.758200
O -10.405400 -18.018900 -36.054800
