23
Fragment
H -17.221700 -13.629900 -30.082700
O -16.595500 -13.281100 -29.684000
H -15.472700 -12.819200 -31.234200
C -15.414500 -13.402000 -30.460600
H -15.324600 -14.315000 -30.776700
H -14.377200 -12.192200 -29.186800
C -14.215200 -13.033100 -29.642600
O -13.944400 -14.060000 -28.675900
Br -13.675700 -14.120100 -24.939900
H -13.446800 -12.919900 -30.221800
C -12.875000 -12.744800 -25.899900
C -12.665000 -13.965400 -28.127500
N -12.530600 -11.586100 -25.389700
N -12.517400 -12.849400 -27.194900
H -12.460300 -14.792400 -27.663000
H -12.021400 -13.862400 -28.845900
C -11.935500 -10.980000 -26.464200
N -11.901600 -11.694600 -27.574100
H -11.796100 -9.460900 -24.538900
N -11.406400 -9.050900 -25.186900
C -11.321500 -9.622100 -26.371800
H -11.071700 -8.268900 -25.060800
O -10.780300 -9.107500 -27.357400
23
Fragment
H -24.918100 -13.629900 -30.082700
O -24.291900 -13.281100 -29.684000
H -23.169100 -12.819200 -31.234200
C -23.110900 -13.402000 -30.460600
H -23.021000 -14.315000 -30.776700
H -22.073600 -12.192200 -29.186800
C -21.911600 -13.033100 -29.642600
O -21.640800 -14.060000 -28.675900
Br -21.372100 -14.120100 -24.939900
H -21.143200 -12.919900 -30.221800
C -20.571400 -12.744800 -25.899900
C -20.361400 -13.965400 -28.127500
N -20.227000 -11.586100 -25.389700
N -20.213800 -12.849400 -27.194900
H -20.156700 -14.792400 -27.663000
H -19.717800 -13.862400 -28.845900
C -19.631900 -10.980000 -26.464200
N -19.598000 -11.694600 -27.574100
H -19.492500 -9.460900 -24.538900
N -19.102800 -9.050900 -25.186900
C -19.017900 -9.622100 -26.371800
H -18.768100 -8.268900 -25.060800
O -18.476700 -9.107500 -27.357400
46
Fragment
H -17.221700 -13.629900 -30.082700
O -16.595500 -13.281100 -29.684000
H -15.472700 -12.819200 -31.234200
C -15.414500 -13.402000 -30.460600
H -15.324600 -14.315000 -30.776700
H -14.377200 -12.192200 -29.186800
C -14.215200 -13.033100 -29.642600
O -13.944400 -14.060000 -28.675900
Br -13.675700 -14.120100 -24.939900
H -13.446800 -12.919900 -30.221800
C -12.875000 -12.744800 -25.899900
C -12.665000 -13.965400 -28.127500
N -12.530600 -11.586100 -25.389700
N -12.517400 -12.849400 -27.194900
H -12.460300 -14.792400 -27.663000
H -12.021400 -13.862400 -28.845900
C -11.935500 -10.980000 -26.464200
N -11.901600 -11.694600 -27.574100
H -11.796100 -9.460900 -24.538900
N -11.406400 -9.050900 -25.186900
C -11.321500 -9.622100 -26.371800
H -11.071700 -8.268900 -25.060800
O -10.780300 -9.107500 -27.357400
H -24.918100 -13.629900 -30.082700
O -24.291900 -13.281100 -29.684000
H -23.169100 -12.819200 -31.234200
C -23.110900 -13.402000 -30.460600
H -23.021000 -14.315000 -30.776700
H -22.073600 -12.192200 -29.186800
C -21.911600 -13.033100 -29.642600
O -21.640800 -14.060000 -28.675900
Br -21.372100 -14.120100 -24.939900
H -21.143200 -12.919900 -30.221800
C -20.571400 -12.744800 -25.899900
C -20.361400 -13.965400 -28.127500
N -20.227000 -11.586100 -25.389700
N -20.213800 -12.849400 -27.194900
H -20.156700 -14.792400 -27.663000
H -19.717800 -13.862400 -28.845900
C -19.631900 -10.980000 -26.464200
N -19.598000 -11.694600 -27.574100
H -19.492500 -9.460900 -24.538900
N -19.102800 -9.050900 -25.186900
C -19.017900 -9.622100 -26.371800
H -18.768100 -8.268900 -25.060800
O -18.476700 -9.107500 -27.357400
