23
Fragment
O -10.086200 -14.071800 -24.832900
H -9.794100 -15.039200 -27.135000
C -9.526700 -13.555000 -25.810800
N -9.420800 -14.142000 -26.995900
H -9.063500 -13.774800 -27.764100
N -8.963300 -11.491400 -24.601000
C -8.919100 -12.198000 -25.720300
H -8.855000 -9.304300 -23.332300
H -8.363500 -8.387900 -24.505400
N -8.348600 -10.332700 -24.972100
N -8.317100 -11.587800 -26.777000
C -8.190800 -9.218700 -24.034400
C -7.984200 -10.430600 -26.262200
H -7.468800 -10.272500 -21.910600
Cl -7.223900 -9.116300 -27.143800
O -6.930900 -9.152400 -23.458300
C -6.694500 -10.183000 -22.488700
H -6.553300 -11.030000 -22.939500
H -5.551000 -8.919400 -21.349300
C -5.480100 -9.833500 -21.666400
H -5.433300 -10.418300 -20.893900
O -4.304000 -9.980100 -22.444900
H -3.609000 -9.565100 -21.856800
23
Fragment
O -17.685100 -14.071800 -24.832900
H -17.393000 -15.039200 -27.135000
C -17.125600 -13.555000 -25.810800
N -17.019700 -14.142000 -26.995900
H -16.662400 -13.774800 -27.764100
N -16.562200 -11.491400 -24.601000
C -16.518000 -12.198000 -25.720300
H -16.453900 -9.304300 -23.332300
H -15.962400 -8.387900 -24.505400
N -15.947500 -10.332700 -24.972100
N -15.916000 -11.587800 -26.777000
C -15.789700 -9.218700 -24.034400
C -15.583100 -10.430600 -26.262200
H -15.067700 -10.272500 -21.910600
Cl -14.822800 -9.116300 -27.143800
O -14.529800 -9.152400 -23.458300
C -14.293400 -10.183000 -22.488700
H -14.152200 -11.030000 -22.939500
H -13.149900 -8.919400 -21.349300
C -13.079000 -9.833500 -21.666400
H -13.032200 -10.418300 -20.893900
O -11.902900 -9.980100 -22.444900
H -11.207900 -9.565100 -21.856800
46
Fragment
O -10.086200 -14.071800 -24.832900
H -9.794100 -15.039200 -27.135000
C -9.526700 -13.555000 -25.810800
N -9.420800 -14.142000 -26.995900
H -9.063500 -13.774800 -27.764100
N -8.963300 -11.491400 -24.601000
C -8.919100 -12.198000 -25.720300
H -8.855000 -9.304300 -23.332300
H -8.363500 -8.387900 -24.505400
N -8.348600 -10.332700 -24.972100
N -8.317100 -11.587800 -26.777000
C -8.190800 -9.218700 -24.034400
C -7.984200 -10.430600 -26.262200
H -7.468800 -10.272500 -21.910600
Cl -7.223900 -9.116300 -27.143800
O -6.930900 -9.152400 -23.458300
C -6.694500 -10.183000 -22.488700
H -6.553300 -11.030000 -22.939500
H -5.551000 -8.919400 -21.349300
C -5.480100 -9.833500 -21.666400
H -5.433300 -10.418300 -20.893900
O -4.304000 -9.980100 -22.444900
H -3.609000 -9.565100 -21.856800
O -17.685100 -14.071800 -24.832900
H -17.393000 -15.039200 -27.135000
C -17.125600 -13.555000 -25.810800
N -17.019700 -14.142000 -26.995900
H -16.662400 -13.774800 -27.764100
N -16.562200 -11.491400 -24.601000
C -16.518000 -12.198000 -25.720300
H -16.453900 -9.304300 -23.332300
H -15.962400 -8.387900 -24.505400
N -15.947500 -10.332700 -24.972100
N -15.916000 -11.587800 -26.777000
C -15.789700 -9.218700 -24.034400
C -15.583100 -10.430600 -26.262200
H -15.067700 -10.272500 -21.910600
Cl -14.822800 -9.116300 -27.143800
O -14.529800 -9.152400 -23.458300
C -14.293400 -10.183000 -22.488700
H -14.152200 -11.030000 -22.939500
H -13.149900 -8.919400 -21.349300
C -13.079000 -9.833500 -21.666400
H -13.032200 -10.418300 -20.893900
O -11.902900 -9.980100 -22.444900
H -11.207900 -9.565100 -21.856800
