23
Fragment
O -10.086200 -14.071800 -24.832900
H -9.794100 -15.039200 -27.135000
C -9.526700 -13.555000 -25.810800
N -9.420800 -14.142000 -26.995900
H -9.063500 -13.774800 -27.764100
N -8.963300 -11.491400 -24.601000
C -8.919100 -12.198000 -25.720300
H -8.855000 -9.304300 -23.332300
H -8.363500 -8.387900 -24.505400
N -8.348600 -10.332700 -24.972100
N -8.317100 -11.587800 -26.777000
C -8.190800 -9.218700 -24.034400
C -7.984200 -10.430600 -26.262200
H -7.468800 -10.272500 -21.910600
Cl -7.223900 -9.116300 -27.143800
O -6.930900 -9.152400 -23.458300
C -6.694500 -10.183000 -22.488700
H -6.553300 -11.030000 -22.939500
H -5.551000 -8.919400 -21.349300
C -5.480100 -9.833500 -21.666400
H -5.433300 -10.418300 -20.893900
O -4.304000 -9.980100 -22.444900
H -3.609000 -9.565100 -21.856800
23
Fragment
H -9.669900 -13.578100 -30.282400
O -8.974900 -13.163100 -29.694300
H -7.845700 -12.724900 -31.245300
C -7.798900 -13.309700 -30.472800
H -7.727900 -14.223800 -30.789900
H -6.725600 -12.113200 -29.199700
C -6.584400 -12.960200 -29.650500
O -6.348100 -13.990800 -28.680900
Cl -6.055100 -14.026900 -24.995400
H -5.810100 -12.870700 -30.228600
C -5.294700 -12.712600 -25.877000
C -5.088100 -13.924500 -28.104800
N -4.961800 -11.555400 -25.362200
N -4.930400 -12.810500 -27.167100
H -4.915500 -14.755300 -27.633800
H -4.423900 -13.838900 -28.806900
C -4.359900 -10.945200 -26.418900
N -4.315600 -11.651800 -27.538200
H -4.215500 -9.368400 -24.375100
N -3.858200 -9.001200 -25.143300
C -3.752200 -9.588200 -26.328400
H -3.484900 -8.104000 -25.004200
O -3.192700 -9.071400 -27.306300
46
Fragment
O -10.086200 -14.071800 -24.832900
H -9.794100 -15.039200 -27.135000
C -9.526700 -13.555000 -25.810800
N -9.420800 -14.142000 -26.995900
H -9.063500 -13.774800 -27.764100
N -8.963300 -11.491400 -24.601000
C -8.919100 -12.198000 -25.720300
H -8.855000 -9.304300 -23.332300
H -8.363500 -8.387900 -24.505400
N -8.348600 -10.332700 -24.972100
N -8.317100 -11.587800 -26.777000
C -8.190800 -9.218700 -24.034400
C -7.984200 -10.430600 -26.262200
H -7.468800 -10.272500 -21.910600
Cl -7.223900 -9.116300 -27.143800
O -6.930900 -9.152400 -23.458300
C -6.694500 -10.183000 -22.488700
H -6.553300 -11.030000 -22.939500
H -5.551000 -8.919400 -21.349300
C -5.480100 -9.833500 -21.666400
H -5.433300 -10.418300 -20.893900
O -4.304000 -9.980100 -22.444900
H -3.609000 -9.565100 -21.856800
H -9.669900 -13.578100 -30.282400
O -8.974900 -13.163100 -29.694300
H -7.845700 -12.724900 -31.245300
C -7.798900 -13.309700 -30.472800
H -7.727900 -14.223800 -30.789900
H -6.725600 -12.113200 -29.199700
C -6.584400 -12.960200 -29.650500
O -6.348100 -13.990800 -28.680900
Cl -6.055100 -14.026900 -24.995400
H -5.810100 -12.870700 -30.228600
C -5.294700 -12.712600 -25.877000
C -5.088100 -13.924500 -28.104800
N -4.961800 -11.555400 -25.362200
N -4.930400 -12.810500 -27.167100
H -4.915500 -14.755300 -27.633800
H -4.423900 -13.838900 -28.806900
C -4.359900 -10.945200 -26.418900
N -4.315600 -11.651800 -27.538200
H -4.215500 -9.368400 -24.375100
N -3.858200 -9.001200 -25.143300
C -3.752200 -9.588200 -26.328400
H -3.484900 -8.104000 -25.004200
O -3.192700 -9.071400 -27.306300
