23
Fragment
O -10.086200 -14.071800 -24.832900
H -9.794100 -15.039200 -27.135000
C -9.526700 -13.555000 -25.810800
N -9.420800 -14.142000 -26.995900
H -9.063500 -13.774800 -27.764100
N -8.963300 -11.491400 -24.601000
C -8.919100 -12.198000 -25.720300
H -8.855000 -9.304300 -23.332300
H -8.363500 -8.387900 -24.505400
N -8.348600 -10.332700 -24.972100
N -8.317100 -11.587800 -26.777000
C -8.190800 -9.218700 -24.034400
C -7.984200 -10.430600 -26.262200
H -7.468800 -10.272500 -21.910600
Cl -7.223900 -9.116300 -27.143800
O -6.930900 -9.152400 -23.458300
C -6.694500 -10.183000 -22.488700
H -6.553300 -11.030000 -22.939500
H -5.551000 -8.919400 -21.349300
C -5.480100 -9.833500 -21.666400
H -5.433300 -10.418300 -20.893900
O -4.304000 -9.980100 -22.444900
H -3.609000 -9.565100 -21.856800
23
Fragment
H -17.268800 -21.292500 -30.282400
O -16.573800 -20.877500 -29.694300
H -15.444600 -20.439300 -31.245300
C -15.397800 -21.024100 -30.472800
H -15.326800 -21.938200 -30.789900
H -14.324500 -19.827600 -29.199700
C -14.183300 -20.674600 -29.650500
O -13.947000 -21.705200 -28.680900
Cl -13.654000 -21.741300 -24.995400
H -13.409000 -20.585100 -30.228600
C -12.893600 -20.427000 -25.877000
C -12.687000 -21.638900 -28.104800
N -12.560700 -19.269800 -25.362200
N -12.529300 -20.524900 -27.167100
H -12.514400 -22.469700 -27.633800
H -12.022800 -21.553300 -28.806900
C -11.958800 -18.659600 -26.418900
N -11.914500 -19.366200 -27.538200
H -11.814400 -17.082800 -24.375100
N -11.457100 -16.715600 -25.143300
C -11.351100 -17.302600 -26.328400
H -11.083800 -15.818400 -25.004200
O -10.791600 -16.785800 -27.306300
46
Fragment
O -10.086200 -14.071800 -24.832900
H -9.794100 -15.039200 -27.135000
C -9.526700 -13.555000 -25.810800
N -9.420800 -14.142000 -26.995900
H -9.063500 -13.774800 -27.764100
N -8.963300 -11.491400 -24.601000
C -8.919100 -12.198000 -25.720300
H -8.855000 -9.304300 -23.332300
H -8.363500 -8.387900 -24.505400
N -8.348600 -10.332700 -24.972100
N -8.317100 -11.587800 -26.777000
C -8.190800 -9.218700 -24.034400
C -7.984200 -10.430600 -26.262200
H -7.468800 -10.272500 -21.910600
Cl -7.223900 -9.116300 -27.143800
O -6.930900 -9.152400 -23.458300
C -6.694500 -10.183000 -22.488700
H -6.553300 -11.030000 -22.939500
H -5.551000 -8.919400 -21.349300
C -5.480100 -9.833500 -21.666400
H -5.433300 -10.418300 -20.893900
O -4.304000 -9.980100 -22.444900
H -3.609000 -9.565100 -21.856800
H -17.268800 -21.292500 -30.282400
O -16.573800 -20.877500 -29.694300
H -15.444600 -20.439300 -31.245300
C -15.397800 -21.024100 -30.472800
H -15.326800 -21.938200 -30.789900
H -14.324500 -19.827600 -29.199700
C -14.183300 -20.674600 -29.650500
O -13.947000 -21.705200 -28.680900
Cl -13.654000 -21.741300 -24.995400
H -13.409000 -20.585100 -30.228600
C -12.893600 -20.427000 -25.877000
C -12.687000 -21.638900 -28.104800
N -12.560700 -19.269800 -25.362200
N -12.529300 -20.524900 -27.167100
H -12.514400 -22.469700 -27.633800
H -12.022800 -21.553300 -28.806900
C -11.958800 -18.659600 -26.418900
N -11.914500 -19.366200 -27.538200
H -11.814400 -17.082800 -24.375100
N -11.457100 -16.715600 -25.143300
C -11.351100 -17.302600 -26.328400
H -11.083800 -15.818400 -25.004200
O -10.791600 -16.785800 -27.306300
