21
Fragment
H -10.150900 -35.954500 -22.194200
H -9.703500 -34.932300 -17.443700
N -9.456700 -35.709200 -19.489200
C -9.435800 -35.793500 -18.154800
C -9.144900 -36.470700 -22.309200
N -9.071500 -37.020100 -17.697900
C -9.066600 -36.958800 -19.897700
H -9.060300 -35.417800 -22.148900
N -8.924700 -37.388100 -21.180600
H -8.857600 -37.334400 -16.672200
C -8.821900 -37.779000 -18.835600
C -8.561200 -38.693900 -21.428700
O -8.447900 -39.125700 -22.555800
C -8.434600 -39.120600 -18.977800
H -8.396200 -41.525200 -20.030800
N -8.331200 -39.498800 -20.333400
H -8.326300 -36.670000 -23.056600
H -8.305300 -41.269700 -21.513400
O -8.187200 -39.930700 -18.077600
C -7.948800 -40.912000 -20.636000
H -7.172800 -41.090800 -19.924900
21
Fragment
H -6.809200 -35.571200 -25.462100
C -6.033200 -35.750000 -24.751000
O -5.794800 -36.731300 -27.309400
H -5.676700 -35.392300 -23.873600
H -5.655700 -39.992000 -22.330400
N -5.650800 -37.163200 -25.053600
H -5.585800 -35.136800 -25.356200
C -5.547400 -37.541400 -26.409200
O -5.534100 -37.536300 -22.831200
C -5.420800 -37.968100 -23.958300
C -5.160100 -38.883000 -26.551400
H -5.124400 -39.327600 -28.714800
N -5.057300 -39.273900 -24.206400
H -4.921700 -41.244200 -23.238100
C -4.915400 -39.703200 -25.489300
N -4.910500 -39.641900 -27.689100
C -4.837100 -40.191300 -23.077800
C -4.546200 -40.868500 -27.232200
N -4.525300 -40.952800 -25.897800
H -4.278500 -41.729700 -27.943300
H -3.831100 -40.707500 -23.192800
42
Fragment
H -10.150900 -35.954500 -22.194200
H -9.703500 -34.932300 -17.443700
N -9.456700 -35.709200 -19.489200
C -9.435800 -35.793500 -18.154800
C -9.144900 -36.470700 -22.309200
N -9.071500 -37.020100 -17.697900
C -9.066600 -36.958800 -19.897700
H -9.060300 -35.417800 -22.148900
N -8.924700 -37.388100 -21.180600
H -8.857600 -37.334400 -16.672200
C -8.821900 -37.779000 -18.835600
C -8.561200 -38.693900 -21.428700
O -8.447900 -39.125700 -22.555800
C -8.434600 -39.120600 -18.977800
H -8.396200 -41.525200 -20.030800
N -8.331200 -39.498800 -20.333400
H -8.326300 -36.670000 -23.056600
H -8.305300 -41.269700 -21.513400
O -8.187200 -39.930700 -18.077600
C -7.948800 -40.912000 -20.636000
H -7.172800 -41.090800 -19.924900
H -6.809200 -35.571200 -25.462100
C -6.033200 -35.750000 -24.751000
O -5.794800 -36.731300 -27.309400
H -5.676700 -35.392300 -23.873600
H -5.655700 -39.992000 -22.330400
N -5.650800 -37.163200 -25.053600
H -5.585800 -35.136800 -25.356200
C -5.547400 -37.541400 -26.409200
O -5.534100 -37.536300 -22.831200
C -5.420800 -37.968100 -23.958300
C -5.160100 -38.883000 -26.551400
H -5.124400 -39.327600 -28.714800
N -5.057300 -39.273900 -24.206400
H -4.921700 -41.244200 -23.238100
C -4.915400 -39.703200 -25.489300
N -4.910500 -39.641900 -27.689100
C -4.837100 -40.191300 -23.077800
C -4.546200 -40.868500 -27.232200
N -4.525300 -40.952800 -25.897800
H -4.278500 -41.729700 -27.943300
H -3.831100 -40.707500 -23.192800
