21
Fragment
H -10.150900 -35.954500 -22.194200
H -9.703500 -34.932300 -17.443700
N -9.456700 -35.709200 -19.489200
C -9.435800 -35.793500 -18.154800
C -9.144900 -36.470700 -22.309200
N -9.071500 -37.020100 -17.697900
C -9.066600 -36.958800 -19.897700
H -9.060300 -35.417800 -22.148900
N -8.924700 -37.388100 -21.180600
H -8.857600 -37.334400 -16.672200
C -8.821900 -37.779000 -18.835600
C -8.561200 -38.693900 -21.428700
O -8.447900 -39.125700 -22.555800
C -8.434600 -39.120600 -18.977800
H -8.396200 -41.525200 -20.030800
N -8.331200 -39.498800 -20.333400
H -8.326300 -36.670000 -23.056600
H -8.305300 -41.269700 -21.513400
O -8.187200 -39.930700 -18.077600
C -7.948800 -40.912000 -20.636000
H -7.172800 -41.090800 -19.924900
21
Fragment
H -10.304700 -35.571200 -12.360400
C -9.528700 -35.750000 -13.071500
O -9.290300 -36.731300 -10.513100
H -9.172200 -35.392300 -13.948900
H -9.151200 -39.992000 -15.492100
N -9.146300 -37.163200 -12.768900
H -9.081300 -35.136800 -12.466300
C -9.042900 -37.541400 -11.413300
O -9.029600 -37.536300 -14.991300
C -8.916300 -37.968100 -13.864200
C -8.655600 -38.883000 -11.271100
H -8.619900 -39.327600 -9.107700
N -8.552800 -39.273900 -13.616100
H -8.417200 -41.244200 -14.584400
C -8.410900 -39.703200 -12.333200
N -8.406000 -39.641900 -10.133400
C -8.332600 -40.191300 -14.744700
C -8.041700 -40.868500 -10.590300
N -8.020800 -40.952800 -11.924700
H -7.774000 -41.729700 -9.879200
H -7.326600 -40.707500 -14.629700
42
Fragment
H -10.150900 -35.954500 -22.194200
H -9.703500 -34.932300 -17.443700
N -9.456700 -35.709200 -19.489200
C -9.435800 -35.793500 -18.154800
C -9.144900 -36.470700 -22.309200
N -9.071500 -37.020100 -17.697900
C -9.066600 -36.958800 -19.897700
H -9.060300 -35.417800 -22.148900
N -8.924700 -37.388100 -21.180600
H -8.857600 -37.334400 -16.672200
C -8.821900 -37.779000 -18.835600
C -8.561200 -38.693900 -21.428700
O -8.447900 -39.125700 -22.555800
C -8.434600 -39.120600 -18.977800
H -8.396200 -41.525200 -20.030800
N -8.331200 -39.498800 -20.333400
H -8.326300 -36.670000 -23.056600
H -8.305300 -41.269700 -21.513400
O -8.187200 -39.930700 -18.077600
C -7.948800 -40.912000 -20.636000
H -7.172800 -41.090800 -19.924900
H -10.304700 -35.571200 -12.360400
C -9.528700 -35.750000 -13.071500
O -9.290300 -36.731300 -10.513100
H -9.172200 -35.392300 -13.948900
H -9.151200 -39.992000 -15.492100
N -9.146300 -37.163200 -12.768900
H -9.081300 -35.136800 -12.466300
C -9.042900 -37.541400 -11.413300
O -9.029600 -37.536300 -14.991300
C -8.916300 -37.968100 -13.864200
C -8.655600 -38.883000 -11.271100
H -8.619900 -39.327600 -9.107700
N -8.552800 -39.273900 -13.616100
H -8.417200 -41.244200 -14.584400
C -8.410900 -39.703200 -12.333200
N -8.406000 -39.641900 -10.133400
C -8.332600 -40.191300 -14.744700
C -8.041700 -40.868500 -10.590300
N -8.020800 -40.952800 -11.924700
H -7.774000 -41.729700 -9.879200
H -7.326600 -40.707500 -14.629700
