33
Fragment
H -14.431400 -13.839100 -21.564900
C -14.128100 -14.629500 -21.988900
H -14.122700 -13.847600 -23.917800
H -13.978700 -15.833800 -20.353500
C -13.965400 -14.647700 -23.398000
C -13.870300 -15.730600 -21.272600
H -13.601700 -21.522600 -18.665300
N -13.575500 -15.697700 -24.076200
H -13.548000 -20.559700 -20.853700
N -13.443000 -16.840200 -21.963100
C -13.414200 -20.569400 -18.825400
C -13.375500 -20.052800 -20.102200
C -13.326700 -16.807800 -23.345800
H -13.224000 -20.059000 -16.847600
C -13.195500 -19.730400 -17.754300
C -13.138200 -18.701400 -20.263600
C -13.122400 -18.130600 -21.617600
N -12.965500 -17.990400 -23.794200
N -12.951100 -17.842000 -15.624500
C -12.950700 -18.382300 -18.006800
N -12.924800 -17.851800 -19.238800
N -12.836500 -18.817900 -22.703700
C -12.709700 -17.495400 -16.872600
N -12.621500 -16.817400 -14.783400
N -12.216400 -16.210700 -16.884600
C -12.182200 -15.831600 -15.542600
H -11.797500 -15.642700 -18.736400
C -11.786900 -15.336200 -17.856100
N -11.780800 -14.620600 -15.129600
C -11.397200 -13.799000 -16.072300
C -11.379500 -14.123800 -17.454800
H -11.094100 -12.910200 -15.773800
H -11.088500 -13.476300 -18.131300
33
Fragment
H -12.393000 -7.428200 -11.016800
H -12.387500 -6.862100 -13.374300
C -12.102100 -8.075700 -11.693300
C -12.084300 -7.750900 -13.075800
N -11.700700 -8.572500 -14.018500
C -11.694600 -9.288100 -11.292000
H -11.684100 -9.594600 -10.411700
C -11.299300 -9.783600 -13.605500
N -11.265200 -10.162700 -12.263500
N -10.860100 -10.769400 -14.364600
C -10.771800 -11.447400 -12.275500
N -10.645100 -12.769900 -6.444400
N -10.556700 -11.803700 -9.909300
C -10.530900 -12.334300 -11.141300
N -10.530400 -11.793900 -13.523600
N -10.516100 -11.942400 -5.353900
C -10.359200 -12.082600 -7.530500
C -10.343300 -12.653400 -8.884500
C -10.286100 -13.682400 -11.393800
H -10.257500 -14.010900 -12.300500
C -10.154900 -10.759700 -5.802300
C -10.106000 -14.004700 -9.045900
C -10.067300 -14.521400 -10.322700
N -10.038600 -10.792100 -7.185000
H -9.933500 -14.511700 -8.294400
N -9.906000 -9.649700 -5.071900
H -9.879900 -15.474500 -10.482800
C -9.611300 -9.682600 -7.875500
C -9.516200 -8.599600 -5.750100
H -9.502800 -9.785700 -8.794600
H -9.358800 -7.799600 -5.230300
C -9.353400 -8.581500 -7.159200
H -9.050200 -7.791100 -7.583200
66
Fragment
H -14.431400 -13.839100 -21.564900
C -14.128100 -14.629500 -21.988900
H -14.122700 -13.847600 -23.917800
H -13.978700 -15.833800 -20.353500
C -13.965400 -14.647700 -23.398000
C -13.870300 -15.730600 -21.272600
H -13.601700 -21.522600 -18.665300
N -13.575500 -15.697700 -24.076200
H -13.548000 -20.559700 -20.853700
N -13.443000 -16.840200 -21.963100
C -13.414200 -20.569400 -18.825400
C -13.375500 -20.052800 -20.102200
C -13.326700 -16.807800 -23.345800
H -13.224000 -20.059000 -16.847600
C -13.195500 -19.730400 -17.754300
C -13.138200 -18.701400 -20.263600
C -13.122400 -18.130600 -21.617600
N -12.965500 -17.990400 -23.794200
N -12.951100 -17.842000 -15.624500
C -12.950700 -18.382300 -18.006800
N -12.924800 -17.851800 -19.238800
N -12.836500 -18.817900 -22.703700
C -12.709700 -17.495400 -16.872600
N -12.621500 -16.817400 -14.783400
N -12.216400 -16.210700 -16.884600
C -12.182200 -15.831600 -15.542600
H -11.797500 -15.642700 -18.736400
C -11.786900 -15.336200 -17.856100
N -11.780800 -14.620600 -15.129600
C -11.397200 -13.799000 -16.072300
C -11.379500 -14.123800 -17.454800
H -11.094100 -12.910200 -15.773800
H -11.088500 -13.476300 -18.131300
H -12.393000 -7.428200 -11.016800
H -12.387500 -6.862100 -13.374300
C -12.102100 -8.075700 -11.693300
C -12.084300 -7.750900 -13.075800
N -11.700700 -8.572500 -14.018500
C -11.694600 -9.288100 -11.292000
H -11.684100 -9.594600 -10.411700
C -11.299300 -9.783600 -13.605500
N -11.265200 -10.162700 -12.263500
N -10.860100 -10.769400 -14.364600
C -10.771800 -11.447400 -12.275500
N -10.645100 -12.769900 -6.444400
N -10.556700 -11.803700 -9.909300
C -10.530900 -12.334300 -11.141300
N -10.530400 -11.793900 -13.523600
N -10.516100 -11.942400 -5.353900
C -10.359200 -12.082600 -7.530500
C -10.343300 -12.653400 -8.884500
C -10.286100 -13.682400 -11.393800
H -10.257500 -14.010900 -12.300500
C -10.154900 -10.759700 -5.802300
C -10.106000 -14.004700 -9.045900
C -10.067300 -14.521400 -10.322700
N -10.038600 -10.792100 -7.185000
H -9.933500 -14.511700 -8.294400
N -9.906000 -9.649700 -5.071900
H -9.879900 -15.474500 -10.482800
C -9.611300 -9.682600 -7.875500
C -9.516200 -8.599600 -5.750100
H -9.502800 -9.785700 -8.794600
H -9.358800 -7.799600 -5.230300
C -9.353400 -8.581500 -7.159200
H -9.050200 -7.791100 -7.583200
