33
Fragment
H -14.431400 -13.839100 -21.564900
C -14.128100 -14.629500 -21.988900
H -14.122700 -13.847600 -23.917800
H -13.978700 -15.833800 -20.353500
C -13.965400 -14.647700 -23.398000
C -13.870300 -15.730600 -21.272600
H -13.601700 -21.522600 -18.665300
N -13.575500 -15.697700 -24.076200
H -13.548000 -20.559700 -20.853700
N -13.443000 -16.840200 -21.963100
C -13.414200 -20.569400 -18.825400
C -13.375500 -20.052800 -20.102200
C -13.326700 -16.807800 -23.345800
H -13.224000 -20.059000 -16.847600
C -13.195500 -19.730400 -17.754300
C -13.138200 -18.701400 -20.263600
C -13.122400 -18.130600 -21.617600
N -12.965500 -17.990400 -23.794200
N -12.951100 -17.842000 -15.624500
C -12.950700 -18.382300 -18.006800
N -12.924800 -17.851800 -19.238800
N -12.836500 -18.817900 -22.703700
C -12.709700 -17.495400 -16.872600
N -12.621500 -16.817400 -14.783400
N -12.216400 -16.210700 -16.884600
C -12.182200 -15.831600 -15.542600
H -11.797500 -15.642700 -18.736400
C -11.786900 -15.336200 -17.856100
N -11.780800 -14.620600 -15.129600
C -11.397200 -13.799000 -16.072300
C -11.379500 -14.123800 -17.454800
H -11.094100 -12.910200 -15.773800
H -11.088500 -13.476300 -18.131300
33
Fragment
H -19.736900 -7.428200 -22.676100
H -19.731300 -6.862100 -25.033600
C -19.445900 -8.075700 -23.352500
C -19.428200 -7.750900 -24.735100
N -19.044600 -8.572500 -25.677700
C -19.038400 -9.288100 -22.951200
H -19.027900 -9.594600 -22.070900
C -18.643200 -9.783600 -25.264800
N -18.609000 -10.162700 -23.922800
N -18.203900 -10.769400 -26.023900
C -18.115700 -11.447400 -23.934800
N -17.988900 -12.769900 -18.103700
N -17.900600 -11.803700 -21.568500
C -17.874700 -12.334300 -22.800600
N -17.874300 -11.793900 -25.182800
N -17.859900 -11.942400 -17.013200
C -17.703000 -12.082600 -19.189700
C -17.687100 -12.653400 -20.543700
C -17.629900 -13.682400 -23.053000
H -17.601300 -14.010900 -23.959700
C -17.498700 -10.759700 -17.461600
C -17.449900 -14.004700 -20.705200
C -17.411100 -14.521400 -21.982000
N -17.382400 -10.792100 -18.844200
H -17.277400 -14.511700 -19.953600
N -17.249900 -9.649700 -16.731100
H -17.223700 -15.474500 -22.142100
C -16.955100 -9.682600 -19.534700
C -16.860000 -8.599600 -17.409300
H -16.846700 -9.785700 -20.453800
H -16.702700 -7.799600 -16.889600
C -16.697300 -8.581500 -18.818500
H -16.394000 -7.791100 -19.242400
66
Fragment
H -14.431400 -13.839100 -21.564900
C -14.128100 -14.629500 -21.988900
H -14.122700 -13.847600 -23.917800
H -13.978700 -15.833800 -20.353500
C -13.965400 -14.647700 -23.398000
C -13.870300 -15.730600 -21.272600
H -13.601700 -21.522600 -18.665300
N -13.575500 -15.697700 -24.076200
H -13.548000 -20.559700 -20.853700
N -13.443000 -16.840200 -21.963100
C -13.414200 -20.569400 -18.825400
C -13.375500 -20.052800 -20.102200
C -13.326700 -16.807800 -23.345800
H -13.224000 -20.059000 -16.847600
C -13.195500 -19.730400 -17.754300
C -13.138200 -18.701400 -20.263600
C -13.122400 -18.130600 -21.617600
N -12.965500 -17.990400 -23.794200
N -12.951100 -17.842000 -15.624500
C -12.950700 -18.382300 -18.006800
N -12.924800 -17.851800 -19.238800
N -12.836500 -18.817900 -22.703700
C -12.709700 -17.495400 -16.872600
N -12.621500 -16.817400 -14.783400
N -12.216400 -16.210700 -16.884600
C -12.182200 -15.831600 -15.542600
H -11.797500 -15.642700 -18.736400
C -11.786900 -15.336200 -17.856100
N -11.780800 -14.620600 -15.129600
C -11.397200 -13.799000 -16.072300
C -11.379500 -14.123800 -17.454800
H -11.094100 -12.910200 -15.773800
H -11.088500 -13.476300 -18.131300
H -19.736900 -7.428200 -22.676100
H -19.731300 -6.862100 -25.033600
C -19.445900 -8.075700 -23.352500
C -19.428200 -7.750900 -24.735100
N -19.044600 -8.572500 -25.677700
C -19.038400 -9.288100 -22.951200
H -19.027900 -9.594600 -22.070900
C -18.643200 -9.783600 -25.264800
N -18.609000 -10.162700 -23.922800
N -18.203900 -10.769400 -26.023900
C -18.115700 -11.447400 -23.934800
N -17.988900 -12.769900 -18.103700
N -17.900600 -11.803700 -21.568500
C -17.874700 -12.334300 -22.800600
N -17.874300 -11.793900 -25.182800
N -17.859900 -11.942400 -17.013200
C -17.703000 -12.082600 -19.189700
C -17.687100 -12.653400 -20.543700
C -17.629900 -13.682400 -23.053000
H -17.601300 -14.010900 -23.959700
C -17.498700 -10.759700 -17.461600
C -17.449900 -14.004700 -20.705200
C -17.411100 -14.521400 -21.982000
N -17.382400 -10.792100 -18.844200
H -17.277400 -14.511700 -19.953600
N -17.249900 -9.649700 -16.731100
H -17.223700 -15.474500 -22.142100
C -16.955100 -9.682600 -19.534700
C -16.860000 -8.599600 -17.409300
H -16.846700 -9.785700 -20.453800
H -16.702700 -7.799600 -16.889600
C -16.697300 -8.581500 -18.818500
H -16.394000 -7.791100 -19.242400
