33
Fragment
H -14.431400 -13.839100 -21.564900
C -14.128100 -14.629500 -21.988900
H -14.122700 -13.847600 -23.917800
H -13.978700 -15.833800 -20.353500
C -13.965400 -14.647700 -23.398000
C -13.870300 -15.730600 -21.272600
H -13.601700 -21.522600 -18.665300
N -13.575500 -15.697700 -24.076200
H -13.548000 -20.559700 -20.853700
N -13.443000 -16.840200 -21.963100
C -13.414200 -20.569400 -18.825400
C -13.375500 -20.052800 -20.102200
C -13.326700 -16.807800 -23.345800
H -13.224000 -20.059000 -16.847600
C -13.195500 -19.730400 -17.754300
C -13.138200 -18.701400 -20.263600
C -13.122400 -18.130600 -21.617600
N -12.965500 -17.990400 -23.794200
N -12.951100 -17.842000 -15.624500
C -12.950700 -18.382300 -18.006800
N -12.924800 -17.851800 -19.238800
N -12.836500 -18.817900 -22.703700
C -12.709700 -17.495400 -16.872600
N -12.621500 -16.817400 -14.783400
N -12.216400 -16.210700 -16.884600
C -12.182200 -15.831600 -15.542600
H -11.797500 -15.642700 -18.736400
C -11.786900 -15.336200 -17.856100
N -11.780800 -14.620600 -15.129600
C -11.397200 -13.799000 -16.072300
C -11.379500 -14.123800 -17.454800
H -11.094100 -12.910200 -15.773800
H -11.088500 -13.476300 -18.131300
33
Fragment
H -12.981300 -16.401100 -27.394500
C -12.678100 -15.610700 -27.818500
H -12.672700 -16.392600 -29.747400
H -12.528700 -14.406500 -26.183200
C -12.515300 -15.592600 -29.227600
C -12.420200 -14.509600 -27.102300
H -12.151700 -8.717700 -24.494900
N -12.125500 -14.542500 -29.905800
H -12.098000 -9.680500 -26.683300
N -11.992900 -13.400100 -27.792700
C -11.964200 -9.670800 -24.655000
C -11.925500 -10.187500 -25.931800
C -11.876600 -13.432500 -29.175400
H -11.774000 -10.181300 -22.677200
C -11.745500 -10.509800 -23.584000
C -11.688200 -11.538800 -26.093300
C -11.672400 -12.109600 -27.447200
N -11.515400 -12.249800 -29.623800
N -11.501100 -12.398300 -21.454200
C -11.500600 -11.857900 -23.836400
N -11.474800 -12.388500 -25.068400
N -11.386500 -11.422300 -28.533300
C -11.259700 -12.744800 -22.702200
N -11.171500 -13.422800 -20.613100
N -10.766300 -14.029500 -22.714200
C -10.732200 -14.408600 -21.372200
H -10.347400 -14.597600 -24.566000
C -10.336900 -14.904100 -23.685700
N -10.330800 -15.619700 -20.959200
C -9.947200 -16.441300 -21.901900
C -9.929500 -16.116500 -23.284400
H -9.644000 -17.330100 -21.603400
H -9.638500 -16.764000 -23.960900
66
Fragment
H -14.431400 -13.839100 -21.564900
C -14.128100 -14.629500 -21.988900
H -14.122700 -13.847600 -23.917800
H -13.978700 -15.833800 -20.353500
C -13.965400 -14.647700 -23.398000
C -13.870300 -15.730600 -21.272600
H -13.601700 -21.522600 -18.665300
N -13.575500 -15.697700 -24.076200
H -13.548000 -20.559700 -20.853700
N -13.443000 -16.840200 -21.963100
C -13.414200 -20.569400 -18.825400
C -13.375500 -20.052800 -20.102200
C -13.326700 -16.807800 -23.345800
H -13.224000 -20.059000 -16.847600
C -13.195500 -19.730400 -17.754300
C -13.138200 -18.701400 -20.263600
C -13.122400 -18.130600 -21.617600
N -12.965500 -17.990400 -23.794200
N -12.951100 -17.842000 -15.624500
C -12.950700 -18.382300 -18.006800
N -12.924800 -17.851800 -19.238800
N -12.836500 -18.817900 -22.703700
C -12.709700 -17.495400 -16.872600
N -12.621500 -16.817400 -14.783400
N -12.216400 -16.210700 -16.884600
C -12.182200 -15.831600 -15.542600
H -11.797500 -15.642700 -18.736400
C -11.786900 -15.336200 -17.856100
N -11.780800 -14.620600 -15.129600
C -11.397200 -13.799000 -16.072300
C -11.379500 -14.123800 -17.454800
H -11.094100 -12.910200 -15.773800
H -11.088500 -13.476300 -18.131300
H -12.981300 -16.401100 -27.394500
C -12.678100 -15.610700 -27.818500
H -12.672700 -16.392600 -29.747400
H -12.528700 -14.406500 -26.183200
C -12.515300 -15.592600 -29.227600
C -12.420200 -14.509600 -27.102300
H -12.151700 -8.717700 -24.494900
N -12.125500 -14.542500 -29.905800
H -12.098000 -9.680500 -26.683300
N -11.992900 -13.400100 -27.792700
C -11.964200 -9.670800 -24.655000
C -11.925500 -10.187500 -25.931800
C -11.876600 -13.432500 -29.175400
H -11.774000 -10.181300 -22.677200
C -11.745500 -10.509800 -23.584000
C -11.688200 -11.538800 -26.093300
C -11.672400 -12.109600 -27.447200
N -11.515400 -12.249800 -29.623800
N -11.501100 -12.398300 -21.454200
C -11.500600 -11.857900 -23.836400
N -11.474800 -12.388500 -25.068400
N -11.386500 -11.422300 -28.533300
C -11.259700 -12.744800 -22.702200
N -11.171500 -13.422800 -20.613100
N -10.766300 -14.029500 -22.714200
C -10.732200 -14.408600 -21.372200
H -10.347400 -14.597600 -24.566000
C -10.336900 -14.904100 -23.685700
N -10.330800 -15.619700 -20.959200
C -9.947200 -16.441300 -21.901900
C -9.929500 -16.116500 -23.284400
H -9.644000 -17.330100 -21.603400
H -9.638500 -16.764000 -23.960900
