33
Fragment
H -14.431400 -13.839100 -21.564900
C -14.128100 -14.629500 -21.988900
H -14.122700 -13.847600 -23.917800
H -13.978700 -15.833800 -20.353500
C -13.965400 -14.647700 -23.398000
C -13.870300 -15.730600 -21.272600
H -13.601700 -21.522600 -18.665300
N -13.575500 -15.697700 -24.076200
H -13.548000 -20.559700 -20.853700
N -13.443000 -16.840200 -21.963100
C -13.414200 -20.569400 -18.825400
C -13.375500 -20.052800 -20.102200
C -13.326700 -16.807800 -23.345800
H -13.224000 -20.059000 -16.847600
C -13.195500 -19.730400 -17.754300
C -13.138200 -18.701400 -20.263600
C -13.122400 -18.130600 -21.617600
N -12.965500 -17.990400 -23.794200
N -12.951100 -17.842000 -15.624500
C -12.950700 -18.382300 -18.006800
N -12.924800 -17.851800 -19.238800
N -12.836500 -18.817900 -22.703700
C -12.709700 -17.495400 -16.872600
N -12.621500 -16.817400 -14.783400
N -12.216400 -16.210700 -16.884600
C -12.182200 -15.831600 -15.542600
H -11.797500 -15.642700 -18.736400
C -11.786900 -15.336200 -17.856100
N -11.780800 -14.620600 -15.129600
C -11.397200 -13.799000 -16.072300
C -11.379500 -14.123800 -17.454800
H -11.094100 -12.910200 -15.773800
H -11.088500 -13.476300 -18.131300
33
Fragment
H -15.881400 -16.401100 -15.735300
C -15.578100 -15.610700 -16.159200
H -15.572700 -16.392600 -18.088100
H -15.428800 -14.406500 -14.523900
C -15.415400 -15.592600 -17.568400
C -15.320300 -14.509600 -15.443000
H -15.051700 -8.717700 -12.835700
N -15.025500 -14.542500 -18.246600
H -14.998100 -9.680500 -15.024100
N -14.893000 -13.400100 -16.133500
C -14.864300 -9.670800 -12.995700
C -14.825500 -10.187500 -14.272500
C -14.776700 -13.432500 -17.516100
H -14.674100 -10.181300 -11.018000
C -14.645500 -10.509800 -11.924700
C -14.588300 -11.538800 -14.434000
C -14.572400 -12.109600 -15.788000
N -14.415500 -12.249800 -17.964600
N -14.401100 -12.398300 -9.794900
C -14.400700 -11.857900 -12.177100
N -14.374800 -12.388500 -13.409200
N -14.286500 -11.422300 -16.874100
C -14.159800 -12.744800 -11.042900
N -14.071500 -13.422800 -8.953800
N -13.666400 -14.029500 -11.054900
C -13.632200 -14.408600 -9.713000
H -13.247500 -14.597600 -12.906800
C -13.237000 -14.904100 -12.026500
N -13.230900 -15.619700 -9.300000
C -12.847200 -16.441300 -10.242600
C -12.829500 -16.116500 -11.625200
H -12.544100 -17.330100 -9.944200
H -12.538500 -16.764000 -12.301700
66
Fragment
H -14.431400 -13.839100 -21.564900
C -14.128100 -14.629500 -21.988900
H -14.122700 -13.847600 -23.917800
H -13.978700 -15.833800 -20.353500
C -13.965400 -14.647700 -23.398000
C -13.870300 -15.730600 -21.272600
H -13.601700 -21.522600 -18.665300
N -13.575500 -15.697700 -24.076200
H -13.548000 -20.559700 -20.853700
N -13.443000 -16.840200 -21.963100
C -13.414200 -20.569400 -18.825400
C -13.375500 -20.052800 -20.102200
C -13.326700 -16.807800 -23.345800
H -13.224000 -20.059000 -16.847600
C -13.195500 -19.730400 -17.754300
C -13.138200 -18.701400 -20.263600
C -13.122400 -18.130600 -21.617600
N -12.965500 -17.990400 -23.794200
N -12.951100 -17.842000 -15.624500
C -12.950700 -18.382300 -18.006800
N -12.924800 -17.851800 -19.238800
N -12.836500 -18.817900 -22.703700
C -12.709700 -17.495400 -16.872600
N -12.621500 -16.817400 -14.783400
N -12.216400 -16.210700 -16.884600
C -12.182200 -15.831600 -15.542600
H -11.797500 -15.642700 -18.736400
C -11.786900 -15.336200 -17.856100
N -11.780800 -14.620600 -15.129600
C -11.397200 -13.799000 -16.072300
C -11.379500 -14.123800 -17.454800
H -11.094100 -12.910200 -15.773800
H -11.088500 -13.476300 -18.131300
H -15.881400 -16.401100 -15.735300
C -15.578100 -15.610700 -16.159200
H -15.572700 -16.392600 -18.088100
H -15.428800 -14.406500 -14.523900
C -15.415400 -15.592600 -17.568400
C -15.320300 -14.509600 -15.443000
H -15.051700 -8.717700 -12.835700
N -15.025500 -14.542500 -18.246600
H -14.998100 -9.680500 -15.024100
N -14.893000 -13.400100 -16.133500
C -14.864300 -9.670800 -12.995700
C -14.825500 -10.187500 -14.272500
C -14.776700 -13.432500 -17.516100
H -14.674100 -10.181300 -11.018000
C -14.645500 -10.509800 -11.924700
C -14.588300 -11.538800 -14.434000
C -14.572400 -12.109600 -15.788000
N -14.415500 -12.249800 -17.964600
N -14.401100 -12.398300 -9.794900
C -14.400700 -11.857900 -12.177100
N -14.374800 -12.388500 -13.409200
N -14.286500 -11.422300 -16.874100
C -14.159800 -12.744800 -11.042900
N -14.071500 -13.422800 -8.953800
N -13.666400 -14.029500 -11.054900
C -13.632200 -14.408600 -9.713000
H -13.247500 -14.597600 -12.906800
C -13.237000 -14.904100 -12.026500
N -13.230900 -15.619700 -9.300000
C -12.847200 -16.441300 -10.242600
C -12.829500 -16.116500 -11.625200
H -12.544100 -17.330100 -9.944200
H -12.538500 -16.764000 -12.301700
