41
Fragment
H -87.311500 -4.475500 -22.230200
H -86.875100 -2.724300 -23.724300
C -86.437600 -4.103800 -22.271100
C -86.170100 -3.051700 -23.175900
H -85.631800 -5.306800 -20.839400
C -85.448100 -4.599200 -21.446200
C -84.918800 -2.485900 -23.285000
H -84.742800 -1.788900 -23.906400
C -84.165200 -4.032900 -21.525000
C -83.915800 -2.981800 -22.444500
H -83.458700 -5.267600 -19.115400
C -82.921200 -4.298000 -20.851000
C -82.706400 -5.311300 -19.758200
H -82.689800 -6.220100 -20.150800
N -82.590400 -2.645400 -22.343200
H -82.184500 -2.017700 -22.807800
C -81.996700 -3.448000 -21.397500
C -81.403000 -5.053800 -19.028700
O -81.148800 -3.970100 -18.503700
H -81.078500 -3.417300 -21.157900
H -80.678100 -6.812600 -19.494300
N -80.519300 -6.078300 -19.034600
N -79.360100 -5.930900 -18.291400
H -79.060100 -7.513100 -20.308500
H -78.725700 -4.809400 -17.023300
H -78.524300 -8.614000 -19.278100
C -78.355400 -7.728400 -19.661800
C -78.350000 -6.704400 -18.571000
O -78.072100 -4.621800 -16.531400
H -77.483900 -7.728400 -20.113700
C -77.155400 -6.517800 -17.738200
C -77.075900 -5.495400 -16.758400
H -76.097900 -8.095500 -18.494000
C -76.064900 -7.402500 -17.844400
C -75.947400 -5.372200 -15.949000
H -75.897300 -4.675100 -15.305200
C -74.955500 -7.295400 -17.038900
C -74.894700 -6.273900 -16.086300
H -74.237300 -7.910400 -17.129500
O -73.795600 -6.221600 -15.280800
H -73.483900 -6.995100 -15.183400
25
Fragment
H -96.597700 -7.079600 -24.210300
N -96.153000 -6.389600 -23.894700
H -95.581600 -6.107500 -24.500600
N -95.448900 -6.777900 -22.721100
O -95.265700 -4.672100 -21.914600
H -95.233200 -7.624300 -22.613000
C -95.104400 -5.888700 -21.773400
H -95.102900 -6.345800 -19.755300
C -94.496200 -6.506300 -20.521800
H -94.423300 -7.485500 -20.648500
H -93.515900 -4.437800 -18.849500
C -93.145700 -5.951100 -20.201400
C -92.866800 -4.926100 -19.342300
H -92.142000 -7.992400 -22.003300
C -91.876700 -6.397100 -20.727400
N -91.519900 -4.706300 -19.294600
C -91.491900 -7.426600 -21.600000
H -91.121600 -4.097300 -18.799800
C -90.882100 -5.584400 -20.140000
C -90.140400 -7.595100 -21.858100
H -89.864700 -8.292100 -22.440600
C -89.526400 -5.740300 -20.406900
C -89.171700 -6.760300 -21.278600
H -88.875800 -5.175000 -20.010500
H -88.254800 -6.896500 -21.488000
66
Fragment
H -87.311500 -4.475500 -22.230200
H -86.875100 -2.724300 -23.724300
C -86.437600 -4.103800 -22.271100
C -86.170100 -3.051700 -23.175900
H -85.631800 -5.306800 -20.839400
C -85.448100 -4.599200 -21.446200
C -84.918800 -2.485900 -23.285000
H -84.742800 -1.788900 -23.906400
C -84.165200 -4.032900 -21.525000
C -83.915800 -2.981800 -22.444500
H -83.458700 -5.267600 -19.115400
C -82.921200 -4.298000 -20.851000
C -82.706400 -5.311300 -19.758200
H -82.689800 -6.220100 -20.150800
N -82.590400 -2.645400 -22.343200
H -82.184500 -2.017700 -22.807800
C -81.996700 -3.448000 -21.397500
C -81.403000 -5.053800 -19.028700
O -81.148800 -3.970100 -18.503700
H -81.078500 -3.417300 -21.157900
H -80.678100 -6.812600 -19.494300
N -80.519300 -6.078300 -19.034600
N -79.360100 -5.930900 -18.291400
H -79.060100 -7.513100 -20.308500
H -78.725700 -4.809400 -17.023300
H -78.524300 -8.614000 -19.278100
C -78.355400 -7.728400 -19.661800
C -78.350000 -6.704400 -18.571000
O -78.072100 -4.621800 -16.531400
H -77.483900 -7.728400 -20.113700
C -77.155400 -6.517800 -17.738200
C -77.075900 -5.495400 -16.758400
H -76.097900 -8.095500 -18.494000
C -76.064900 -7.402500 -17.844400
C -75.947400 -5.372200 -15.949000
H -75.897300 -4.675100 -15.305200
C -74.955500 -7.295400 -17.038900
C -74.894700 -6.273900 -16.086300
H -74.237300 -7.910400 -17.129500
O -73.795600 -6.221600 -15.280800
H -73.483900 -6.995100 -15.183400
H -96.597700 -7.079600 -24.210300
N -96.153000 -6.389600 -23.894700
H -95.581600 -6.107500 -24.500600
N -95.448900 -6.777900 -22.721100
O -95.265700 -4.672100 -21.914600
H -95.233200 -7.624300 -22.613000
C -95.104400 -5.888700 -21.773400
H -95.102900 -6.345800 -19.755300
C -94.496200 -6.506300 -20.521800
H -94.423300 -7.485500 -20.648500
H -93.515900 -4.437800 -18.849500
C -93.145700 -5.951100 -20.201400
C -92.866800 -4.926100 -19.342300
H -92.142000 -7.992400 -22.003300
C -91.876700 -6.397100 -20.727400
N -91.519900 -4.706300 -19.294600
C -91.491900 -7.426600 -21.600000
H -91.121600 -4.097300 -18.799800
C -90.882100 -5.584400 -20.140000
C -90.140400 -7.595100 -21.858100
H -89.864700 -8.292100 -22.440600
C -89.526400 -5.740300 -20.406900
C -89.171700 -6.760300 -21.278600
H -88.875800 -5.175000 -20.010500
H -88.254800 -6.896500 -21.488000
