41
Fragment
H -87.311500 -4.475500 -22.230200
H -86.875100 -2.724300 -23.724300
C -86.437600 -4.103800 -22.271100
C -86.170100 -3.051700 -23.175900
H -85.631800 -5.306800 -20.839400
C -85.448100 -4.599200 -21.446200
C -84.918800 -2.485900 -23.285000
H -84.742800 -1.788900 -23.906400
C -84.165200 -4.032900 -21.525000
C -83.915800 -2.981800 -22.444500
H -83.458700 -5.267600 -19.115400
C -82.921200 -4.298000 -20.851000
C -82.706400 -5.311300 -19.758200
H -82.689800 -6.220100 -20.150800
N -82.590400 -2.645400 -22.343200
H -82.184500 -2.017700 -22.807800
C -81.996700 -3.448000 -21.397500
C -81.403000 -5.053800 -19.028700
O -81.148800 -3.970100 -18.503700
H -81.078500 -3.417300 -21.157900
H -80.678100 -6.812600 -19.494300
N -80.519300 -6.078300 -19.034600
N -79.360100 -5.930900 -18.291400
H -79.060100 -7.513100 -20.308500
H -78.725700 -4.809400 -17.023300
H -78.524300 -8.614000 -19.278100
C -78.355400 -7.728400 -19.661800
C -78.350000 -6.704400 -18.571000
O -78.072100 -4.621800 -16.531400
H -77.483900 -7.728400 -20.113700
C -77.155400 -6.517800 -17.738200
C -77.075900 -5.495400 -16.758400
H -76.097900 -8.095500 -18.494000
C -76.064900 -7.402500 -17.844400
C -75.947400 -5.372200 -15.949000
H -75.897300 -4.675100 -15.305200
C -74.955500 -7.295400 -17.038900
C -74.894700 -6.273900 -16.086300
H -74.237300 -7.910400 -17.129500
O -73.795600 -6.221600 -15.280800
H -73.483900 -6.995100 -15.183400
41
Fragment
H -88.012100 -10.612100 -17.360300
H -87.575700 -12.363300 -18.854400
C -87.138100 -10.983800 -17.401200
C -86.870700 -12.035900 -18.306000
H -86.332400 -9.780800 -15.969400
C -86.148600 -10.488400 -16.576200
C -85.619400 -12.601700 -18.415100
H -85.443400 -13.298700 -19.036500
C -84.865700 -11.054700 -16.655100
C -84.616300 -12.105800 -17.574600
H -84.159300 -9.820000 -14.245500
C -83.621700 -10.789600 -15.981100
C -83.406900 -9.776300 -14.888300
H -83.390300 -8.867500 -15.280800
N -83.291000 -12.442200 -17.473300
H -82.885100 -13.069900 -17.937900
C -82.697200 -11.639600 -16.527500
C -82.103500 -10.033800 -14.158800
O -81.849300 -11.117500 -13.633800
H -81.779000 -11.670300 -16.287900
H -81.378600 -8.275000 -14.624400
N -81.219900 -9.009300 -14.164600
N -80.060600 -9.156700 -13.421500
H -79.760600 -7.574500 -15.438600
H -79.426200 -10.278200 -12.153400
H -79.224900 -6.473600 -14.408100
C -79.056000 -7.359200 -14.791900
C -79.050500 -8.383200 -13.701000
O -78.772600 -10.465800 -11.661500
H -78.184500 -7.359200 -15.243800
C -77.856000 -8.569800 -12.868300
C -77.776500 -9.592200 -11.888400
H -76.798500 -6.992100 -13.624100
C -76.765500 -7.685100 -12.974400
C -76.647900 -9.715400 -11.079100
H -76.597800 -10.412500 -10.435300
C -75.656100 -7.792200 -12.169000
C -75.595300 -8.813700 -11.216400
H -74.937900 -7.177200 -12.259500
O -74.496200 -8.866000 -10.410900
H -74.184400 -8.092500 -10.313500
82
Fragment
H -87.311500 -4.475500 -22.230200
H -86.875100 -2.724300 -23.724300
C -86.437600 -4.103800 -22.271100
C -86.170100 -3.051700 -23.175900
H -85.631800 -5.306800 -20.839400
C -85.448100 -4.599200 -21.446200
C -84.918800 -2.485900 -23.285000
H -84.742800 -1.788900 -23.906400
C -84.165200 -4.032900 -21.525000
C -83.915800 -2.981800 -22.444500
H -83.458700 -5.267600 -19.115400
C -82.921200 -4.298000 -20.851000
C -82.706400 -5.311300 -19.758200
H -82.689800 -6.220100 -20.150800
N -82.590400 -2.645400 -22.343200
H -82.184500 -2.017700 -22.807800
C -81.996700 -3.448000 -21.397500
C -81.403000 -5.053800 -19.028700
O -81.148800 -3.970100 -18.503700
H -81.078500 -3.417300 -21.157900
H -80.678100 -6.812600 -19.494300
N -80.519300 -6.078300 -19.034600
N -79.360100 -5.930900 -18.291400
H -79.060100 -7.513100 -20.308500
H -78.725700 -4.809400 -17.023300
H -78.524300 -8.614000 -19.278100
C -78.355400 -7.728400 -19.661800
C -78.350000 -6.704400 -18.571000
O -78.072100 -4.621800 -16.531400
H -77.483900 -7.728400 -20.113700
C -77.155400 -6.517800 -17.738200
C -77.075900 -5.495400 -16.758400
H -76.097900 -8.095500 -18.494000
C -76.064900 -7.402500 -17.844400
C -75.947400 -5.372200 -15.949000
H -75.897300 -4.675100 -15.305200
C -74.955500 -7.295400 -17.038900
C -74.894700 -6.273900 -16.086300
H -74.237300 -7.910400 -17.129500
O -73.795600 -6.221600 -15.280800
H -73.483900 -6.995100 -15.183400
H -88.012100 -10.612100 -17.360300
H -87.575700 -12.363300 -18.854400
C -87.138100 -10.983800 -17.401200
C -86.870700 -12.035900 -18.306000
H -86.332400 -9.780800 -15.969400
C -86.148600 -10.488400 -16.576200
C -85.619400 -12.601700 -18.415100
H -85.443400 -13.298700 -19.036500
C -84.865700 -11.054700 -16.655100
C -84.616300 -12.105800 -17.574600
H -84.159300 -9.820000 -14.245500
C -83.621700 -10.789600 -15.981100
C -83.406900 -9.776300 -14.888300
H -83.390300 -8.867500 -15.280800
N -83.291000 -12.442200 -17.473300
H -82.885100 -13.069900 -17.937900
C -82.697200 -11.639600 -16.527500
C -82.103500 -10.033800 -14.158800
O -81.849300 -11.117500 -13.633800
H -81.779000 -11.670300 -16.287900
H -81.378600 -8.275000 -14.624400
N -81.219900 -9.009300 -14.164600
N -80.060600 -9.156700 -13.421500
H -79.760600 -7.574500 -15.438600
H -79.426200 -10.278200 -12.153400
H -79.224900 -6.473600 -14.408100
C -79.056000 -7.359200 -14.791900
C -79.050500 -8.383200 -13.701000
O -78.772600 -10.465800 -11.661500
H -78.184500 -7.359200 -15.243800
C -77.856000 -8.569800 -12.868300
C -77.776500 -9.592200 -11.888400
H -76.798500 -6.992100 -13.624100
C -76.765500 -7.685100 -12.974400
C -76.647900 -9.715400 -11.079100
H -76.597800 -10.412500 -10.435300
C -75.656100 -7.792200 -12.169000
C -75.595300 -8.813700 -11.216400
H -74.937900 -7.177200 -12.259500
O -74.496200 -8.866000 -10.410900
H -74.184400 -8.092500 -10.313500
