41
Fragment
H -87.311500 -4.475500 -22.230200
H -86.875100 -2.724300 -23.724300
C -86.437600 -4.103800 -22.271100
C -86.170100 -3.051700 -23.175900
H -85.631800 -5.306800 -20.839400
C -85.448100 -4.599200 -21.446200
C -84.918800 -2.485900 -23.285000
H -84.742800 -1.788900 -23.906400
C -84.165200 -4.032900 -21.525000
C -83.915800 -2.981800 -22.444500
H -83.458700 -5.267600 -19.115400
C -82.921200 -4.298000 -20.851000
C -82.706400 -5.311300 -19.758200
H -82.689800 -6.220100 -20.150800
N -82.590400 -2.645400 -22.343200
H -82.184500 -2.017700 -22.807800
C -81.996700 -3.448000 -21.397500
C -81.403000 -5.053800 -19.028700
O -81.148800 -3.970100 -18.503700
H -81.078500 -3.417300 -21.157900
H -80.678100 -6.812600 -19.494300
N -80.519300 -6.078300 -19.034600
N -79.360100 -5.930900 -18.291400
H -79.060100 -7.513100 -20.308500
H -78.725700 -4.809400 -17.023300
H -78.524300 -8.614000 -19.278100
C -78.355400 -7.728400 -19.661800
C -78.350000 -6.704400 -18.571000
O -78.072100 -4.621800 -16.531400
H -77.483900 -7.728400 -20.113700
C -77.155400 -6.517800 -17.738200
C -77.075900 -5.495400 -16.758400
H -76.097900 -8.095500 -18.494000
C -76.064900 -7.402500 -17.844400
C -75.947400 -5.372200 -15.949000
H -75.897300 -4.675100 -15.305200
C -74.955500 -7.295400 -17.038900
C -74.894700 -6.273900 -16.086300
H -74.237300 -7.910400 -17.129500
O -73.795600 -6.221600 -15.280800
H -73.483900 -6.995100 -15.183400
41
Fragment
H -87.311500 -9.504700 -22.230200
H -86.875100 -7.753500 -23.724300
C -86.437600 -9.133000 -22.271100
C -86.170100 -8.080900 -23.175900
H -85.631800 -10.336000 -20.839400
C -85.448100 -9.628400 -21.446200
C -84.918800 -7.515100 -23.285000
H -84.742800 -6.818100 -23.906400
C -84.165200 -9.062100 -21.525000
C -83.915800 -8.011000 -22.444500
H -83.458700 -10.296800 -19.115400
C -82.921200 -9.327200 -20.851000
C -82.706400 -10.340500 -19.758200
H -82.689800 -11.249300 -20.150800
N -82.590400 -7.674600 -22.343200
H -82.184500 -7.046900 -22.807800
C -81.996700 -8.477200 -21.397500
C -81.403000 -10.083000 -19.028700
O -81.148800 -8.999300 -18.503700
H -81.078500 -8.446500 -21.157900
H -80.678100 -11.841800 -19.494300
N -80.519300 -11.107500 -19.034600
N -79.360100 -10.960100 -18.291400
H -79.060100 -12.542300 -20.308500
H -78.725700 -9.838600 -17.023300
H -78.524300 -13.643200 -19.278100
C -78.355400 -12.757600 -19.661800
C -78.350000 -11.733600 -18.571000
O -78.072100 -9.651000 -16.531400
H -77.483900 -12.757600 -20.113700
C -77.155400 -11.547000 -17.738200
C -77.075900 -10.524600 -16.758400
H -76.097900 -13.124700 -18.494000
C -76.064900 -12.431700 -17.844400
C -75.947400 -10.401400 -15.949000
H -75.897300 -9.704300 -15.305200
C -74.955500 -12.324600 -17.038900
C -74.894700 -11.303100 -16.086300
H -74.237300 -12.939600 -17.129500
O -73.795600 -11.250800 -15.280800
H -73.483900 -12.024300 -15.183400
82
Fragment
H -87.311500 -4.475500 -22.230200
H -86.875100 -2.724300 -23.724300
C -86.437600 -4.103800 -22.271100
C -86.170100 -3.051700 -23.175900
H -85.631800 -5.306800 -20.839400
C -85.448100 -4.599200 -21.446200
C -84.918800 -2.485900 -23.285000
H -84.742800 -1.788900 -23.906400
C -84.165200 -4.032900 -21.525000
C -83.915800 -2.981800 -22.444500
H -83.458700 -5.267600 -19.115400
C -82.921200 -4.298000 -20.851000
C -82.706400 -5.311300 -19.758200
H -82.689800 -6.220100 -20.150800
N -82.590400 -2.645400 -22.343200
H -82.184500 -2.017700 -22.807800
C -81.996700 -3.448000 -21.397500
C -81.403000 -5.053800 -19.028700
O -81.148800 -3.970100 -18.503700
H -81.078500 -3.417300 -21.157900
H -80.678100 -6.812600 -19.494300
N -80.519300 -6.078300 -19.034600
N -79.360100 -5.930900 -18.291400
H -79.060100 -7.513100 -20.308500
H -78.725700 -4.809400 -17.023300
H -78.524300 -8.614000 -19.278100
C -78.355400 -7.728400 -19.661800
C -78.350000 -6.704400 -18.571000
O -78.072100 -4.621800 -16.531400
H -77.483900 -7.728400 -20.113700
C -77.155400 -6.517800 -17.738200
C -77.075900 -5.495400 -16.758400
H -76.097900 -8.095500 -18.494000
C -76.064900 -7.402500 -17.844400
C -75.947400 -5.372200 -15.949000
H -75.897300 -4.675100 -15.305200
C -74.955500 -7.295400 -17.038900
C -74.894700 -6.273900 -16.086300
H -74.237300 -7.910400 -17.129500
O -73.795600 -6.221600 -15.280800
H -73.483900 -6.995100 -15.183400
H -87.311500 -9.504700 -22.230200
H -86.875100 -7.753500 -23.724300
C -86.437600 -9.133000 -22.271100
C -86.170100 -8.080900 -23.175900
H -85.631800 -10.336000 -20.839400
C -85.448100 -9.628400 -21.446200
C -84.918800 -7.515100 -23.285000
H -84.742800 -6.818100 -23.906400
C -84.165200 -9.062100 -21.525000
C -83.915800 -8.011000 -22.444500
H -83.458700 -10.296800 -19.115400
C -82.921200 -9.327200 -20.851000
C -82.706400 -10.340500 -19.758200
H -82.689800 -11.249300 -20.150800
N -82.590400 -7.674600 -22.343200
H -82.184500 -7.046900 -22.807800
C -81.996700 -8.477200 -21.397500
C -81.403000 -10.083000 -19.028700
O -81.148800 -8.999300 -18.503700
H -81.078500 -8.446500 -21.157900
H -80.678100 -11.841800 -19.494300
N -80.519300 -11.107500 -19.034600
N -79.360100 -10.960100 -18.291400
H -79.060100 -12.542300 -20.308500
H -78.725700 -9.838600 -17.023300
H -78.524300 -13.643200 -19.278100
C -78.355400 -12.757600 -19.661800
C -78.350000 -11.733600 -18.571000
O -78.072100 -9.651000 -16.531400
H -77.483900 -12.757600 -20.113700
C -77.155400 -11.547000 -17.738200
C -77.075900 -10.524600 -16.758400
H -76.097900 -13.124700 -18.494000
C -76.064900 -12.431700 -17.844400
C -75.947400 -10.401400 -15.949000
H -75.897300 -9.704300 -15.305200
C -74.955500 -12.324600 -17.038900
C -74.894700 -11.303100 -16.086300
H -74.237300 -12.939600 -17.129500
O -73.795600 -11.250800 -15.280800
H -73.483900 -12.024300 -15.183400
