41
Fragment
H -87.311500 -4.475500 -22.230200
H -86.875100 -2.724300 -23.724300
C -86.437600 -4.103800 -22.271100
C -86.170100 -3.051700 -23.175900
H -85.631800 -5.306800 -20.839400
C -85.448100 -4.599200 -21.446200
C -84.918800 -2.485900 -23.285000
H -84.742800 -1.788900 -23.906400
C -84.165200 -4.032900 -21.525000
C -83.915800 -2.981800 -22.444500
H -83.458700 -5.267600 -19.115400
C -82.921200 -4.298000 -20.851000
C -82.706400 -5.311300 -19.758200
H -82.689800 -6.220100 -20.150800
N -82.590400 -2.645400 -22.343200
H -82.184500 -2.017700 -22.807800
C -81.996700 -3.448000 -21.397500
C -81.403000 -5.053800 -19.028700
O -81.148800 -3.970100 -18.503700
H -81.078500 -3.417300 -21.157900
H -80.678100 -6.812600 -19.494300
N -80.519300 -6.078300 -19.034600
N -79.360100 -5.930900 -18.291400
H -79.060100 -7.513100 -20.308500
H -78.725700 -4.809400 -17.023300
H -78.524300 -8.614000 -19.278100
C -78.355400 -7.728400 -19.661800
C -78.350000 -6.704400 -18.571000
O -78.072100 -4.621800 -16.531400
H -77.483900 -7.728400 -20.113700
C -77.155400 -6.517800 -17.738200
C -77.075900 -5.495400 -16.758400
H -76.097900 -8.095500 -18.494000
C -76.064900 -7.402500 -17.844400
C -75.947400 -5.372200 -15.949000
H -75.897300 -4.675100 -15.305200
C -74.955500 -7.295400 -17.038900
C -74.894700 -6.273900 -16.086300
H -74.237300 -7.910400 -17.129500
O -73.795600 -6.221600 -15.280800
H -73.483900 -6.995100 -15.183400
41
Fragment
H -88.012100 -5.582900 -17.360300
H -87.575700 -7.334100 -18.854400
C -87.138100 -5.954600 -17.401200
C -86.870700 -7.006700 -18.306000
H -86.332400 -4.751600 -15.969400
C -86.148600 -5.459200 -16.576200
C -85.619400 -7.572500 -18.415100
H -85.443400 -8.269500 -19.036500
C -84.865700 -6.025500 -16.655100
C -84.616300 -7.076600 -17.574600
H -84.159300 -4.790800 -14.245500
C -83.621700 -5.760400 -15.981100
C -83.406900 -4.747100 -14.888300
H -83.390300 -3.838300 -15.280800
N -83.291000 -7.413000 -17.473300
H -82.885100 -8.040700 -17.937900
C -82.697200 -6.610400 -16.527500
C -82.103500 -5.004600 -14.158800
O -81.849300 -6.088300 -13.633800
H -81.779000 -6.641100 -16.287900
H -81.378600 -3.245800 -14.624400
N -81.219900 -3.980100 -14.164600
N -80.060600 -4.127500 -13.421500
H -79.760600 -2.545300 -15.438600
H -79.426200 -5.249000 -12.153400
H -79.224900 -1.444400 -14.408100
C -79.056000 -2.330000 -14.791900
C -79.050500 -3.354000 -13.701000
O -78.772600 -5.436600 -11.661500
H -78.184500 -2.330000 -15.243800
C -77.856000 -3.540600 -12.868300
C -77.776500 -4.563000 -11.888400
H -76.798500 -1.962900 -13.624100
C -76.765500 -2.655900 -12.974400
C -76.647900 -4.686200 -11.079100
H -76.597800 -5.383300 -10.435300
C -75.656100 -2.763000 -12.169000
C -75.595300 -3.784500 -11.216400
H -74.937900 -2.148000 -12.259500
O -74.496200 -3.836800 -10.410900
H -74.184400 -3.063300 -10.313500
82
Fragment
H -87.311500 -4.475500 -22.230200
H -86.875100 -2.724300 -23.724300
C -86.437600 -4.103800 -22.271100
C -86.170100 -3.051700 -23.175900
H -85.631800 -5.306800 -20.839400
C -85.448100 -4.599200 -21.446200
C -84.918800 -2.485900 -23.285000
H -84.742800 -1.788900 -23.906400
C -84.165200 -4.032900 -21.525000
C -83.915800 -2.981800 -22.444500
H -83.458700 -5.267600 -19.115400
C -82.921200 -4.298000 -20.851000
C -82.706400 -5.311300 -19.758200
H -82.689800 -6.220100 -20.150800
N -82.590400 -2.645400 -22.343200
H -82.184500 -2.017700 -22.807800
C -81.996700 -3.448000 -21.397500
C -81.403000 -5.053800 -19.028700
O -81.148800 -3.970100 -18.503700
H -81.078500 -3.417300 -21.157900
H -80.678100 -6.812600 -19.494300
N -80.519300 -6.078300 -19.034600
N -79.360100 -5.930900 -18.291400
H -79.060100 -7.513100 -20.308500
H -78.725700 -4.809400 -17.023300
H -78.524300 -8.614000 -19.278100
C -78.355400 -7.728400 -19.661800
C -78.350000 -6.704400 -18.571000
O -78.072100 -4.621800 -16.531400
H -77.483900 -7.728400 -20.113700
C -77.155400 -6.517800 -17.738200
C -77.075900 -5.495400 -16.758400
H -76.097900 -8.095500 -18.494000
C -76.064900 -7.402500 -17.844400
C -75.947400 -5.372200 -15.949000
H -75.897300 -4.675100 -15.305200
C -74.955500 -7.295400 -17.038900
C -74.894700 -6.273900 -16.086300
H -74.237300 -7.910400 -17.129500
O -73.795600 -6.221600 -15.280800
H -73.483900 -6.995100 -15.183400
H -88.012100 -5.582900 -17.360300
H -87.575700 -7.334100 -18.854400
C -87.138100 -5.954600 -17.401200
C -86.870700 -7.006700 -18.306000
H -86.332400 -4.751600 -15.969400
C -86.148600 -5.459200 -16.576200
C -85.619400 -7.572500 -18.415100
H -85.443400 -8.269500 -19.036500
C -84.865700 -6.025500 -16.655100
C -84.616300 -7.076600 -17.574600
H -84.159300 -4.790800 -14.245500
C -83.621700 -5.760400 -15.981100
C -83.406900 -4.747100 -14.888300
H -83.390300 -3.838300 -15.280800
N -83.291000 -7.413000 -17.473300
H -82.885100 -8.040700 -17.937900
C -82.697200 -6.610400 -16.527500
C -82.103500 -5.004600 -14.158800
O -81.849300 -6.088300 -13.633800
H -81.779000 -6.641100 -16.287900
H -81.378600 -3.245800 -14.624400
N -81.219900 -3.980100 -14.164600
N -80.060600 -4.127500 -13.421500
H -79.760600 -2.545300 -15.438600
H -79.426200 -5.249000 -12.153400
H -79.224900 -1.444400 -14.408100
C -79.056000 -2.330000 -14.791900
C -79.050500 -3.354000 -13.701000
O -78.772600 -5.436600 -11.661500
H -78.184500 -2.330000 -15.243800
C -77.856000 -3.540600 -12.868300
C -77.776500 -4.563000 -11.888400
H -76.798500 -1.962900 -13.624100
C -76.765500 -2.655900 -12.974400
C -76.647900 -4.686200 -11.079100
H -76.597800 -5.383300 -10.435300
C -75.656100 -2.763000 -12.169000
C -75.595300 -3.784500 -11.216400
H -74.937900 -2.148000 -12.259500
O -74.496200 -3.836800 -10.410900
H -74.184400 -3.063300 -10.313500
