34
Fragment
O -15.288100 -17.971600 -18.009300
O -14.452800 -16.116700 -18.788200
N -14.349400 -17.228800 -18.264900
O -14.292700 -16.331300 -22.066600
H -13.713700 -18.793300 -16.336400
O -13.671900 -17.952200 -20.756300
N -13.538600 -16.822900 -21.227200
C -13.000100 -17.655900 -17.856600
C -12.933100 -18.463600 -16.731100
O -12.610900 -20.186900 -14.645800
H -12.418300 -14.897500 -22.530400
C -12.326900 -16.067500 -20.847700
C -11.862300 -15.153600 -21.785300
C -11.848400 -17.168300 -18.480700
C -11.684100 -18.723600 -16.190100
N -11.597000 -19.599100 -14.998700
C -11.582800 -16.386100 -19.711600
O -10.907300 -13.158800 -23.357600
C -10.611600 -17.367800 -17.818400
C -10.579500 -14.671800 -21.637600
C -10.514600 -18.160800 -16.676900
O -10.506100 -19.690900 -14.441500
C -10.235600 -15.942000 -19.664900
N -10.075200 -13.714900 -22.644000
C -9.711600 -15.089500 -20.634300
H -9.689700 -18.333500 -16.242700
C -9.564900 -16.581800 -18.510500
O -8.867000 -13.522600 -22.698700
H -8.819600 -14.797200 -20.633800
C -8.261700 -16.460800 -18.152400
C -7.692600 -17.140500 -17.010500
C -7.320600 -15.612300 -18.844300
N -7.238300 -17.645500 -16.086500
N -6.551200 -14.929300 -19.351200
34
Fragment
O -11.145100 -19.648400 -25.694100
O -10.309800 -21.503300 -26.473000
N -10.206300 -20.391200 -25.949700
O -10.149600 -21.288700 -29.751400
H -9.570600 -18.826700 -24.021300
O -9.528900 -19.667800 -28.441100
N -9.395600 -20.797100 -28.912100
C -8.857000 -19.964100 -25.541500
C -8.790000 -19.156400 -24.416000
O -8.467900 -17.433100 -22.330600
H -8.275300 -22.722500 -30.215300
C -8.183800 -21.552500 -28.532600
C -7.719300 -22.466400 -29.470100
C -7.705300 -20.451700 -26.165500
C -7.541100 -18.896400 -23.875000
N -7.454000 -18.020900 -22.683500
C -7.439700 -21.233900 -27.396500
O -6.764300 -24.461200 -31.042400
C -6.468600 -20.252200 -25.503200
C -6.436400 -22.948200 -29.322400
C -6.371500 -19.459200 -24.361700
O -6.363100 -17.929100 -22.126300
C -6.092500 -21.678000 -27.349700
N -5.932200 -23.905100 -30.328800
C -5.568600 -22.530500 -28.319100
H -5.546600 -19.286500 -23.927500
C -5.421900 -21.038200 -26.195300
O -4.723900 -24.097400 -30.383500
H -4.676500 -22.822800 -28.318600
C -4.118700 -21.159200 -25.837200
C -3.549600 -20.479500 -24.695400
C -3.177500 -22.007700 -26.529100
N -3.095200 -19.974500 -23.771400
N -2.408200 -22.690700 -27.036000
68
Fragment
O -15.288100 -17.971600 -18.009300
O -14.452800 -16.116700 -18.788200
N -14.349400 -17.228800 -18.264900
O -14.292700 -16.331300 -22.066600
H -13.713700 -18.793300 -16.336400
O -13.671900 -17.952200 -20.756300
N -13.538600 -16.822900 -21.227200
C -13.000100 -17.655900 -17.856600
C -12.933100 -18.463600 -16.731100
O -12.610900 -20.186900 -14.645800
H -12.418300 -14.897500 -22.530400
C -12.326900 -16.067500 -20.847700
C -11.862300 -15.153600 -21.785300
C -11.848400 -17.168300 -18.480700
C -11.684100 -18.723600 -16.190100
N -11.597000 -19.599100 -14.998700
C -11.582800 -16.386100 -19.711600
O -10.907300 -13.158800 -23.357600
C -10.611600 -17.367800 -17.818400
C -10.579500 -14.671800 -21.637600
C -10.514600 -18.160800 -16.676900
O -10.506100 -19.690900 -14.441500
C -10.235600 -15.942000 -19.664900
N -10.075200 -13.714900 -22.644000
C -9.711600 -15.089500 -20.634300
H -9.689700 -18.333500 -16.242700
C -9.564900 -16.581800 -18.510500
O -8.867000 -13.522600 -22.698700
H -8.819600 -14.797200 -20.633800
C -8.261700 -16.460800 -18.152400
C -7.692600 -17.140500 -17.010500
C -7.320600 -15.612300 -18.844300
N -7.238300 -17.645500 -16.086500
N -6.551200 -14.929300 -19.351200
O -11.145100 -19.648400 -25.694100
O -10.309800 -21.503300 -26.473000
N -10.206300 -20.391200 -25.949700
O -10.149600 -21.288700 -29.751400
H -9.570600 -18.826700 -24.021300
O -9.528900 -19.667800 -28.441100
N -9.395600 -20.797100 -28.912100
C -8.857000 -19.964100 -25.541500
C -8.790000 -19.156400 -24.416000
O -8.467900 -17.433100 -22.330600
H -8.275300 -22.722500 -30.215300
C -8.183800 -21.552500 -28.532600
C -7.719300 -22.466400 -29.470100
C -7.705300 -20.451700 -26.165500
C -7.541100 -18.896400 -23.875000
N -7.454000 -18.020900 -22.683500
C -7.439700 -21.233900 -27.396500
O -6.764300 -24.461200 -31.042400
C -6.468600 -20.252200 -25.503200
C -6.436400 -22.948200 -29.322400
C -6.371500 -19.459200 -24.361700
O -6.363100 -17.929100 -22.126300
C -6.092500 -21.678000 -27.349700
N -5.932200 -23.905100 -30.328800
C -5.568600 -22.530500 -28.319100
H -5.546600 -19.286500 -23.927500
C -5.421900 -21.038200 -26.195300
O -4.723900 -24.097400 -30.383500
H -4.676500 -22.822800 -28.318600
C -4.118700 -21.159200 -25.837200
C -3.549600 -20.479500 -24.695400
C -3.177500 -22.007700 -26.529100
N -3.095200 -19.974500 -23.771400
N -2.408200 -22.690700 -27.036000
