34
Fragment
O -15.288100 -17.971600 -18.009300
O -14.452800 -16.116700 -18.788200
N -14.349400 -17.228800 -18.264900
O -14.292700 -16.331300 -22.066600
H -13.713700 -18.793300 -16.336400
O -13.671900 -17.952200 -20.756300
N -13.538600 -16.822900 -21.227200
C -13.000100 -17.655900 -17.856600
C -12.933100 -18.463600 -16.731100
O -12.610900 -20.186900 -14.645800
H -12.418300 -14.897500 -22.530400
C -12.326900 -16.067500 -20.847700
C -11.862300 -15.153600 -21.785300
C -11.848400 -17.168300 -18.480700
C -11.684100 -18.723600 -16.190100
N -11.597000 -19.599100 -14.998700
C -11.582800 -16.386100 -19.711600
O -10.907300 -13.158800 -23.357600
C -10.611600 -17.367800 -17.818400
C -10.579500 -14.671800 -21.637600
C -10.514600 -18.160800 -16.676900
O -10.506100 -19.690900 -14.441500
C -10.235600 -15.942000 -19.664900
N -10.075200 -13.714900 -22.644000
C -9.711600 -15.089500 -20.634300
H -9.689700 -18.333500 -16.242700
C -9.564900 -16.581800 -18.510500
O -8.867000 -13.522600 -22.698700
H -8.819600 -14.797200 -20.633800
C -8.261700 -16.460800 -18.152400
C -7.692600 -17.140500 -17.010500
C -7.320600 -15.612300 -18.844300
N -7.238300 -17.645500 -16.086500
N -6.551200 -14.929300 -19.351200
12
Fragment
H -21.223900 -16.452500 -20.102000
H -20.568000 -17.798400 -21.886400
C -20.323500 -16.718300 -20.188700
C -19.915800 -17.534300 -21.234300
Cl -19.874700 -15.272000 -17.937600
C -19.374300 -16.315400 -19.251800
C -18.589500 -17.944700 -21.336300
H -18.308300 -18.509000 -22.040100
C -18.047200 -16.703300 -19.334400
C -17.661100 -17.528400 -20.384800
H -17.401000 -16.410700 -18.674200
H -16.750200 -17.815200 -20.464700
46
Fragment
O -15.288100 -17.971600 -18.009300
O -14.452800 -16.116700 -18.788200
N -14.349400 -17.228800 -18.264900
O -14.292700 -16.331300 -22.066600
H -13.713700 -18.793300 -16.336400
O -13.671900 -17.952200 -20.756300
N -13.538600 -16.822900 -21.227200
C -13.000100 -17.655900 -17.856600
C -12.933100 -18.463600 -16.731100
O -12.610900 -20.186900 -14.645800
H -12.418300 -14.897500 -22.530400
C -12.326900 -16.067500 -20.847700
C -11.862300 -15.153600 -21.785300
C -11.848400 -17.168300 -18.480700
C -11.684100 -18.723600 -16.190100
N -11.597000 -19.599100 -14.998700
C -11.582800 -16.386100 -19.711600
O -10.907300 -13.158800 -23.357600
C -10.611600 -17.367800 -17.818400
C -10.579500 -14.671800 -21.637600
C -10.514600 -18.160800 -16.676900
O -10.506100 -19.690900 -14.441500
C -10.235600 -15.942000 -19.664900
N -10.075200 -13.714900 -22.644000
C -9.711600 -15.089500 -20.634300
H -9.689700 -18.333500 -16.242700
C -9.564900 -16.581800 -18.510500
O -8.867000 -13.522600 -22.698700
H -8.819600 -14.797200 -20.633800
C -8.261700 -16.460800 -18.152400
C -7.692600 -17.140500 -17.010500
C -7.320600 -15.612300 -18.844300
N -7.238300 -17.645500 -16.086500
N -6.551200 -14.929300 -19.351200
H -21.223900 -16.452500 -20.102000
H -20.568000 -17.798400 -21.886400
C -20.323500 -16.718300 -20.188700
C -19.915800 -17.534300 -21.234300
Cl -19.874700 -15.272000 -17.937600
C -19.374300 -16.315400 -19.251800
C -18.589500 -17.944700 -21.336300
H -18.308300 -18.509000 -22.040100
C -18.047200 -16.703300 -19.334400
C -17.661100 -17.528400 -20.384800
H -17.401000 -16.410700 -18.674200
H -16.750200 -17.815200 -20.464700
