34
Fragment
O -15.288100 -17.971600 -18.009300
O -14.452800 -16.116700 -18.788200
N -14.349400 -17.228800 -18.264900
O -14.292700 -16.331300 -22.066600
H -13.713700 -18.793300 -16.336400
O -13.671900 -17.952200 -20.756300
N -13.538600 -16.822900 -21.227200
C -13.000100 -17.655900 -17.856600
C -12.933100 -18.463600 -16.731100
O -12.610900 -20.186900 -14.645800
H -12.418300 -14.897500 -22.530400
C -12.326900 -16.067500 -20.847700
C -11.862300 -15.153600 -21.785300
C -11.848400 -17.168300 -18.480700
C -11.684100 -18.723600 -16.190100
N -11.597000 -19.599100 -14.998700
C -11.582800 -16.386100 -19.711600
O -10.907300 -13.158800 -23.357600
C -10.611600 -17.367800 -17.818400
C -10.579500 -14.671800 -21.637600
C -10.514600 -18.160800 -16.676900
O -10.506100 -19.690900 -14.441500
C -10.235600 -15.942000 -19.664900
N -10.075200 -13.714900 -22.644000
C -9.711600 -15.089500 -20.634300
H -9.689700 -18.333500 -16.242700
C -9.564900 -16.581800 -18.510500
O -8.867000 -13.522600 -22.698700
H -8.819600 -14.797200 -20.633800
C -8.261700 -16.460800 -18.152400
C -7.692600 -17.140500 -17.010500
C -7.320600 -15.612300 -18.844300
N -7.238300 -17.645500 -16.086500
N -6.551200 -14.929300 -19.351200
34
Fragment
N -23.202500 -19.109300 -19.073000
N -22.515500 -21.825500 -22.337700
C -22.433100 -19.792300 -19.579900
C -22.061100 -21.320500 -21.413700
C -21.492000 -20.640800 -20.271800
H -20.934200 -18.977200 -17.790400
O -20.886800 -17.702600 -15.725500
C -20.188800 -20.761800 -19.913700
H -20.064100 -22.513500 -22.181500
C -20.042100 -19.269500 -17.789900
N -19.678500 -17.894900 -15.780200
C -19.518200 -20.122000 -18.759300
O -19.247600 -23.870900 -23.982700
C -19.239200 -22.340800 -21.747300
C -19.174300 -18.851800 -16.786600
C -19.142100 -21.547800 -20.605800
O -18.846400 -17.338800 -15.066600
C -18.170900 -20.566100 -18.712600
N -18.156700 -23.779100 -23.425500
C -18.069600 -22.903600 -22.234100
C -17.905300 -21.348300 -19.943500
C -17.891400 -19.333600 -16.638900
C -17.426800 -20.247500 -17.576500
H -17.335400 -19.077500 -15.893800
O -17.142800 -24.366900 -23.778400
C -16.820700 -22.643600 -21.693100
C -16.753700 -21.835900 -20.567600
N -16.215100 -21.002900 -17.197000
O -16.081800 -22.132200 -17.667900
H -16.040100 -22.973300 -22.087800
O -15.461100 -20.511300 -16.357600
N -15.404300 -21.408800 -20.159300
O -15.300900 -20.296700 -19.636000
O -14.465600 -22.151600 -20.414900
68
Fragment
O -15.288100 -17.971600 -18.009300
O -14.452800 -16.116700 -18.788200
N -14.349400 -17.228800 -18.264900
O -14.292700 -16.331300 -22.066600
H -13.713700 -18.793300 -16.336400
O -13.671900 -17.952200 -20.756300
N -13.538600 -16.822900 -21.227200
C -13.000100 -17.655900 -17.856600
C -12.933100 -18.463600 -16.731100
O -12.610900 -20.186900 -14.645800
H -12.418300 -14.897500 -22.530400
C -12.326900 -16.067500 -20.847700
C -11.862300 -15.153600 -21.785300
C -11.848400 -17.168300 -18.480700
C -11.684100 -18.723600 -16.190100
N -11.597000 -19.599100 -14.998700
C -11.582800 -16.386100 -19.711600
O -10.907300 -13.158800 -23.357600
C -10.611600 -17.367800 -17.818400
C -10.579500 -14.671800 -21.637600
C -10.514600 -18.160800 -16.676900
O -10.506100 -19.690900 -14.441500
C -10.235600 -15.942000 -19.664900
N -10.075200 -13.714900 -22.644000
C -9.711600 -15.089500 -20.634300
H -9.689700 -18.333500 -16.242700
C -9.564900 -16.581800 -18.510500
O -8.867000 -13.522600 -22.698700
H -8.819600 -14.797200 -20.633800
C -8.261700 -16.460800 -18.152400
C -7.692600 -17.140500 -17.010500
C -7.320600 -15.612300 -18.844300
N -7.238300 -17.645500 -16.086500
N -6.551200 -14.929300 -19.351200
N -23.202500 -19.109300 -19.073000
N -22.515500 -21.825500 -22.337700
C -22.433100 -19.792300 -19.579900
C -22.061100 -21.320500 -21.413700
C -21.492000 -20.640800 -20.271800
H -20.934200 -18.977200 -17.790400
O -20.886800 -17.702600 -15.725500
C -20.188800 -20.761800 -19.913700
H -20.064100 -22.513500 -22.181500
C -20.042100 -19.269500 -17.789900
N -19.678500 -17.894900 -15.780200
C -19.518200 -20.122000 -18.759300
O -19.247600 -23.870900 -23.982700
C -19.239200 -22.340800 -21.747300
C -19.174300 -18.851800 -16.786600
C -19.142100 -21.547800 -20.605800
O -18.846400 -17.338800 -15.066600
C -18.170900 -20.566100 -18.712600
N -18.156700 -23.779100 -23.425500
C -18.069600 -22.903600 -22.234100
C -17.905300 -21.348300 -19.943500
C -17.891400 -19.333600 -16.638900
C -17.426800 -20.247500 -17.576500
H -17.335400 -19.077500 -15.893800
O -17.142800 -24.366900 -23.778400
C -16.820700 -22.643600 -21.693100
C -16.753700 -21.835900 -20.567600
N -16.215100 -21.002900 -17.197000
O -16.081800 -22.132200 -17.667900
H -16.040100 -22.973300 -22.087800
O -15.461100 -20.511300 -16.357600
N -15.404300 -21.408800 -20.159300
O -15.300900 -20.296700 -19.636000
O -14.465600 -22.151600 -20.414900
