19
Fragment
O -5.670700 -41.500600 -18.172000
H -5.591600 -41.886200 -22.640200
N -5.384600 -41.401400 -24.478100
N -5.301700 -41.284200 -23.125000
N -5.121400 -40.628300 -17.524800
O -5.109400 -40.550700 -16.295100
N -4.790700 -40.344500 -20.475100
N -4.782100 -40.375400 -24.984800
C -4.630800 -40.156700 -22.893000
N -4.487700 -39.645000 -18.184200
C -4.358800 -39.528000 -19.548200
N -4.337700 -39.688400 -21.621800
H -4.288600 -38.917900 -17.633500
N -4.286400 -39.566600 -24.003000
C -3.689600 -38.528200 -21.290800
N -3.682100 -38.414300 -19.967100
H -3.317000 -37.801600 -22.982100
N -3.164900 -37.692500 -22.157900
H -2.752300 -36.939000 -21.809800
19
Fragment
H -7.643900 -39.171600 -27.036400
N -7.231300 -38.418100 -26.688300
H -7.079100 -38.309000 -25.864100
N -6.714000 -37.696300 -28.879100
C -6.706500 -37.582400 -27.555400
N -6.109800 -36.544000 -24.843200
H -6.107600 -37.192700 -31.212700
N -6.058500 -36.422200 -27.224400
C -6.037300 -36.582600 -29.297900
N -5.908400 -36.465600 -30.662000
C -5.765400 -35.953900 -25.953200
N -5.614100 -35.735200 -23.861400
N -5.605400 -35.766100 -28.371100
O -5.286800 -35.559900 -32.551100
N -5.274700 -35.482300 -31.321400
N -5.094400 -34.826400 -25.721200
N -5.011600 -34.709200 -24.368100
H -4.804600 -34.224400 -26.206000
O -4.725400 -34.610000 -30.674200
38
Fragment
O -5.670700 -41.500600 -18.172000
H -5.591600 -41.886200 -22.640200
N -5.384600 -41.401400 -24.478100
N -5.301700 -41.284200 -23.125000
N -5.121400 -40.628300 -17.524800
O -5.109400 -40.550700 -16.295100
N -4.790700 -40.344500 -20.475100
N -4.782100 -40.375400 -24.984800
C -4.630800 -40.156700 -22.893000
N -4.487700 -39.645000 -18.184200
C -4.358800 -39.528000 -19.548200
N -4.337700 -39.688400 -21.621800
H -4.288600 -38.917900 -17.633500
N -4.286400 -39.566600 -24.003000
C -3.689600 -38.528200 -21.290800
N -3.682100 -38.414300 -19.967100
H -3.317000 -37.801600 -22.982100
N -3.164900 -37.692500 -22.157900
H -2.752300 -36.939000 -21.809800
H -7.643900 -39.171600 -27.036400
N -7.231300 -38.418100 -26.688300
H -7.079100 -38.309000 -25.864100
N -6.714000 -37.696300 -28.879100
C -6.706500 -37.582400 -27.555400
N -6.109800 -36.544000 -24.843200
H -6.107600 -37.192700 -31.212700
N -6.058500 -36.422200 -27.224400
C -6.037300 -36.582600 -29.297900
N -5.908400 -36.465600 -30.662000
C -5.765400 -35.953900 -25.953200
N -5.614100 -35.735200 -23.861400
N -5.605400 -35.766100 -28.371100
O -5.286800 -35.559900 -32.551100
N -5.274700 -35.482300 -31.321400
N -5.094400 -34.826400 -25.721200
N -5.011600 -34.709200 -24.368100
H -4.804600 -34.224400 -26.206000
O -4.725400 -34.610000 -30.674200
