19
Fragment
O -5.670700 -41.500600 -18.172000
H -5.591600 -41.886200 -22.640200
N -5.384600 -41.401400 -24.478100
N -5.301700 -41.284200 -23.125000
N -5.121400 -40.628300 -17.524800
O -5.109400 -40.550700 -16.295100
N -4.790700 -40.344500 -20.475100
N -4.782100 -40.375400 -24.984800
C -4.630800 -40.156700 -22.893000
N -4.487700 -39.645000 -18.184200
C -4.358800 -39.528000 -19.548200
N -4.337700 -39.688400 -21.621800
H -4.288600 -38.917900 -17.633500
N -4.286400 -39.566600 -24.003000
C -3.689600 -38.528200 -21.290800
N -3.682100 -38.414300 -19.967100
H -3.317000 -37.801600 -22.982100
N -3.164900 -37.692500 -22.157900
H -2.752300 -36.939000 -21.809800
19
Fragment
O -9.468900 -41.500600 -18.172000
H -9.389800 -41.886200 -22.640200
N -9.182800 -41.401400 -24.478100
N -9.099900 -41.284200 -23.125000
N -8.919600 -40.628300 -17.524800
O -8.907600 -40.550700 -16.295100
N -8.588900 -40.344500 -20.475100
N -8.580300 -40.375400 -24.984800
C -8.429000 -40.156700 -22.893000
N -8.285900 -39.645000 -18.184200
C -8.157000 -39.528000 -19.548200
N -8.135900 -39.688400 -21.621800
H -8.086800 -38.917900 -17.633500
N -8.084600 -39.566600 -24.003000
C -7.487800 -38.528200 -21.290800
N -7.480300 -38.414300 -19.967100
H -7.115200 -37.801600 -22.982100
N -6.963100 -37.692500 -22.157900
H -6.550500 -36.939000 -21.809800
38
Fragment
O -5.670700 -41.500600 -18.172000
H -5.591600 -41.886200 -22.640200
N -5.384600 -41.401400 -24.478100
N -5.301700 -41.284200 -23.125000
N -5.121400 -40.628300 -17.524800
O -5.109400 -40.550700 -16.295100
N -4.790700 -40.344500 -20.475100
N -4.782100 -40.375400 -24.984800
C -4.630800 -40.156700 -22.893000
N -4.487700 -39.645000 -18.184200
C -4.358800 -39.528000 -19.548200
N -4.337700 -39.688400 -21.621800
H -4.288600 -38.917900 -17.633500
N -4.286400 -39.566600 -24.003000
C -3.689600 -38.528200 -21.290800
N -3.682100 -38.414300 -19.967100
H -3.317000 -37.801600 -22.982100
N -3.164900 -37.692500 -22.157900
H -2.752300 -36.939000 -21.809800
O -9.468900 -41.500600 -18.172000
H -9.389800 -41.886200 -22.640200
N -9.182800 -41.401400 -24.478100
N -9.099900 -41.284200 -23.125000
N -8.919600 -40.628300 -17.524800
O -8.907600 -40.550700 -16.295100
N -8.588900 -40.344500 -20.475100
N -8.580300 -40.375400 -24.984800
C -8.429000 -40.156700 -22.893000
N -8.285900 -39.645000 -18.184200
C -8.157000 -39.528000 -19.548200
N -8.135900 -39.688400 -21.621800
H -8.086800 -38.917900 -17.633500
N -8.084600 -39.566600 -24.003000
C -7.487800 -38.528200 -21.290800
N -7.480300 -38.414300 -19.967100
H -7.115200 -37.801600 -22.982100
N -6.963100 -37.692500 -22.157900
H -6.550500 -36.939000 -21.809800
