19
Fragment
O -5.670700 -41.500600 -18.172000
H -5.591600 -41.886200 -22.640200
N -5.384600 -41.401400 -24.478100
N -5.301700 -41.284200 -23.125000
N -5.121400 -40.628300 -17.524800
O -5.109400 -40.550700 -16.295100
N -4.790700 -40.344500 -20.475100
N -4.782100 -40.375400 -24.984800
C -4.630800 -40.156700 -22.893000
N -4.487700 -39.645000 -18.184200
C -4.358800 -39.528000 -19.548200
N -4.337700 -39.688400 -21.621800
H -4.288600 -38.917900 -17.633500
N -4.286400 -39.566600 -24.003000
C -3.689600 -38.528200 -21.290800
N -3.682100 -38.414300 -19.967100
H -3.317000 -37.801600 -22.982100
N -3.164900 -37.692500 -22.157900
H -2.752300 -36.939000 -21.809800
19
Fragment
H -3.845700 -39.171600 -27.036400
N -3.433100 -38.418100 -26.688300
H -3.280900 -38.309000 -25.864100
N -2.915800 -37.696300 -28.879100
C -2.908300 -37.582400 -27.555400
N -2.311600 -36.544000 -24.843200
H -2.309400 -37.192700 -31.212700
N -2.260300 -36.422200 -27.224400
C -2.239100 -36.582600 -29.297900
N -2.110200 -36.465600 -30.662000
C -1.967200 -35.953900 -25.953200
N -1.815900 -35.735200 -23.861400
N -1.807200 -35.766100 -28.371100
O -1.488600 -35.559900 -32.551100
N -1.476500 -35.482300 -31.321400
N -1.296200 -34.826400 -25.721200
N -1.213400 -34.709200 -24.368100
H -1.006400 -34.224400 -26.206000
O -0.927200 -34.610000 -30.674200
38
Fragment
O -5.670700 -41.500600 -18.172000
H -5.591600 -41.886200 -22.640200
N -5.384600 -41.401400 -24.478100
N -5.301700 -41.284200 -23.125000
N -5.121400 -40.628300 -17.524800
O -5.109400 -40.550700 -16.295100
N -4.790700 -40.344500 -20.475100
N -4.782100 -40.375400 -24.984800
C -4.630800 -40.156700 -22.893000
N -4.487700 -39.645000 -18.184200
C -4.358800 -39.528000 -19.548200
N -4.337700 -39.688400 -21.621800
H -4.288600 -38.917900 -17.633500
N -4.286400 -39.566600 -24.003000
C -3.689600 -38.528200 -21.290800
N -3.682100 -38.414300 -19.967100
H -3.317000 -37.801600 -22.982100
N -3.164900 -37.692500 -22.157900
H -2.752300 -36.939000 -21.809800
H -3.845700 -39.171600 -27.036400
N -3.433100 -38.418100 -26.688300
H -3.280900 -38.309000 -25.864100
N -2.915800 -37.696300 -28.879100
C -2.908300 -37.582400 -27.555400
N -2.311600 -36.544000 -24.843200
H -2.309400 -37.192700 -31.212700
N -2.260300 -36.422200 -27.224400
C -2.239100 -36.582600 -29.297900
N -2.110200 -36.465600 -30.662000
C -1.967200 -35.953900 -25.953200
N -1.815900 -35.735200 -23.861400
N -1.807200 -35.766100 -28.371100
O -1.488600 -35.559900 -32.551100
N -1.476500 -35.482300 -31.321400
N -1.296200 -34.826400 -25.721200
N -1.213400 -34.709200 -24.368100
H -1.006400 -34.224400 -26.206000
O -0.927200 -34.610000 -30.674200
