19
Fragment
O -5.670700 -41.500600 -18.172000
H -5.591600 -41.886200 -22.640200
N -5.384600 -41.401400 -24.478100
N -5.301700 -41.284200 -23.125000
N -5.121400 -40.628300 -17.524800
O -5.109400 -40.550700 -16.295100
N -4.790700 -40.344500 -20.475100
N -4.782100 -40.375400 -24.984800
C -4.630800 -40.156700 -22.893000
N -4.487700 -39.645000 -18.184200
C -4.358800 -39.528000 -19.548200
N -4.337700 -39.688400 -21.621800
H -4.288600 -38.917900 -17.633500
N -4.286400 -39.566600 -24.003000
C -3.689600 -38.528200 -21.290800
N -3.682100 -38.414300 -19.967100
H -3.317000 -37.801600 -22.982100
N -3.164900 -37.692500 -22.157900
H -2.752300 -36.939000 -21.809800
12
Fragment
H -8.465100 -44.352200 -24.750400
H -8.455200 -43.086200 -27.055900
C -7.494800 -44.413100 -24.872500
C -7.491300 -43.258700 -27.088900
H -7.218500 -43.410900 -28.018200
N -7.183900 -44.436700 -26.295100
H -7.164600 -45.235100 -24.452400
H -7.063100 -43.639300 -24.456100
H -7.007100 -42.487500 -26.728600
C -6.626400 -45.485700 -26.848300
H -6.446600 -46.239700 -26.298800
O -6.319200 -45.548100 -28.053600
31
Fragment
O -5.670700 -41.500600 -18.172000
H -5.591600 -41.886200 -22.640200
N -5.384600 -41.401400 -24.478100
N -5.301700 -41.284200 -23.125000
N -5.121400 -40.628300 -17.524800
O -5.109400 -40.550700 -16.295100
N -4.790700 -40.344500 -20.475100
N -4.782100 -40.375400 -24.984800
C -4.630800 -40.156700 -22.893000
N -4.487700 -39.645000 -18.184200
C -4.358800 -39.528000 -19.548200
N -4.337700 -39.688400 -21.621800
H -4.288600 -38.917900 -17.633500
N -4.286400 -39.566600 -24.003000
C -3.689600 -38.528200 -21.290800
N -3.682100 -38.414300 -19.967100
H -3.317000 -37.801600 -22.982100
N -3.164900 -37.692500 -22.157900
H -2.752300 -36.939000 -21.809800
H -8.465100 -44.352200 -24.750400
H -8.455200 -43.086200 -27.055900
C -7.494800 -44.413100 -24.872500
C -7.491300 -43.258700 -27.088900
H -7.218500 -43.410900 -28.018200
N -7.183900 -44.436700 -26.295100
H -7.164600 -45.235100 -24.452400
H -7.063100 -43.639300 -24.456100
H -7.007100 -42.487500 -26.728600
C -6.626400 -45.485700 -26.848300
H -6.446600 -46.239700 -26.298800
O -6.319200 -45.548100 -28.053600
