19
Fragment
O -5.670700 -41.500600 -18.172000
H -5.591600 -41.886200 -22.640200
N -5.384600 -41.401400 -24.478100
N -5.301700 -41.284200 -23.125000
N -5.121400 -40.628300 -17.524800
O -5.109400 -40.550700 -16.295100
N -4.790700 -40.344500 -20.475100
N -4.782100 -40.375400 -24.984800
C -4.630800 -40.156700 -22.893000
N -4.487700 -39.645000 -18.184200
C -4.358800 -39.528000 -19.548200
N -4.337700 -39.688400 -21.621800
H -4.288600 -38.917900 -17.633500
N -4.286400 -39.566600 -24.003000
C -3.689600 -38.528200 -21.290800
N -3.682100 -38.414300 -19.967100
H -3.317000 -37.801600 -22.982100
N -3.164900 -37.692500 -22.157900
H -2.752300 -36.939000 -21.809800
19
Fragment
O -5.421100 -41.500600 -30.383600
H -5.341900 -41.886200 -34.851800
N -5.135000 -41.401400 -36.689600
N -5.052100 -41.284200 -35.336600
N -4.871800 -40.628300 -29.736300
O -4.859700 -40.550700 -28.506600
N -4.541100 -40.344500 -32.686700
N -4.532500 -40.375400 -37.196400
C -4.381100 -40.156700 -35.104500
N -4.238100 -39.645000 -30.395800
C -4.109200 -39.528000 -31.759800
N -4.088100 -39.688400 -33.833300
H -4.038900 -38.917900 -29.845000
N -4.036700 -39.566600 -36.214600
C -3.440000 -38.528200 -33.502400
N -3.432500 -38.414300 -32.178700
H -3.067400 -37.801600 -35.193700
N -2.915300 -37.692500 -34.369400
H -2.502700 -36.939000 -34.021400
38
Fragment
O -5.670700 -41.500600 -18.172000
H -5.591600 -41.886200 -22.640200
N -5.384600 -41.401400 -24.478100
N -5.301700 -41.284200 -23.125000
N -5.121400 -40.628300 -17.524800
O -5.109400 -40.550700 -16.295100
N -4.790700 -40.344500 -20.475100
N -4.782100 -40.375400 -24.984800
C -4.630800 -40.156700 -22.893000
N -4.487700 -39.645000 -18.184200
C -4.358800 -39.528000 -19.548200
N -4.337700 -39.688400 -21.621800
H -4.288600 -38.917900 -17.633500
N -4.286400 -39.566600 -24.003000
C -3.689600 -38.528200 -21.290800
N -3.682100 -38.414300 -19.967100
H -3.317000 -37.801600 -22.982100
N -3.164900 -37.692500 -22.157900
H -2.752300 -36.939000 -21.809800
O -5.421100 -41.500600 -30.383600
H -5.341900 -41.886200 -34.851800
N -5.135000 -41.401400 -36.689600
N -5.052100 -41.284200 -35.336600
N -4.871800 -40.628300 -29.736300
O -4.859700 -40.550700 -28.506600
N -4.541100 -40.344500 -32.686700
N -4.532500 -40.375400 -37.196400
C -4.381100 -40.156700 -35.104500
N -4.238100 -39.645000 -30.395800
C -4.109200 -39.528000 -31.759800
N -4.088100 -39.688400 -33.833300
H -4.038900 -38.917900 -29.845000
N -4.036700 -39.566600 -36.214600
C -3.440000 -38.528200 -33.502400
N -3.432500 -38.414300 -32.178700
H -3.067400 -37.801600 -35.193700
N -2.915300 -37.692500 -34.369400
H -2.502700 -36.939000 -34.021400
