19
Fragment
O -5.670700 -41.500600 -18.172000
H -5.591600 -41.886200 -22.640200
N -5.384600 -41.401400 -24.478100
N -5.301700 -41.284200 -23.125000
N -5.121400 -40.628300 -17.524800
O -5.109400 -40.550700 -16.295100
N -4.790700 -40.344500 -20.475100
N -4.782100 -40.375400 -24.984800
C -4.630800 -40.156700 -22.893000
N -4.487700 -39.645000 -18.184200
C -4.358800 -39.528000 -19.548200
N -4.337700 -39.688400 -21.621800
H -4.288600 -38.917900 -17.633500
N -4.286400 -39.566600 -24.003000
C -3.689600 -38.528200 -21.290800
N -3.682100 -38.414300 -19.967100
H -3.317000 -37.801600 -22.982100
N -3.164900 -37.692500 -22.157900
H -2.752300 -36.939000 -21.809800
19
Fragment
H -7.893500 -39.171600 -14.824800
N -7.480900 -38.418100 -14.476800
H -7.328700 -38.309000 -13.652500
N -6.963600 -37.696300 -16.667500
C -6.956100 -37.582400 -15.343800
N -6.359400 -36.544000 -12.631600
H -6.357200 -37.192700 -19.001200
N -6.308100 -36.422200 -15.012900
C -6.287000 -36.582600 -17.086400
N -6.158000 -36.465600 -18.450400
C -6.015000 -35.953900 -13.741700
N -5.863700 -35.735200 -11.649800
N -5.855100 -35.766100 -16.159500
O -5.536400 -35.559900 -20.339600
N -5.524300 -35.482300 -19.109900
N -5.344100 -34.826400 -13.509600
N -5.261200 -34.709200 -12.156600
H -5.054200 -34.224400 -13.994400
O -4.975000 -34.610000 -18.462600
38
Fragment
O -5.670700 -41.500600 -18.172000
H -5.591600 -41.886200 -22.640200
N -5.384600 -41.401400 -24.478100
N -5.301700 -41.284200 -23.125000
N -5.121400 -40.628300 -17.524800
O -5.109400 -40.550700 -16.295100
N -4.790700 -40.344500 -20.475100
N -4.782100 -40.375400 -24.984800
C -4.630800 -40.156700 -22.893000
N -4.487700 -39.645000 -18.184200
C -4.358800 -39.528000 -19.548200
N -4.337700 -39.688400 -21.621800
H -4.288600 -38.917900 -17.633500
N -4.286400 -39.566600 -24.003000
C -3.689600 -38.528200 -21.290800
N -3.682100 -38.414300 -19.967100
H -3.317000 -37.801600 -22.982100
N -3.164900 -37.692500 -22.157900
H -2.752300 -36.939000 -21.809800
H -7.893500 -39.171600 -14.824800
N -7.480900 -38.418100 -14.476800
H -7.328700 -38.309000 -13.652500
N -6.963600 -37.696300 -16.667500
C -6.956100 -37.582400 -15.343800
N -6.359400 -36.544000 -12.631600
H -6.357200 -37.192700 -19.001200
N -6.308100 -36.422200 -15.012900
C -6.287000 -36.582600 -17.086400
N -6.158000 -36.465600 -18.450400
C -6.015000 -35.953900 -13.741700
N -5.863700 -35.735200 -11.649800
N -5.855100 -35.766100 -16.159500
O -5.536400 -35.559900 -20.339600
N -5.524300 -35.482300 -19.109900
N -5.344100 -34.826400 -13.509600
N -5.261200 -34.709200 -12.156600
H -5.054200 -34.224400 -13.994400
O -4.975000 -34.610000 -18.462600
