19
Fragment
O -11.660700 -7.961200 -29.061900
H -11.266500 -7.794400 -26.567000
C -10.784700 -8.910200 -28.950000
N -10.689200 -8.627400 -26.506500
H -10.653900 -9.219800 -31.010200
O -10.593000 -8.488400 -24.235400
N -10.373900 -9.528500 -30.085600
C -10.353200 -9.269700 -27.730100
C -10.314300 -9.020400 -25.282900
C -9.569300 -10.578200 -29.885600
H -9.546800 -11.017700 -31.931100
C -9.505100 -10.285800 -27.719100
C -9.385200 -10.122800 -25.303100
N -9.161000 -11.263600 -31.024800
N -9.001000 -10.721900 -26.457000
N -8.984000 -10.999900 -28.751900
O -8.886300 -10.578200 -24.185900
H -8.477100 -12.009800 -30.949600
H -8.343600 -11.494100 -26.422100
19
Fragment
O -11.696400 -16.003800 -19.889500
H -11.302200 -16.170600 -17.394600
C -10.820400 -15.054800 -19.777600
N -10.724900 -15.337600 -17.334100
H -10.689600 -14.745200 -21.837700
O -10.628700 -15.476600 -15.063000
N -10.409600 -14.436500 -20.913100
C -10.388900 -14.695300 -18.557700
C -10.350000 -14.944600 -16.110500
C -9.605000 -13.386800 -20.713200
H -9.582500 -12.947300 -22.758600
C -9.540800 -13.679200 -18.546700
C -9.420900 -13.842200 -16.130600
N -9.196700 -12.701500 -21.852400
N -9.036700 -13.243100 -17.284500
N -9.019700 -12.965100 -19.579500
O -8.922000 -13.386800 -15.013400
H -8.512800 -11.955200 -21.777200
H -8.379300 -12.470900 -17.249700
38
Fragment
O -11.660700 -7.961200 -29.061900
H -11.266500 -7.794400 -26.567000
C -10.784700 -8.910200 -28.950000
N -10.689200 -8.627400 -26.506500
H -10.653900 -9.219800 -31.010200
O -10.593000 -8.488400 -24.235400
N -10.373900 -9.528500 -30.085600
C -10.353200 -9.269700 -27.730100
C -10.314300 -9.020400 -25.282900
C -9.569300 -10.578200 -29.885600
H -9.546800 -11.017700 -31.931100
C -9.505100 -10.285800 -27.719100
C -9.385200 -10.122800 -25.303100
N -9.161000 -11.263600 -31.024800
N -9.001000 -10.721900 -26.457000
N -8.984000 -10.999900 -28.751900
O -8.886300 -10.578200 -24.185900
H -8.477100 -12.009800 -30.949600
H -8.343600 -11.494100 -26.422100
O -11.696400 -16.003800 -19.889500
H -11.302200 -16.170600 -17.394600
C -10.820400 -15.054800 -19.777600
N -10.724900 -15.337600 -17.334100
H -10.689600 -14.745200 -21.837700
O -10.628700 -15.476600 -15.063000
N -10.409600 -14.436500 -20.913100
C -10.388900 -14.695300 -18.557700
C -10.350000 -14.944600 -16.110500
C -9.605000 -13.386800 -20.713200
H -9.582500 -12.947300 -22.758600
C -9.540800 -13.679200 -18.546700
C -9.420900 -13.842200 -16.130600
N -9.196700 -12.701500 -21.852400
N -9.036700 -13.243100 -17.284500
N -9.019700 -12.965100 -19.579500
O -8.922000 -13.386800 -15.013400
H -8.512800 -11.955200 -21.777200
H -8.379300 -12.470900 -17.249700
