19
Fragment
O -11.660700 -7.961200 -29.061900
H -11.266500 -7.794400 -26.567000
C -10.784700 -8.910200 -28.950000
N -10.689200 -8.627400 -26.506500
H -10.653900 -9.219800 -31.010200
O -10.593000 -8.488400 -24.235400
N -10.373900 -9.528500 -30.085600
C -10.353200 -9.269700 -27.730100
C -10.314300 -9.020400 -25.282900
C -9.569300 -10.578200 -29.885600
H -9.546800 -11.017700 -31.931100
C -9.505100 -10.285800 -27.719100
C -9.385200 -10.122800 -25.303100
N -9.161000 -11.263600 -31.024800
N -9.001000 -10.721900 -26.457000
N -8.984000 -10.999900 -28.751900
O -8.886300 -10.578200 -24.185900
H -8.477100 -12.009800 -30.949600
H -8.343600 -11.494100 -26.422100
19
Fragment
H -7.634100 -11.494100 -19.440000
H -7.500600 -12.009800 -14.912500
O -7.091400 -10.578200 -21.676300
N -6.993700 -10.999900 -17.110300
N -6.976700 -10.721900 -19.405200
N -6.816700 -11.263600 -14.837300
C -6.592500 -10.122800 -20.559100
C -6.472600 -10.285800 -18.143100
H -6.430900 -11.017700 -13.931100
C -6.408400 -10.578200 -15.976500
C -5.663400 -9.020400 -20.579300
C -5.624500 -9.269700 -18.132100
N -5.603800 -9.528500 -15.776600
O -5.384700 -8.488400 -21.626800
H -5.323800 -9.219800 -14.852000
N -5.288500 -8.627400 -19.355700
C -5.193000 -8.910200 -16.912100
H -4.711200 -7.794400 -19.295100
O -4.317000 -7.961200 -16.800200
38
Fragment
O -11.660700 -7.961200 -29.061900
H -11.266500 -7.794400 -26.567000
C -10.784700 -8.910200 -28.950000
N -10.689200 -8.627400 -26.506500
H -10.653900 -9.219800 -31.010200
O -10.593000 -8.488400 -24.235400
N -10.373900 -9.528500 -30.085600
C -10.353200 -9.269700 -27.730100
C -10.314300 -9.020400 -25.282900
C -9.569300 -10.578200 -29.885600
H -9.546800 -11.017700 -31.931100
C -9.505100 -10.285800 -27.719100
C -9.385200 -10.122800 -25.303100
N -9.161000 -11.263600 -31.024800
N -9.001000 -10.721900 -26.457000
N -8.984000 -10.999900 -28.751900
O -8.886300 -10.578200 -24.185900
H -8.477100 -12.009800 -30.949600
H -8.343600 -11.494100 -26.422100
H -7.634100 -11.494100 -19.440000
H -7.500600 -12.009800 -14.912500
O -7.091400 -10.578200 -21.676300
N -6.993700 -10.999900 -17.110300
N -6.976700 -10.721900 -19.405200
N -6.816700 -11.263600 -14.837300
C -6.592500 -10.122800 -20.559100
C -6.472600 -10.285800 -18.143100
H -6.430900 -11.017700 -13.931100
C -6.408400 -10.578200 -15.976500
C -5.663400 -9.020400 -20.579300
C -5.624500 -9.269700 -18.132100
N -5.603800 -9.528500 -15.776600
O -5.384700 -8.488400 -21.626800
H -5.323800 -9.219800 -14.852000
N -5.288500 -8.627400 -19.355700
C -5.193000 -8.910200 -16.912100
H -4.711200 -7.794400 -19.295100
O -4.317000 -7.961200 -16.800200
