51
Fragment
H -25.937200 -20.816300 -19.172400
H -25.789600 -20.114400 -21.575900
C -25.289100 -20.224400 -19.532600
C -25.220200 -19.837000 -20.867400
H -25.019600 -13.927800 -18.188500
H -24.961400 -15.826900 -17.715700
H -24.727500 -13.953900 -15.631400
H -24.347600 -12.670800 -18.906200
N -24.306700 -19.640300 -18.830700
H -24.259400 -17.258100 -17.854800
C -24.168600 -18.979400 -20.945500
C -24.158200 -13.467400 -18.350000
C -24.102300 -16.299200 -17.727600
C -24.030900 -13.342100 -15.843200
H -23.873100 -18.522200 -21.724200
H -23.638900 -16.155100 -16.876100
N -23.629300 -13.015600 -17.062900
N -23.622400 -18.895200 -19.719300
H -23.565700 -13.247000 -25.306300
H -23.330600 -12.681600 -14.006500
C -23.281400 -12.657600 -14.954700
C -23.264300 -14.395700 -19.139300
C -23.251400 -15.773100 -18.861200
C -22.822200 -13.638700 -24.862700
H -22.808000 -11.894400 -19.743100
H -22.625500 -12.187700 -21.305700
N -22.616500 -12.125000 -17.033700
N -22.593100 -13.544800 -23.554300
C -22.530900 -16.649900 -19.643800
C -22.479700 -18.112300 -19.274300
C -22.442600 -11.931000 -15.729400
C -22.441000 -13.898800 -20.143100
H -22.410600 -18.185800 -18.289100
C -22.292200 -12.396000 -20.407900
C -21.844500 -14.377200 -25.491700
C -21.800500 -16.168400 -20.744300
H -21.791100 -11.338200 -15.374500
H -21.787400 -14.585300 -26.416000
C -21.718100 -14.784700 -20.965400
H -21.657700 -18.506700 -19.661000
H -21.465100 -16.905000 -22.612800
N -21.439600 -14.236400 -23.363600
H -21.393200 -18.025800 -21.473900
H -21.346500 -12.145300 -20.343000
C -21.154700 -17.103900 -21.705700
C -20.982900 -14.742500 -24.517000
C -20.813000 -14.297400 -22.057900
H -20.486000 -13.393500 -21.820900
H -20.197500 -15.264300 -24.628300
H -20.182000 -16.997700 -21.660600
H -20.026500 -14.896500 -22.110900
51
Fragment
H -27.313900 -23.092700 -32.414800
H -27.166300 -22.390800 -34.818300
C -26.665800 -22.500800 -32.775000
C -26.596800 -22.113400 -34.109800
H -26.396300 -16.204200 -31.430900
H -26.338100 -18.103300 -30.958100
H -26.104200 -16.230300 -28.873800
H -25.724300 -14.947200 -32.148600
N -25.683300 -21.916700 -32.073100
H -25.636100 -19.534500 -31.097200
C -25.545200 -21.255800 -34.188000
C -25.534900 -15.743800 -31.592400
C -25.479000 -18.575600 -30.970100
C -25.407600 -15.618500 -29.085700
H -25.249800 -20.798600 -34.966600
H -25.015600 -18.431500 -30.118600
N -25.006000 -15.291900 -30.305300
N -24.999100 -21.171600 -32.961700
H -24.942300 -15.523400 -38.548700
H -24.707300 -14.958000 -27.248900
C -24.658100 -14.934000 -28.197100
C -24.641000 -16.672100 -32.381700
C -24.628100 -18.049500 -32.103600
C -24.198900 -15.915100 -38.105100
H -24.184700 -14.170800 -32.985600
H -24.002200 -14.464100 -34.548200
N -23.993200 -14.401400 -30.276200
N -23.969800 -15.821200 -36.796700
C -23.907600 -18.926300 -32.886200
C -23.856400 -20.388700 -32.516800
C -23.819300 -14.207400 -28.971800
C -23.817700 -16.175200 -33.385500
H -23.787300 -20.462200 -31.531500
C -23.668900 -14.672400 -33.650300
C -23.221200 -16.653600 -38.734100
C -23.177200 -18.444800 -33.986700
H -23.167800 -13.614600 -28.616900
H -23.164100 -16.861700 -39.658400
C -23.094700 -17.061100 -34.207800
H -23.034400 -20.783100 -32.903400
H -22.841800 -19.181400 -35.855200
N -22.816300 -16.512800 -36.606000
H -22.769900 -20.302200 -34.716300
H -22.723200 -14.421700 -33.585400
C -22.531400 -19.380300 -34.948100
C -22.359600 -17.018900 -37.759400
C -22.189700 -16.573800 -35.300300
H -21.862700 -15.669900 -35.063300
H -21.574200 -17.540700 -37.870700
H -21.558700 -19.274100 -34.903100
H -21.403200 -17.172900 -35.353300
102
Fragment
H -25.937200 -20.816300 -19.172400
H -25.789600 -20.114400 -21.575900
C -25.289100 -20.224400 -19.532600
C -25.220200 -19.837000 -20.867400
H -25.019600 -13.927800 -18.188500
H -24.961400 -15.826900 -17.715700
H -24.727500 -13.953900 -15.631400
H -24.347600 -12.670800 -18.906200
N -24.306700 -19.640300 -18.830700
H -24.259400 -17.258100 -17.854800
C -24.168600 -18.979400 -20.945500
C -24.158200 -13.467400 -18.350000
C -24.102300 -16.299200 -17.727600
C -24.030900 -13.342100 -15.843200
H -23.873100 -18.522200 -21.724200
H -23.638900 -16.155100 -16.876100
N -23.629300 -13.015600 -17.062900
N -23.622400 -18.895200 -19.719300
H -23.565700 -13.247000 -25.306300
H -23.330600 -12.681600 -14.006500
C -23.281400 -12.657600 -14.954700
C -23.264300 -14.395700 -19.139300
C -23.251400 -15.773100 -18.861200
C -22.822200 -13.638700 -24.862700
H -22.808000 -11.894400 -19.743100
H -22.625500 -12.187700 -21.305700
N -22.616500 -12.125000 -17.033700
N -22.593100 -13.544800 -23.554300
C -22.530900 -16.649900 -19.643800
C -22.479700 -18.112300 -19.274300
C -22.442600 -11.931000 -15.729400
C -22.441000 -13.898800 -20.143100
H -22.410600 -18.185800 -18.289100
C -22.292200 -12.396000 -20.407900
C -21.844500 -14.377200 -25.491700
C -21.800500 -16.168400 -20.744300
H -21.791100 -11.338200 -15.374500
H -21.787400 -14.585300 -26.416000
C -21.718100 -14.784700 -20.965400
H -21.657700 -18.506700 -19.661000
H -21.465100 -16.905000 -22.612800
N -21.439600 -14.236400 -23.363600
H -21.393200 -18.025800 -21.473900
H -21.346500 -12.145300 -20.343000
C -21.154700 -17.103900 -21.705700
C -20.982900 -14.742500 -24.517000
C -20.813000 -14.297400 -22.057900
H -20.486000 -13.393500 -21.820900
H -20.197500 -15.264300 -24.628300
H -20.182000 -16.997700 -21.660600
H -20.026500 -14.896500 -22.110900
H -27.313900 -23.092700 -32.414800
H -27.166300 -22.390800 -34.818300
C -26.665800 -22.500800 -32.775000
C -26.596800 -22.113400 -34.109800
H -26.396300 -16.204200 -31.430900
H -26.338100 -18.103300 -30.958100
H -26.104200 -16.230300 -28.873800
H -25.724300 -14.947200 -32.148600
N -25.683300 -21.916700 -32.073100
H -25.636100 -19.534500 -31.097200
C -25.545200 -21.255800 -34.188000
C -25.534900 -15.743800 -31.592400
C -25.479000 -18.575600 -30.970100
C -25.407600 -15.618500 -29.085700
H -25.249800 -20.798600 -34.966600
H -25.015600 -18.431500 -30.118600
N -25.006000 -15.291900 -30.305300
N -24.999100 -21.171600 -32.961700
H -24.942300 -15.523400 -38.548700
H -24.707300 -14.958000 -27.248900
C -24.658100 -14.934000 -28.197100
C -24.641000 -16.672100 -32.381700
C -24.628100 -18.049500 -32.103600
C -24.198900 -15.915100 -38.105100
H -24.184700 -14.170800 -32.985600
H -24.002200 -14.464100 -34.548200
N -23.993200 -14.401400 -30.276200
N -23.969800 -15.821200 -36.796700
C -23.907600 -18.926300 -32.886200
C -23.856400 -20.388700 -32.516800
C -23.819300 -14.207400 -28.971800
C -23.817700 -16.175200 -33.385500
H -23.787300 -20.462200 -31.531500
C -23.668900 -14.672400 -33.650300
C -23.221200 -16.653600 -38.734100
C -23.177200 -18.444800 -33.986700
H -23.167800 -13.614600 -28.616900
H -23.164100 -16.861700 -39.658400
C -23.094700 -17.061100 -34.207800
H -23.034400 -20.783100 -32.903400
H -22.841800 -19.181400 -35.855200
N -22.816300 -16.512800 -36.606000
H -22.769900 -20.302200 -34.716300
H -22.723200 -14.421700 -33.585400
C -22.531400 -19.380300 -34.948100
C -22.359600 -17.018900 -37.759400
C -22.189700 -16.573800 -35.300300
H -21.862700 -15.669900 -35.063300
H -21.574200 -17.540700 -37.870700
H -21.558700 -19.274100 -34.903100
H -21.403200 -17.172900 -35.353300
