51
Fragment
H -25.937200 -20.816300 -19.172400
H -25.789600 -20.114400 -21.575900
C -25.289100 -20.224400 -19.532600
C -25.220200 -19.837000 -20.867400
H -25.019600 -13.927800 -18.188500
H -24.961400 -15.826900 -17.715700
H -24.727500 -13.953900 -15.631400
H -24.347600 -12.670800 -18.906200
N -24.306700 -19.640300 -18.830700
H -24.259400 -17.258100 -17.854800
C -24.168600 -18.979400 -20.945500
C -24.158200 -13.467400 -18.350000
C -24.102300 -16.299200 -17.727600
C -24.030900 -13.342100 -15.843200
H -23.873100 -18.522200 -21.724200
H -23.638900 -16.155100 -16.876100
N -23.629300 -13.015600 -17.062900
N -23.622400 -18.895200 -19.719300
H -23.565700 -13.247000 -25.306300
H -23.330600 -12.681600 -14.006500
C -23.281400 -12.657600 -14.954700
C -23.264300 -14.395700 -19.139300
C -23.251400 -15.773100 -18.861200
C -22.822200 -13.638700 -24.862700
H -22.808000 -11.894400 -19.743100
H -22.625500 -12.187700 -21.305700
N -22.616500 -12.125000 -17.033700
N -22.593100 -13.544800 -23.554300
C -22.530900 -16.649900 -19.643800
C -22.479700 -18.112300 -19.274300
C -22.442600 -11.931000 -15.729400
C -22.441000 -13.898800 -20.143100
H -22.410600 -18.185800 -18.289100
C -22.292200 -12.396000 -20.407900
C -21.844500 -14.377200 -25.491700
C -21.800500 -16.168400 -20.744300
H -21.791100 -11.338200 -15.374500
H -21.787400 -14.585300 -26.416000
C -21.718100 -14.784700 -20.965400
H -21.657700 -18.506700 -19.661000
H -21.465100 -16.905000 -22.612800
N -21.439600 -14.236400 -23.363600
H -21.393200 -18.025800 -21.473900
H -21.346500 -12.145300 -20.343000
C -21.154700 -17.103900 -21.705700
C -20.982900 -14.742500 -24.517000
C -20.813000 -14.297400 -22.057900
H -20.486000 -13.393500 -21.820900
H -20.197500 -15.264300 -24.628300
H -20.182000 -16.997700 -21.660600
H -20.026500 -14.896500 -22.110900
51
Fragment
H -21.858500 -16.599500 -30.858800
H -21.703100 -14.498400 -31.309100
H -21.687500 -16.231700 -28.341400
H -21.399100 -18.102500 -31.148800
C -21.072000 -17.198600 -30.911800
C -20.902200 -16.753500 -28.452700
C -20.730400 -14.392100 -31.264000
H -20.538600 -19.350700 -32.626700
H -20.491900 -13.470300 -31.495800
N -20.445400 -17.259700 -29.606100
H -20.420000 -14.591100 -30.356900
H -20.227400 -12.989300 -33.308700
C -20.167000 -16.711400 -32.004300
H -20.097600 -16.910700 -26.553700
H -20.093900 -20.157800 -37.595200
C -20.084500 -15.327600 -32.225400
C -20.040500 -17.118900 -27.478000
C -19.592800 -19.100000 -32.561800
H -19.474400 -13.310200 -34.680600
C -19.444000 -17.597200 -32.826600
C -19.442500 -19.565000 -37.240300
C -19.405300 -13.383800 -33.695300
C -19.354200 -14.846200 -33.325900
N -19.291900 -17.951200 -29.415400
N -19.268500 -19.371000 -35.936000
H -19.259600 -19.308400 -31.664000
H -19.077000 -19.601600 -33.226600
C -19.062900 -17.857300 -28.107000
C -18.633600 -15.722900 -34.108500
C -18.620800 -17.100300 -33.830400
C -18.603700 -18.838400 -38.015000
H -18.554400 -18.814400 -38.963200
H -18.319400 -18.249000 -27.663400
N -18.262700 -12.600900 -33.250400
N -18.255700 -18.480500 -35.906800
H -18.246200 -15.341000 -36.093500
H -18.011900 -12.973800 -31.245500
C -17.854100 -18.153900 -37.126500
C -17.782800 -15.196800 -35.242100
C -17.726800 -18.028600 -34.619700
C -17.716500 -12.516600 -32.024200
H -17.625600 -14.237900 -35.114900
N -17.578400 -11.855800 -34.139000
H -17.537500 -18.825200 -34.063500
H -17.157600 -17.542100 -37.338300
H -16.923700 -15.669100 -35.254000
H -16.865400 -17.568200 -34.781200
C -16.664900 -11.659000 -32.102300
C -16.596000 -11.271600 -33.437100
H -16.095500 -11.381600 -31.393800
H -15.947900 -10.679700 -33.797300
102
Fragment
H -25.937200 -20.816300 -19.172400
H -25.789600 -20.114400 -21.575900
C -25.289100 -20.224400 -19.532600
C -25.220200 -19.837000 -20.867400
H -25.019600 -13.927800 -18.188500
H -24.961400 -15.826900 -17.715700
H -24.727500 -13.953900 -15.631400
H -24.347600 -12.670800 -18.906200
N -24.306700 -19.640300 -18.830700
H -24.259400 -17.258100 -17.854800
C -24.168600 -18.979400 -20.945500
C -24.158200 -13.467400 -18.350000
C -24.102300 -16.299200 -17.727600
C -24.030900 -13.342100 -15.843200
H -23.873100 -18.522200 -21.724200
H -23.638900 -16.155100 -16.876100
N -23.629300 -13.015600 -17.062900
N -23.622400 -18.895200 -19.719300
H -23.565700 -13.247000 -25.306300
H -23.330600 -12.681600 -14.006500
C -23.281400 -12.657600 -14.954700
C -23.264300 -14.395700 -19.139300
C -23.251400 -15.773100 -18.861200
C -22.822200 -13.638700 -24.862700
H -22.808000 -11.894400 -19.743100
H -22.625500 -12.187700 -21.305700
N -22.616500 -12.125000 -17.033700
N -22.593100 -13.544800 -23.554300
C -22.530900 -16.649900 -19.643800
C -22.479700 -18.112300 -19.274300
C -22.442600 -11.931000 -15.729400
C -22.441000 -13.898800 -20.143100
H -22.410600 -18.185800 -18.289100
C -22.292200 -12.396000 -20.407900
C -21.844500 -14.377200 -25.491700
C -21.800500 -16.168400 -20.744300
H -21.791100 -11.338200 -15.374500
H -21.787400 -14.585300 -26.416000
C -21.718100 -14.784700 -20.965400
H -21.657700 -18.506700 -19.661000
H -21.465100 -16.905000 -22.612800
N -21.439600 -14.236400 -23.363600
H -21.393200 -18.025800 -21.473900
H -21.346500 -12.145300 -20.343000
C -21.154700 -17.103900 -21.705700
C -20.982900 -14.742500 -24.517000
C -20.813000 -14.297400 -22.057900
H -20.486000 -13.393500 -21.820900
H -20.197500 -15.264300 -24.628300
H -20.182000 -16.997700 -21.660600
H -20.026500 -14.896500 -22.110900
H -21.858500 -16.599500 -30.858800
H -21.703100 -14.498400 -31.309100
H -21.687500 -16.231700 -28.341400
H -21.399100 -18.102500 -31.148800
C -21.072000 -17.198600 -30.911800
C -20.902200 -16.753500 -28.452700
C -20.730400 -14.392100 -31.264000
H -20.538600 -19.350700 -32.626700
H -20.491900 -13.470300 -31.495800
N -20.445400 -17.259700 -29.606100
H -20.420000 -14.591100 -30.356900
H -20.227400 -12.989300 -33.308700
C -20.167000 -16.711400 -32.004300
H -20.097600 -16.910700 -26.553700
H -20.093900 -20.157800 -37.595200
C -20.084500 -15.327600 -32.225400
C -20.040500 -17.118900 -27.478000
C -19.592800 -19.100000 -32.561800
H -19.474400 -13.310200 -34.680600
C -19.444000 -17.597200 -32.826600
C -19.442500 -19.565000 -37.240300
C -19.405300 -13.383800 -33.695300
C -19.354200 -14.846200 -33.325900
N -19.291900 -17.951200 -29.415400
N -19.268500 -19.371000 -35.936000
H -19.259600 -19.308400 -31.664000
H -19.077000 -19.601600 -33.226600
C -19.062900 -17.857300 -28.107000
C -18.633600 -15.722900 -34.108500
C -18.620800 -17.100300 -33.830400
C -18.603700 -18.838400 -38.015000
H -18.554400 -18.814400 -38.963200
H -18.319400 -18.249000 -27.663400
N -18.262700 -12.600900 -33.250400
N -18.255700 -18.480500 -35.906800
H -18.246200 -15.341000 -36.093500
H -18.011900 -12.973800 -31.245500
C -17.854100 -18.153900 -37.126500
C -17.782800 -15.196800 -35.242100
C -17.726800 -18.028600 -34.619700
C -17.716500 -12.516600 -32.024200
H -17.625600 -14.237900 -35.114900
N -17.578400 -11.855800 -34.139000
H -17.537500 -18.825200 -34.063500
H -17.157600 -17.542100 -37.338300
H -16.923700 -15.669100 -35.254000
H -16.865400 -17.568200 -34.781200
C -16.664900 -11.659000 -32.102300
C -16.596000 -11.271600 -33.437100
H -16.095500 -11.381600 -31.393800
H -15.947900 -10.679700 -33.797300
