51
Fragment
H -25.937200 -20.816300 -19.172400
H -25.789600 -20.114400 -21.575900
C -25.289100 -20.224400 -19.532600
C -25.220200 -19.837000 -20.867400
H -25.019600 -13.927800 -18.188500
H -24.961400 -15.826900 -17.715700
H -24.727500 -13.953900 -15.631400
H -24.347600 -12.670800 -18.906200
N -24.306700 -19.640300 -18.830700
H -24.259400 -17.258100 -17.854800
C -24.168600 -18.979400 -20.945500
C -24.158200 -13.467400 -18.350000
C -24.102300 -16.299200 -17.727600
C -24.030900 -13.342100 -15.843200
H -23.873100 -18.522200 -21.724200
H -23.638900 -16.155100 -16.876100
N -23.629300 -13.015600 -17.062900
N -23.622400 -18.895200 -19.719300
H -23.565700 -13.247000 -25.306300
H -23.330600 -12.681600 -14.006500
C -23.281400 -12.657600 -14.954700
C -23.264300 -14.395700 -19.139300
C -23.251400 -15.773100 -18.861200
C -22.822200 -13.638700 -24.862700
H -22.808000 -11.894400 -19.743100
H -22.625500 -12.187700 -21.305700
N -22.616500 -12.125000 -17.033700
N -22.593100 -13.544800 -23.554300
C -22.530900 -16.649900 -19.643800
C -22.479700 -18.112300 -19.274300
C -22.442600 -11.931000 -15.729400
C -22.441000 -13.898800 -20.143100
H -22.410600 -18.185800 -18.289100
C -22.292200 -12.396000 -20.407900
C -21.844500 -14.377200 -25.491700
C -21.800500 -16.168400 -20.744300
H -21.791100 -11.338200 -15.374500
H -21.787400 -14.585300 -26.416000
C -21.718100 -14.784700 -20.965400
H -21.657700 -18.506700 -19.661000
H -21.465100 -16.905000 -22.612800
N -21.439600 -14.236400 -23.363600
H -21.393200 -18.025800 -21.473900
H -21.346500 -12.145300 -20.343000
C -21.154700 -17.103900 -21.705700
C -20.982900 -14.742500 -24.517000
C -20.813000 -14.297400 -22.057900
H -20.486000 -13.393500 -21.820900
H -20.197500 -15.264300 -24.628300
H -20.182000 -16.997700 -21.660600
H -20.026500 -14.896500 -22.110900
51
Fragment
H -24.788500 -25.518400 -17.616400
H -24.633000 -23.417200 -18.066600
H -24.617400 -25.150600 -15.099000
H -24.329000 -27.021400 -17.906400
C -24.002000 -26.117500 -17.669400
C -23.832100 -25.672300 -15.210200
C -23.660300 -23.310900 -18.021600
H -23.468500 -28.269500 -19.384300
H -23.421800 -22.389100 -18.253400
N -23.375400 -26.178500 -16.363700
H -23.349900 -23.509900 -17.114500
H -23.157300 -21.908100 -20.066200
C -23.096900 -25.630200 -18.761900
H -23.027600 -25.829500 -13.311300
H -23.023900 -29.076600 -24.352800
C -23.014400 -24.246400 -18.983000
C -22.970500 -26.037700 -14.235600
C -22.522800 -28.018800 -19.319400
H -22.404400 -22.229000 -21.438200
C -22.374000 -26.516000 -19.584200
C -22.372400 -28.483800 -23.997900
C -22.335300 -22.302600 -20.452900
C -22.284100 -23.765000 -20.083500
N -22.221900 -26.870000 -16.173000
N -22.198500 -28.289800 -22.693500
H -22.189500 -28.227200 -18.421500
H -22.007000 -28.520400 -19.984100
C -21.992800 -26.776100 -14.864600
C -21.563500 -24.641800 -20.866100
C -21.550700 -26.019100 -20.588000
C -21.533600 -27.757200 -24.772600
H -21.484400 -27.733200 -25.720800
H -21.249300 -27.167800 -14.421000
N -21.192600 -21.519700 -20.008000
N -21.185700 -27.399300 -22.664400
H -21.176100 -24.259800 -22.851100
H -20.941900 -21.892700 -18.003100
C -20.784100 -27.072700 -23.884000
C -20.712700 -24.115700 -21.999600
C -20.656800 -26.947400 -21.377200
C -20.646400 -21.435400 -18.781700
H -20.555600 -23.156800 -21.872500
N -20.508300 -20.774600 -20.896500
H -20.467400 -27.744100 -20.821100
H -20.087500 -26.460900 -24.095900
H -19.853600 -24.587900 -22.011600
H -19.795400 -26.487100 -21.538800
C -19.594800 -20.577800 -18.859900
C -19.525900 -20.190400 -20.194700
H -19.025400 -20.300400 -18.151400
H -18.877800 -19.598600 -20.554900
102
Fragment
H -25.937200 -20.816300 -19.172400
H -25.789600 -20.114400 -21.575900
C -25.289100 -20.224400 -19.532600
C -25.220200 -19.837000 -20.867400
H -25.019600 -13.927800 -18.188500
H -24.961400 -15.826900 -17.715700
H -24.727500 -13.953900 -15.631400
H -24.347600 -12.670800 -18.906200
N -24.306700 -19.640300 -18.830700
H -24.259400 -17.258100 -17.854800
C -24.168600 -18.979400 -20.945500
C -24.158200 -13.467400 -18.350000
C -24.102300 -16.299200 -17.727600
C -24.030900 -13.342100 -15.843200
H -23.873100 -18.522200 -21.724200
H -23.638900 -16.155100 -16.876100
N -23.629300 -13.015600 -17.062900
N -23.622400 -18.895200 -19.719300
H -23.565700 -13.247000 -25.306300
H -23.330600 -12.681600 -14.006500
C -23.281400 -12.657600 -14.954700
C -23.264300 -14.395700 -19.139300
C -23.251400 -15.773100 -18.861200
C -22.822200 -13.638700 -24.862700
H -22.808000 -11.894400 -19.743100
H -22.625500 -12.187700 -21.305700
N -22.616500 -12.125000 -17.033700
N -22.593100 -13.544800 -23.554300
C -22.530900 -16.649900 -19.643800
C -22.479700 -18.112300 -19.274300
C -22.442600 -11.931000 -15.729400
C -22.441000 -13.898800 -20.143100
H -22.410600 -18.185800 -18.289100
C -22.292200 -12.396000 -20.407900
C -21.844500 -14.377200 -25.491700
C -21.800500 -16.168400 -20.744300
H -21.791100 -11.338200 -15.374500
H -21.787400 -14.585300 -26.416000
C -21.718100 -14.784700 -20.965400
H -21.657700 -18.506700 -19.661000
H -21.465100 -16.905000 -22.612800
N -21.439600 -14.236400 -23.363600
H -21.393200 -18.025800 -21.473900
H -21.346500 -12.145300 -20.343000
C -21.154700 -17.103900 -21.705700
C -20.982900 -14.742500 -24.517000
C -20.813000 -14.297400 -22.057900
H -20.486000 -13.393500 -21.820900
H -20.197500 -15.264300 -24.628300
H -20.182000 -16.997700 -21.660600
H -20.026500 -14.896500 -22.110900
H -24.788500 -25.518400 -17.616400
H -24.633000 -23.417200 -18.066600
H -24.617400 -25.150600 -15.099000
H -24.329000 -27.021400 -17.906400
C -24.002000 -26.117500 -17.669400
C -23.832100 -25.672300 -15.210200
C -23.660300 -23.310900 -18.021600
H -23.468500 -28.269500 -19.384300
H -23.421800 -22.389100 -18.253400
N -23.375400 -26.178500 -16.363700
H -23.349900 -23.509900 -17.114500
H -23.157300 -21.908100 -20.066200
C -23.096900 -25.630200 -18.761900
H -23.027600 -25.829500 -13.311300
H -23.023900 -29.076600 -24.352800
C -23.014400 -24.246400 -18.983000
C -22.970500 -26.037700 -14.235600
C -22.522800 -28.018800 -19.319400
H -22.404400 -22.229000 -21.438200
C -22.374000 -26.516000 -19.584200
C -22.372400 -28.483800 -23.997900
C -22.335300 -22.302600 -20.452900
C -22.284100 -23.765000 -20.083500
N -22.221900 -26.870000 -16.173000
N -22.198500 -28.289800 -22.693500
H -22.189500 -28.227200 -18.421500
H -22.007000 -28.520400 -19.984100
C -21.992800 -26.776100 -14.864600
C -21.563500 -24.641800 -20.866100
C -21.550700 -26.019100 -20.588000
C -21.533600 -27.757200 -24.772600
H -21.484400 -27.733200 -25.720800
H -21.249300 -27.167800 -14.421000
N -21.192600 -21.519700 -20.008000
N -21.185700 -27.399300 -22.664400
H -21.176100 -24.259800 -22.851100
H -20.941900 -21.892700 -18.003100
C -20.784100 -27.072700 -23.884000
C -20.712700 -24.115700 -21.999600
C -20.656800 -26.947400 -21.377200
C -20.646400 -21.435400 -18.781700
H -20.555600 -23.156800 -21.872500
N -20.508300 -20.774600 -20.896500
H -20.467400 -27.744100 -20.821100
H -20.087500 -26.460900 -24.095900
H -19.853600 -24.587900 -22.011600
H -19.795400 -26.487100 -21.538800
C -19.594800 -20.577800 -18.859900
C -19.525900 -20.190400 -20.194700
H -19.025400 -20.300400 -18.151400
H -18.877800 -19.598600 -20.554900
