12
Fragment
H -11.739300 -14.542900 -18.493700
O -11.076600 -14.027000 -18.953500
O -10.328200 -13.536700 -16.924400
C -10.245200 -13.459400 -18.130000
H -9.204600 -12.654800 -19.784400
C -9.193200 -12.674500 -18.811700
C -8.281700 -12.006500 -18.170700
H -8.270300 -12.026200 -17.198100
C -7.229700 -11.221600 -18.852400
O -7.146800 -11.144300 -20.058000
O -6.398300 -10.654000 -18.028900
H -5.735600 -10.138100 -18.488700
8
Fragment
H -9.100400 -8.650700 -17.279400
H -8.657900 -8.712400 -15.826000
N -8.608800 -8.398100 -16.585400
C -7.599400 -7.585300 -16.848000
O -7.401400 -7.177200 -18.021500
H -6.968500 -7.445400 -15.076500
N -6.814100 -7.192000 -15.853100
H -6.122900 -6.591500 -16.026900
20
Fragment
H -11.739300 -14.542900 -18.493700
O -11.076600 -14.027000 -18.953500
O -10.328200 -13.536700 -16.924400
C -10.245200 -13.459400 -18.130000
H -9.204600 -12.654800 -19.784400
C -9.193200 -12.674500 -18.811700
C -8.281700 -12.006500 -18.170700
H -8.270300 -12.026200 -17.198100
C -7.229700 -11.221600 -18.852400
O -7.146800 -11.144300 -20.058000
O -6.398300 -10.654000 -18.028900
H -5.735600 -10.138100 -18.488700
H -9.100400 -8.650700 -17.279400
H -8.657900 -8.712400 -15.826000
N -8.608800 -8.398100 -16.585400
C -7.599400 -7.585300 -16.848000
O -7.401400 -7.177200 -18.021500
H -6.968500 -7.445400 -15.076500
N -6.814100 -7.192000 -15.853100
H -6.122900 -6.591500 -16.026900
