20
Fragment
O -13.033400 -18.597000 -17.933800
N -12.779000 -19.738400 -17.600900
H -12.708700 -18.157200 -15.549700
O -12.662300 -16.955200 -13.651300
O -12.641600 -20.639400 -18.402900
C -12.622100 -20.057600 -16.184000
C -12.609300 -19.034600 -15.259200
H -12.504700 -16.329300 -13.145800
H -12.489600 -22.063900 -16.417300
C -12.482300 -21.376500 -15.791600
C -12.451300 -19.286000 -13.921800
C -12.440900 -18.021400 -13.067100
C -12.333500 -21.637800 -14.471500
C -12.294500 -20.624600 -13.490100
H -12.254000 -22.523600 -14.200100
O -12.185500 -18.067000 -11.827600
O -12.147500 -22.367400 -11.895700
C -12.139800 -21.147200 -12.072200
O -12.002000 -20.328800 -11.096600
H -11.882200 -22.535600 -11.138400
20
Fragment
O -9.410000 -24.542900 -13.137100
N -9.155600 -23.401600 -12.804200
H -9.085300 -24.982700 -10.753100
O -9.039000 -26.184700 -8.854600
O -9.018300 -22.500600 -13.606200
C -8.998800 -23.082300 -11.387300
C -8.986000 -24.105400 -10.462500
H -8.881400 -26.810600 -8.349200
H -8.866200 -21.076100 -11.620600
C -8.859000 -21.763500 -10.994900
C -8.828000 -23.853900 -9.125200
C -8.817500 -25.118500 -8.270400
C -8.710100 -21.502200 -9.674900
C -8.671100 -22.515400 -8.693500
H -8.630700 -20.616300 -9.403500
O -8.562200 -25.072900 -7.031000
O -8.524100 -20.772500 -7.099100
C -8.516400 -21.992700 -7.275600
O -8.378700 -22.811200 -6.299900
H -8.258800 -20.604400 -6.341800
40
Fragment
O -13.033400 -18.597000 -17.933800
N -12.779000 -19.738400 -17.600900
H -12.708700 -18.157200 -15.549700
O -12.662300 -16.955200 -13.651300
O -12.641600 -20.639400 -18.402900
C -12.622100 -20.057600 -16.184000
C -12.609300 -19.034600 -15.259200
H -12.504700 -16.329300 -13.145800
H -12.489600 -22.063900 -16.417300
C -12.482300 -21.376500 -15.791600
C -12.451300 -19.286000 -13.921800
C -12.440900 -18.021400 -13.067100
C -12.333500 -21.637800 -14.471500
C -12.294500 -20.624600 -13.490100
H -12.254000 -22.523600 -14.200100
O -12.185500 -18.067000 -11.827600
O -12.147500 -22.367400 -11.895700
C -12.139800 -21.147200 -12.072200
O -12.002000 -20.328800 -11.096600
H -11.882200 -22.535600 -11.138400
O -9.410000 -24.542900 -13.137100
N -9.155600 -23.401600 -12.804200
H -9.085300 -24.982700 -10.753100
O -9.039000 -26.184700 -8.854600
O -9.018300 -22.500600 -13.606200
C -8.998800 -23.082300 -11.387300
C -8.986000 -24.105400 -10.462500
H -8.881400 -26.810600 -8.349200
H -8.866200 -21.076100 -11.620600
C -8.859000 -21.763500 -10.994900
C -8.828000 -23.853900 -9.125200
C -8.817500 -25.118500 -8.270400
C -8.710100 -21.502200 -9.674900
C -8.671100 -22.515400 -8.693500
H -8.630700 -20.616300 -9.403500
O -8.562200 -25.072900 -7.031000
O -8.524100 -20.772500 -7.099100
C -8.516400 -21.992700 -7.275600
O -8.378700 -22.811200 -6.299900
H -8.258800 -20.604400 -6.341800
