20
Fragment
O -13.033400 -18.597000 -17.933800
N -12.779000 -19.738400 -17.600900
H -12.708700 -18.157200 -15.549700
O -12.662300 -16.955200 -13.651300
O -12.641600 -20.639400 -18.402900
C -12.622100 -20.057600 -16.184000
C -12.609300 -19.034600 -15.259200
H -12.504700 -16.329300 -13.145800
H -12.489600 -22.063900 -16.417300
C -12.482300 -21.376500 -15.791600
C -12.451300 -19.286000 -13.921800
C -12.440900 -18.021400 -13.067100
C -12.333500 -21.637800 -14.471500
C -12.294500 -20.624600 -13.490100
H -12.254000 -22.523600 -14.200100
O -12.185500 -18.067000 -11.827600
O -12.147500 -22.367400 -11.895700
C -12.139800 -21.147200 -12.072200
O -12.002000 -20.328800 -11.096600
H -11.882200 -22.535600 -11.138400
8
Fragment
N -12.398200 -14.900500 -12.006100
H -12.390400 -13.055100 -12.863000
C -12.328000 -13.538500 -12.070300
H -12.256600 -15.972900 -10.376300
N -12.255900 -15.185300 -10.720500
N -12.164200 -12.996200 -10.917200
C -12.113800 -14.069800 -10.066300
H -11.994700 -14.008700 -9.145800
28
Fragment
O -13.033400 -18.597000 -17.933800
N -12.779000 -19.738400 -17.600900
H -12.708700 -18.157200 -15.549700
O -12.662300 -16.955200 -13.651300
O -12.641600 -20.639400 -18.402900
C -12.622100 -20.057600 -16.184000
C -12.609300 -19.034600 -15.259200
H -12.504700 -16.329300 -13.145800
H -12.489600 -22.063900 -16.417300
C -12.482300 -21.376500 -15.791600
C -12.451300 -19.286000 -13.921800
C -12.440900 -18.021400 -13.067100
C -12.333500 -21.637800 -14.471500
C -12.294500 -20.624600 -13.490100
H -12.254000 -22.523600 -14.200100
O -12.185500 -18.067000 -11.827600
O -12.147500 -22.367400 -11.895700
C -12.139800 -21.147200 -12.072200
O -12.002000 -20.328800 -11.096600
H -11.882200 -22.535600 -11.138400
N -12.398200 -14.900500 -12.006100
H -12.390400 -13.055100 -12.863000
C -12.328000 -13.538500 -12.070300
H -12.256600 -15.972900 -10.376300
N -12.255900 -15.185300 -10.720500
N -12.164200 -12.996200 -10.917200
C -12.113800 -14.069800 -10.066300
H -11.994700 -14.008700 -9.145800
