20
Fragment
O -13.033400 -18.597000 -17.933800
N -12.779000 -19.738400 -17.600900
H -12.708700 -18.157200 -15.549700
O -12.662300 -16.955200 -13.651300
O -12.641600 -20.639400 -18.402900
C -12.622100 -20.057600 -16.184000
C -12.609300 -19.034600 -15.259200
H -12.504700 -16.329300 -13.145800
H -12.489600 -22.063900 -16.417300
C -12.482300 -21.376500 -15.791600
C -12.451300 -19.286000 -13.921800
C -12.440900 -18.021400 -13.067100
C -12.333500 -21.637800 -14.471500
C -12.294500 -20.624600 -13.490100
H -12.254000 -22.523600 -14.200100
O -12.185500 -18.067000 -11.827600
O -12.147500 -22.367400 -11.895700
C -12.139800 -21.147200 -12.072200
O -12.002000 -20.328800 -11.096600
H -11.882200 -22.535600 -11.138400
8
Fragment
N -16.021500 -15.913700 -16.802700
H -16.013800 -17.759100 -17.659700
C -15.951400 -17.275700 -16.867000
H -15.880000 -14.841400 -15.173000
N -15.879300 -15.629000 -15.517200
N -15.787500 -17.818000 -15.713900
C -15.737200 -16.744500 -14.862900
H -15.618100 -16.805600 -13.942500
28
Fragment
O -13.033400 -18.597000 -17.933800
N -12.779000 -19.738400 -17.600900
H -12.708700 -18.157200 -15.549700
O -12.662300 -16.955200 -13.651300
O -12.641600 -20.639400 -18.402900
C -12.622100 -20.057600 -16.184000
C -12.609300 -19.034600 -15.259200
H -12.504700 -16.329300 -13.145800
H -12.489600 -22.063900 -16.417300
C -12.482300 -21.376500 -15.791600
C -12.451300 -19.286000 -13.921800
C -12.440900 -18.021400 -13.067100
C -12.333500 -21.637800 -14.471500
C -12.294500 -20.624600 -13.490100
H -12.254000 -22.523600 -14.200100
O -12.185500 -18.067000 -11.827600
O -12.147500 -22.367400 -11.895700
C -12.139800 -21.147200 -12.072200
O -12.002000 -20.328800 -11.096600
H -11.882200 -22.535600 -11.138400
N -16.021500 -15.913700 -16.802700
H -16.013800 -17.759100 -17.659700
C -15.951400 -17.275700 -16.867000
H -15.880000 -14.841400 -15.173000
N -15.879300 -15.629000 -15.517200
N -15.787500 -17.818000 -15.713900
C -15.737200 -16.744500 -14.862900
H -15.618100 -16.805600 -13.942500
