20
Fragment
O -13.033400 -18.597000 -17.933800
N -12.779000 -19.738400 -17.600900
H -12.708700 -18.157200 -15.549700
O -12.662300 -16.955200 -13.651300
O -12.641600 -20.639400 -18.402900
C -12.622100 -20.057600 -16.184000
C -12.609300 -19.034600 -15.259200
H -12.504700 -16.329300 -13.145800
H -12.489600 -22.063900 -16.417300
C -12.482300 -21.376500 -15.791600
C -12.451300 -19.286000 -13.921800
C -12.440900 -18.021400 -13.067100
C -12.333500 -21.637800 -14.471500
C -12.294500 -20.624600 -13.490100
H -12.254000 -22.523600 -14.200100
O -12.185500 -18.067000 -11.827600
O -12.147500 -22.367400 -11.895700
C -12.139800 -21.147200 -12.072200
O -12.002000 -20.328800 -11.096600
H -11.882200 -22.535600 -11.138400
20
Fragment
O -16.656700 -24.542900 -22.730400
N -16.402400 -23.401600 -22.397600
H -16.332100 -24.982700 -20.346400
O -16.285700 -26.184700 -18.448000
O -16.265000 -22.500600 -23.199600
C -16.245500 -23.082300 -20.980600
C -16.232700 -24.105400 -20.055800
H -16.128100 -26.810600 -17.942500
H -16.112900 -21.076100 -21.213900
C -16.105700 -21.763500 -20.588200
C -16.074700 -23.853900 -18.718500
C -16.064200 -25.118500 -17.863700
C -15.956800 -21.502200 -19.268200
C -15.917800 -22.515400 -18.286800
H -15.877400 -20.616300 -18.996800
O -15.808900 -25.072900 -16.624300
O -15.770900 -20.772500 -16.692400
C -15.763100 -21.992700 -16.868900
O -15.625400 -22.811200 -15.893300
H -15.505500 -20.604400 -15.935100
40
Fragment
O -13.033400 -18.597000 -17.933800
N -12.779000 -19.738400 -17.600900
H -12.708700 -18.157200 -15.549700
O -12.662300 -16.955200 -13.651300
O -12.641600 -20.639400 -18.402900
C -12.622100 -20.057600 -16.184000
C -12.609300 -19.034600 -15.259200
H -12.504700 -16.329300 -13.145800
H -12.489600 -22.063900 -16.417300
C -12.482300 -21.376500 -15.791600
C -12.451300 -19.286000 -13.921800
C -12.440900 -18.021400 -13.067100
C -12.333500 -21.637800 -14.471500
C -12.294500 -20.624600 -13.490100
H -12.254000 -22.523600 -14.200100
O -12.185500 -18.067000 -11.827600
O -12.147500 -22.367400 -11.895700
C -12.139800 -21.147200 -12.072200
O -12.002000 -20.328800 -11.096600
H -11.882200 -22.535600 -11.138400
O -16.656700 -24.542900 -22.730400
N -16.402400 -23.401600 -22.397600
H -16.332100 -24.982700 -20.346400
O -16.285700 -26.184700 -18.448000
O -16.265000 -22.500600 -23.199600
C -16.245500 -23.082300 -20.980600
C -16.232700 -24.105400 -20.055800
H -16.128100 -26.810600 -17.942500
H -16.112900 -21.076100 -21.213900
C -16.105700 -21.763500 -20.588200
C -16.074700 -23.853900 -18.718500
C -16.064200 -25.118500 -17.863700
C -15.956800 -21.502200 -19.268200
C -15.917800 -22.515400 -18.286800
H -15.877400 -20.616300 -18.996800
O -15.808900 -25.072900 -16.624300
O -15.770900 -20.772500 -16.692400
C -15.763100 -21.992700 -16.868900
O -15.625400 -22.811200 -15.893300
H -15.505500 -20.604400 -15.935100
