20
Fragment
O -13.033400 -18.597000 -17.933800
N -12.779000 -19.738400 -17.600900
H -12.708700 -18.157200 -15.549700
O -12.662300 -16.955200 -13.651300
O -12.641600 -20.639400 -18.402900
C -12.622100 -20.057600 -16.184000
C -12.609300 -19.034600 -15.259200
H -12.504700 -16.329300 -13.145800
H -12.489600 -22.063900 -16.417300
C -12.482300 -21.376500 -15.791600
C -12.451300 -19.286000 -13.921800
C -12.440900 -18.021400 -13.067100
C -12.333500 -21.637800 -14.471500
C -12.294500 -20.624600 -13.490100
H -12.254000 -22.523600 -14.200100
O -12.185500 -18.067000 -11.827600
O -12.147500 -22.367400 -11.895700
C -12.139800 -21.147200 -12.072200
O -12.002000 -20.328800 -11.096600
H -11.882200 -22.535600 -11.138400
20
Fragment
H -9.858000 -14.441500 -17.641600
O -9.738100 -16.648300 -17.683400
C -9.600400 -15.829900 -16.707700
O -9.592700 -14.609700 -16.884300
O -9.554600 -18.910100 -16.952400
H -9.486100 -14.453500 -14.579800
C -9.445700 -16.352500 -15.289900
C -9.406700 -15.339300 -14.308500
C -9.299300 -18.955700 -15.712900
C -9.288800 -17.691100 -14.858200
C -9.257800 -15.600600 -12.988400
H -9.250600 -14.913200 -12.362700
H -9.235400 -20.647800 -15.634200
C -9.130800 -17.942500 -13.520800
C -9.118000 -16.919500 -12.596000
O -9.098500 -16.337700 -10.377100
O -9.077800 -20.021900 -15.128700
H -9.031400 -18.819900 -13.230300
N -8.961200 -17.238700 -11.179100
O -8.706800 -18.380100 -10.846200
40
Fragment
O -13.033400 -18.597000 -17.933800
N -12.779000 -19.738400 -17.600900
H -12.708700 -18.157200 -15.549700
O -12.662300 -16.955200 -13.651300
O -12.641600 -20.639400 -18.402900
C -12.622100 -20.057600 -16.184000
C -12.609300 -19.034600 -15.259200
H -12.504700 -16.329300 -13.145800
H -12.489600 -22.063900 -16.417300
C -12.482300 -21.376500 -15.791600
C -12.451300 -19.286000 -13.921800
C -12.440900 -18.021400 -13.067100
C -12.333500 -21.637800 -14.471500
C -12.294500 -20.624600 -13.490100
H -12.254000 -22.523600 -14.200100
O -12.185500 -18.067000 -11.827600
O -12.147500 -22.367400 -11.895700
C -12.139800 -21.147200 -12.072200
O -12.002000 -20.328800 -11.096600
H -11.882200 -22.535600 -11.138400
H -9.858000 -14.441500 -17.641600
O -9.738100 -16.648300 -17.683400
C -9.600400 -15.829900 -16.707700
O -9.592700 -14.609700 -16.884300
O -9.554600 -18.910100 -16.952400
H -9.486100 -14.453500 -14.579800
C -9.445700 -16.352500 -15.289900
C -9.406700 -15.339300 -14.308500
C -9.299300 -18.955700 -15.712900
C -9.288800 -17.691100 -14.858200
C -9.257800 -15.600600 -12.988400
H -9.250600 -14.913200 -12.362700
H -9.235400 -20.647800 -15.634200
C -9.130800 -17.942500 -13.520800
C -9.118000 -16.919500 -12.596000
O -9.098500 -16.337700 -10.377100
O -9.077800 -20.021900 -15.128700
H -9.031400 -18.819900 -13.230300
N -8.961200 -17.238700 -11.179100
O -8.706800 -18.380100 -10.846200
