16
Fragment
O -17.532000 -21.364900 -51.582200
H -16.635500 -22.402300 -49.586100
N -16.362800 -21.196300 -51.884700
O -16.315200 -23.614600 -47.519200
O -16.005500 -20.613900 -52.897700
C -15.736800 -22.320600 -49.812700
C -15.333400 -21.722300 -50.984700
N -15.123100 -23.497600 -47.757200
C -14.734800 -22.791700 -48.993100
O -14.230900 -23.946500 -47.062600
C -14.013200 -21.582300 -51.349200
H -13.780200 -21.187000 -52.158100
C -13.401400 -22.654300 -49.296700
C -13.049100 -22.044100 -50.483100
H -12.748900 -22.967600 -48.712000
H -12.150400 -21.943400 -50.699000
36
Fragment
O -22.159900 -19.831000 -54.046200
O -22.049100 -17.229800 -56.169900
H -21.421800 -19.366000 -56.145400
N -21.026300 -20.136800 -53.773200
N -20.888900 -16.956200 -56.348100
O -20.631100 -20.565600 -52.710400
C -20.450800 -19.354300 -56.013300
O -20.428700 -15.908800 -56.716900
H -20.353600 -20.399700 -57.860000
N -20.087500 -20.031600 -54.797600
N -19.937000 -17.970500 -55.980300
C -19.712300 -20.053900 -57.204800
O -19.395200 -22.431400 -58.399300
N -18.960500 -18.908800 -57.755100
N -18.894000 -21.111200 -56.677300
O -18.797600 -18.265100 -52.455300
C -18.688100 -20.099300 -54.467100
C -18.676100 -17.941800 -56.699500
N -18.622300 -22.228200 -57.498900
H -18.541900 -20.601500 -53.637300
H -18.491700 -17.052400 -57.066600
N -18.237600 -17.888400 -53.460200
O -18.129900 -20.096700 -59.423400
N -18.021500 -18.803400 -54.425400
N -17.992800 -19.117200 -58.709300
C -17.930100 -20.758100 -55.673700
O -17.807000 -16.771100 -53.678700
O -17.668300 -22.904900 -57.180600
C -17.516300 -18.424200 -55.734200
H -17.429100 -21.547700 -55.378900
O -17.096100 -18.302400 -58.772100
N -17.013000 -19.717000 -56.189800
H -16.799400 -17.759000 -55.668000
N -15.619700 -19.955100 -55.888500
O -15.274700 -21.104200 -55.878100
O -14.928900 -18.985100 -55.765800
52
Fragment
O -17.532000 -21.364900 -51.582200
H -16.635500 -22.402300 -49.586100
N -16.362800 -21.196300 -51.884700
O -16.315200 -23.614600 -47.519200
O -16.005500 -20.613900 -52.897700
C -15.736800 -22.320600 -49.812700
C -15.333400 -21.722300 -50.984700
N -15.123100 -23.497600 -47.757200
C -14.734800 -22.791700 -48.993100
O -14.230900 -23.946500 -47.062600
C -14.013200 -21.582300 -51.349200
H -13.780200 -21.187000 -52.158100
C -13.401400 -22.654300 -49.296700
C -13.049100 -22.044100 -50.483100
H -12.748900 -22.967600 -48.712000
H -12.150400 -21.943400 -50.699000
O -22.159900 -19.831000 -54.046200
O -22.049100 -17.229800 -56.169900
H -21.421800 -19.366000 -56.145400
N -21.026300 -20.136800 -53.773200
N -20.888900 -16.956200 -56.348100
O -20.631100 -20.565600 -52.710400
C -20.450800 -19.354300 -56.013300
O -20.428700 -15.908800 -56.716900
H -20.353600 -20.399700 -57.860000
N -20.087500 -20.031600 -54.797600
N -19.937000 -17.970500 -55.980300
C -19.712300 -20.053900 -57.204800
O -19.395200 -22.431400 -58.399300
N -18.960500 -18.908800 -57.755100
N -18.894000 -21.111200 -56.677300
O -18.797600 -18.265100 -52.455300
C -18.688100 -20.099300 -54.467100
C -18.676100 -17.941800 -56.699500
N -18.622300 -22.228200 -57.498900
H -18.541900 -20.601500 -53.637300
H -18.491700 -17.052400 -57.066600
N -18.237600 -17.888400 -53.460200
O -18.129900 -20.096700 -59.423400
N -18.021500 -18.803400 -54.425400
N -17.992800 -19.117200 -58.709300
C -17.930100 -20.758100 -55.673700
O -17.807000 -16.771100 -53.678700
O -17.668300 -22.904900 -57.180600
C -17.516300 -18.424200 -55.734200
H -17.429100 -21.547700 -55.378900
O -17.096100 -18.302400 -58.772100
N -17.013000 -19.717000 -56.189800
H -16.799400 -17.759000 -55.668000
N -15.619700 -19.955100 -55.888500
O -15.274700 -21.104200 -55.878100
O -14.928900 -18.985100 -55.765800
