16
Fragment
O -17.532000 -21.364900 -51.582200
H -16.635500 -22.402300 -49.586100
N -16.362800 -21.196300 -51.884700
O -16.315200 -23.614600 -47.519200
O -16.005500 -20.613900 -52.897700
C -15.736800 -22.320600 -49.812700
C -15.333400 -21.722300 -50.984700
N -15.123100 -23.497600 -47.757200
C -14.734800 -22.791700 -48.993100
O -14.230900 -23.946500 -47.062600
C -14.013200 -21.582300 -51.349200
H -13.780200 -21.187000 -52.158100
C -13.401400 -22.654300 -49.296700
C -13.049100 -22.044100 -50.483100
H -12.748900 -22.967600 -48.712000
H -12.150400 -21.943400 -50.699000
36
Fragment
O -22.952300 -21.391600 -45.094200
O -22.606500 -19.272500 -44.981900
N -22.261500 -20.421600 -44.971500
H -21.081800 -22.617700 -45.192000
N -20.868200 -20.659700 -44.670200
O -20.785100 -22.074300 -42.087900
H -20.452100 -18.829000 -45.481100
C -20.364900 -21.952500 -45.125800
O -20.212900 -17.471800 -43.679400
O -20.074200 -23.605600 -47.181300
C -19.951100 -19.618600 -45.186300
N -19.888400 -21.259500 -42.150700
N -19.859700 -21.573300 -46.434600
O -19.751300 -20.280000 -41.436700
N -19.643600 -22.488300 -47.399800
H -19.389500 -23.324300 -43.793400
H -19.339300 -19.775200 -47.222700
N -19.258900 -18.148500 -43.361100
C -19.205100 -22.434900 -44.160500
C -19.193100 -20.277400 -46.392900
O -19.083600 -22.111600 -48.404700
N -18.987200 -19.265500 -44.182700
N -18.920700 -21.467900 -43.104900
O -18.486000 -17.945300 -42.460700
C -18.168900 -20.322800 -43.655200
N -17.944200 -22.406200 -44.879700
N -17.793700 -20.345100 -46.062400
H -17.527600 -19.977000 -43.000000
O -17.452500 -24.467900 -44.143100
C -17.430400 -21.022400 -44.846700
O -17.250100 -19.811100 -48.149600
N -16.992300 -23.420500 -44.511900
N -16.854900 -20.239900 -47.086800
H -16.459400 -21.010700 -44.714600
O -15.832100 -23.146900 -44.690100
O -15.721300 -20.545700 -46.813800
52
Fragment
O -17.532000 -21.364900 -51.582200
H -16.635500 -22.402300 -49.586100
N -16.362800 -21.196300 -51.884700
O -16.315200 -23.614600 -47.519200
O -16.005500 -20.613900 -52.897700
C -15.736800 -22.320600 -49.812700
C -15.333400 -21.722300 -50.984700
N -15.123100 -23.497600 -47.757200
C -14.734800 -22.791700 -48.993100
O -14.230900 -23.946500 -47.062600
C -14.013200 -21.582300 -51.349200
H -13.780200 -21.187000 -52.158100
C -13.401400 -22.654300 -49.296700
C -13.049100 -22.044100 -50.483100
H -12.748900 -22.967600 -48.712000
H -12.150400 -21.943400 -50.699000
O -22.952300 -21.391600 -45.094200
O -22.606500 -19.272500 -44.981900
N -22.261500 -20.421600 -44.971500
H -21.081800 -22.617700 -45.192000
N -20.868200 -20.659700 -44.670200
O -20.785100 -22.074300 -42.087900
H -20.452100 -18.829000 -45.481100
C -20.364900 -21.952500 -45.125800
O -20.212900 -17.471800 -43.679400
O -20.074200 -23.605600 -47.181300
C -19.951100 -19.618600 -45.186300
N -19.888400 -21.259500 -42.150700
N -19.859700 -21.573300 -46.434600
O -19.751300 -20.280000 -41.436700
N -19.643600 -22.488300 -47.399800
H -19.389500 -23.324300 -43.793400
H -19.339300 -19.775200 -47.222700
N -19.258900 -18.148500 -43.361100
C -19.205100 -22.434900 -44.160500
C -19.193100 -20.277400 -46.392900
O -19.083600 -22.111600 -48.404700
N -18.987200 -19.265500 -44.182700
N -18.920700 -21.467900 -43.104900
O -18.486000 -17.945300 -42.460700
C -18.168900 -20.322800 -43.655200
N -17.944200 -22.406200 -44.879700
N -17.793700 -20.345100 -46.062400
H -17.527600 -19.977000 -43.000000
O -17.452500 -24.467900 -44.143100
C -17.430400 -21.022400 -44.846700
O -17.250100 -19.811100 -48.149600
N -16.992300 -23.420500 -44.511900
N -16.854900 -20.239900 -47.086800
H -16.459400 -21.010700 -44.714600
O -15.832100 -23.146900 -44.690100
O -15.721300 -20.545700 -46.813800
