48
Fragment
H -18.175600 -15.681000 -27.769500
H -17.314400 -17.815900 -26.521300
C -17.264200 -15.928400 -27.529700
C -16.808400 -17.075300 -26.869100
N -16.257800 -15.099900 -27.837500
C -15.443700 -16.922900 -26.785400
H -15.247200 -13.827800 -35.497700
N -15.153500 -15.729300 -27.357900
H -14.966000 -17.980600 -31.527800
H -14.916600 -16.023100 -36.870700
H -14.749100 -16.972200 -29.485000
H -14.746000 -17.462300 -26.405600
C -14.661900 -14.596900 -35.302100
C -14.465300 -15.762800 -36.050300
O -14.328800 -17.551000 -32.000000
C -14.061400 -16.433000 -29.867100
H -13.964700 -14.202200 -27.612700
N -13.935100 -14.581400 -34.181200
C -13.847000 -15.149200 -27.682300
C -13.730000 -16.613400 -31.211900
C -13.565200 -16.494100 -35.321900
C -13.413800 -15.469600 -29.101000
N -13.270400 -15.768600 -34.216000
H -13.174000 -17.358000 -35.444400
H -12.974500 -13.929000 -25.443600
N -12.878100 -15.518400 -26.672000
C -12.734700 -15.817400 -31.787000
C -12.583300 -14.792900 -25.566100
C -12.418600 -14.673600 -29.676000
C -12.301500 -16.137800 -33.205700
N -12.213500 -16.705600 -26.706800
H -12.183800 -17.084800 -33.275300
C -12.087100 -14.854000 -31.020900
O -11.819700 -13.736000 -28.888000
C -11.683200 -15.524200 -24.837700
C -11.486600 -16.690100 -25.585900
H -11.402500 -13.824700 -34.482400
H -11.399400 -14.314800 -31.403000
H -11.231900 -15.263900 -24.017300
H -11.182500 -13.306400 -29.360200
N -10.995100 -15.557700 -33.530100
H -10.901300 -17.459200 -25.390300
C -10.704900 -14.364100 -34.102600
N -9.890800 -16.187100 -33.050500
C -9.340100 -14.211700 -34.018900
C -8.884300 -15.358600 -33.358300
H -8.834100 -13.471100 -34.366700
H -7.972900 -15.606000 -33.118500
12
Fragment
O -18.676600 -13.586400 -37.899900
H -17.635600 -14.906200 -39.600000
C -17.538800 -13.099800 -37.905400
H -17.326300 -12.354200 -37.350200
C -16.690500 -14.651000 -39.560900
N -16.527300 -13.539800 -38.641500
H -16.386200 -14.383700 -40.454000
H -16.159600 -15.413000 -39.249900
H -15.237400 -12.164400 -37.957600
C -15.221600 -12.900900 -38.602700
H -15.002700 -12.551300 -39.492000
H -14.545100 -13.556700 -38.333600
60
Fragment
H -18.175600 -15.681000 -27.769500
H -17.314400 -17.815900 -26.521300
C -17.264200 -15.928400 -27.529700
C -16.808400 -17.075300 -26.869100
N -16.257800 -15.099900 -27.837500
C -15.443700 -16.922900 -26.785400
H -15.247200 -13.827800 -35.497700
N -15.153500 -15.729300 -27.357900
H -14.966000 -17.980600 -31.527800
H -14.916600 -16.023100 -36.870700
H -14.749100 -16.972200 -29.485000
H -14.746000 -17.462300 -26.405600
C -14.661900 -14.596900 -35.302100
C -14.465300 -15.762800 -36.050300
O -14.328800 -17.551000 -32.000000
C -14.061400 -16.433000 -29.867100
H -13.964700 -14.202200 -27.612700
N -13.935100 -14.581400 -34.181200
C -13.847000 -15.149200 -27.682300
C -13.730000 -16.613400 -31.211900
C -13.565200 -16.494100 -35.321900
C -13.413800 -15.469600 -29.101000
N -13.270400 -15.768600 -34.216000
H -13.174000 -17.358000 -35.444400
H -12.974500 -13.929000 -25.443600
N -12.878100 -15.518400 -26.672000
C -12.734700 -15.817400 -31.787000
C -12.583300 -14.792900 -25.566100
C -12.418600 -14.673600 -29.676000
C -12.301500 -16.137800 -33.205700
N -12.213500 -16.705600 -26.706800
H -12.183800 -17.084800 -33.275300
C -12.087100 -14.854000 -31.020900
O -11.819700 -13.736000 -28.888000
C -11.683200 -15.524200 -24.837700
C -11.486600 -16.690100 -25.585900
H -11.402500 -13.824700 -34.482400
H -11.399400 -14.314800 -31.403000
H -11.231900 -15.263900 -24.017300
H -11.182500 -13.306400 -29.360200
N -10.995100 -15.557700 -33.530100
H -10.901300 -17.459200 -25.390300
C -10.704900 -14.364100 -34.102600
N -9.890800 -16.187100 -33.050500
C -9.340100 -14.211700 -34.018900
C -8.884300 -15.358600 -33.358300
H -8.834100 -13.471100 -34.366700
H -7.972900 -15.606000 -33.118500
O -18.676600 -13.586400 -37.899900
H -17.635600 -14.906200 -39.600000
C -17.538800 -13.099800 -37.905400
H -17.326300 -12.354200 -37.350200
C -16.690500 -14.651000 -39.560900
N -16.527300 -13.539800 -38.641500
H -16.386200 -14.383700 -40.454000
H -16.159600 -15.413000 -39.249900
H -15.237400 -12.164400 -37.957600
C -15.221600 -12.900900 -38.602700
H -15.002700 -12.551300 -39.492000
H -14.545100 -13.556700 -38.333600
