48
Fragment
H -18.175600 -15.681000 -27.769500
H -17.314400 -17.815900 -26.521300
C -17.264200 -15.928400 -27.529700
C -16.808400 -17.075300 -26.869100
N -16.257800 -15.099900 -27.837500
C -15.443700 -16.922900 -26.785400
H -15.247200 -13.827800 -35.497700
N -15.153500 -15.729300 -27.357900
H -14.966000 -17.980600 -31.527800
H -14.916600 -16.023100 -36.870700
H -14.749100 -16.972200 -29.485000
H -14.746000 -17.462300 -26.405600
C -14.661900 -14.596900 -35.302100
C -14.465300 -15.762800 -36.050300
O -14.328800 -17.551000 -32.000000
C -14.061400 -16.433000 -29.867100
H -13.964700 -14.202200 -27.612700
N -13.935100 -14.581400 -34.181200
C -13.847000 -15.149200 -27.682300
C -13.730000 -16.613400 -31.211900
C -13.565200 -16.494100 -35.321900
C -13.413800 -15.469600 -29.101000
N -13.270400 -15.768600 -34.216000
H -13.174000 -17.358000 -35.444400
H -12.974500 -13.929000 -25.443600
N -12.878100 -15.518400 -26.672000
C -12.734700 -15.817400 -31.787000
C -12.583300 -14.792900 -25.566100
C -12.418600 -14.673600 -29.676000
C -12.301500 -16.137800 -33.205700
N -12.213500 -16.705600 -26.706800
H -12.183800 -17.084800 -33.275300
C -12.087100 -14.854000 -31.020900
O -11.819700 -13.736000 -28.888000
C -11.683200 -15.524200 -24.837700
C -11.486600 -16.690100 -25.585900
H -11.402500 -13.824700 -34.482400
H -11.399400 -14.314800 -31.403000
H -11.231900 -15.263900 -24.017300
H -11.182500 -13.306400 -29.360200
N -10.995100 -15.557700 -33.530100
H -10.901300 -17.459200 -25.390300
C -10.704900 -14.364100 -34.102600
N -9.890800 -16.187100 -33.050500
C -9.340100 -14.211700 -34.018900
C -8.884300 -15.358600 -33.358300
H -8.834100 -13.471100 -34.366700
H -7.972900 -15.606000 -33.118500
48
Fragment
H -18.174800 -10.391500 -35.380500
H -17.313600 -8.256600 -34.132300
C -17.263400 -10.144100 -35.140700
C -16.807600 -8.997200 -34.480100
N -16.257000 -10.972600 -35.448500
C -15.442900 -9.149600 -34.396400
H -15.246400 -12.244700 -43.108700
N -15.152700 -10.343200 -34.968900
H -14.965200 -8.091900 -39.138800
H -14.915800 -10.049400 -44.481700
H -14.748400 -9.100300 -37.096000
H -14.745200 -8.610200 -34.016600
C -14.661100 -11.475600 -42.913100
C -14.464500 -10.309700 -43.661300
O -14.328000 -8.521500 -39.611000
C -14.060600 -9.639500 -37.478100
H -13.963900 -11.870300 -35.223700
N -13.934300 -11.491100 -41.792200
C -13.846200 -10.923300 -35.293300
C -13.729200 -9.459100 -38.822900
C -13.564400 -9.578400 -42.932900
C -13.413000 -10.602900 -36.712000
N -13.269600 -10.303900 -41.827000
H -13.173200 -8.714500 -43.055400
H -12.973700 -12.143500 -33.054600
N -12.877300 -10.554100 -34.283000
C -12.733900 -10.255100 -39.398000
C -12.582500 -11.279600 -33.177100
C -12.417800 -11.398900 -37.287000
C -12.300700 -9.934700 -40.816700
N -12.212700 -9.366900 -34.317800
H -12.183000 -8.987700 -40.886300
C -12.086300 -11.218500 -38.631900
O -11.818900 -12.336500 -36.499000
C -11.682400 -10.548300 -32.448700
C -11.485800 -9.382400 -33.196900
H -11.401700 -12.247800 -42.093400
H -11.398600 -11.757700 -39.014000
H -11.231100 -10.808600 -31.628300
H -11.181700 -12.766100 -36.971200
N -10.994300 -10.514800 -41.141100
H -10.900500 -8.613300 -33.001300
C -10.704100 -11.708400 -41.713600
N -9.890000 -9.885400 -40.661500
C -9.339300 -11.860800 -41.629900
C -8.883500 -10.713900 -40.969300
H -8.833300 -12.601400 -41.977700
H -7.972100 -10.466500 -40.729500
96
Fragment
H -18.175600 -15.681000 -27.769500
H -17.314400 -17.815900 -26.521300
C -17.264200 -15.928400 -27.529700
C -16.808400 -17.075300 -26.869100
N -16.257800 -15.099900 -27.837500
C -15.443700 -16.922900 -26.785400
H -15.247200 -13.827800 -35.497700
N -15.153500 -15.729300 -27.357900
H -14.966000 -17.980600 -31.527800
H -14.916600 -16.023100 -36.870700
H -14.749100 -16.972200 -29.485000
H -14.746000 -17.462300 -26.405600
C -14.661900 -14.596900 -35.302100
C -14.465300 -15.762800 -36.050300
O -14.328800 -17.551000 -32.000000
C -14.061400 -16.433000 -29.867100
H -13.964700 -14.202200 -27.612700
N -13.935100 -14.581400 -34.181200
C -13.847000 -15.149200 -27.682300
C -13.730000 -16.613400 -31.211900
C -13.565200 -16.494100 -35.321900
C -13.413800 -15.469600 -29.101000
N -13.270400 -15.768600 -34.216000
H -13.174000 -17.358000 -35.444400
H -12.974500 -13.929000 -25.443600
N -12.878100 -15.518400 -26.672000
C -12.734700 -15.817400 -31.787000
C -12.583300 -14.792900 -25.566100
C -12.418600 -14.673600 -29.676000
C -12.301500 -16.137800 -33.205700
N -12.213500 -16.705600 -26.706800
H -12.183800 -17.084800 -33.275300
C -12.087100 -14.854000 -31.020900
O -11.819700 -13.736000 -28.888000
C -11.683200 -15.524200 -24.837700
C -11.486600 -16.690100 -25.585900
H -11.402500 -13.824700 -34.482400
H -11.399400 -14.314800 -31.403000
H -11.231900 -15.263900 -24.017300
H -11.182500 -13.306400 -29.360200
N -10.995100 -15.557700 -33.530100
H -10.901300 -17.459200 -25.390300
C -10.704900 -14.364100 -34.102600
N -9.890800 -16.187100 -33.050500
C -9.340100 -14.211700 -34.018900
C -8.884300 -15.358600 -33.358300
H -8.834100 -13.471100 -34.366700
H -7.972900 -15.606000 -33.118500
H -18.174800 -10.391500 -35.380500
H -17.313600 -8.256600 -34.132300
C -17.263400 -10.144100 -35.140700
C -16.807600 -8.997200 -34.480100
N -16.257000 -10.972600 -35.448500
C -15.442900 -9.149600 -34.396400
H -15.246400 -12.244700 -43.108700
N -15.152700 -10.343200 -34.968900
H -14.965200 -8.091900 -39.138800
H -14.915800 -10.049400 -44.481700
H -14.748400 -9.100300 -37.096000
H -14.745200 -8.610200 -34.016600
C -14.661100 -11.475600 -42.913100
C -14.464500 -10.309700 -43.661300
O -14.328000 -8.521500 -39.611000
C -14.060600 -9.639500 -37.478100
H -13.963900 -11.870300 -35.223700
N -13.934300 -11.491100 -41.792200
C -13.846200 -10.923300 -35.293300
C -13.729200 -9.459100 -38.822900
C -13.564400 -9.578400 -42.932900
C -13.413000 -10.602900 -36.712000
N -13.269600 -10.303900 -41.827000
H -13.173200 -8.714500 -43.055400
H -12.973700 -12.143500 -33.054600
N -12.877300 -10.554100 -34.283000
C -12.733900 -10.255100 -39.398000
C -12.582500 -11.279600 -33.177100
C -12.417800 -11.398900 -37.287000
C -12.300700 -9.934700 -40.816700
N -12.212700 -9.366900 -34.317800
H -12.183000 -8.987700 -40.886300
C -12.086300 -11.218500 -38.631900
O -11.818900 -12.336500 -36.499000
C -11.682400 -10.548300 -32.448700
C -11.485800 -9.382400 -33.196900
H -11.401700 -12.247800 -42.093400
H -11.398600 -11.757700 -39.014000
H -11.231100 -10.808600 -31.628300
H -11.181700 -12.766100 -36.971200
N -10.994300 -10.514800 -41.141100
H -10.900500 -8.613300 -33.001300
C -10.704100 -11.708400 -41.713600
N -9.890000 -9.885400 -40.661500
C -9.339300 -11.860800 -41.629900
C -8.883500 -10.713900 -40.969300
H -8.833300 -12.601400 -41.977700
H -7.972100 -10.466500 -40.729500
