10
Fragment
H -19.740100 -8.668200 -32.450400
H -19.615700 -6.445400 -31.523000
C -19.036800 -8.130400 -32.459000
C -19.001200 -6.838400 -31.908300
C -17.824400 -8.357900 -32.986400
C -17.771300 -6.338100 -32.120000
H -17.476200 -9.084600 -33.438100
H -17.351600 -5.524600 -31.852200
N -17.064200 -7.263000 -32.780500
H -16.250000 -7.202000 -32.923400
10
Fragment
H -14.837400 -4.128800 -33.224800
H -14.778800 -5.290000 -35.130600
N -14.488100 -5.659500 -34.446400
C -14.480500 -4.990900 -33.277200
C -13.992700 -5.803200 -32.339100
C -13.986300 -6.895200 -34.241500
H -13.866600 -7.460000 -34.889500
H -13.829600 -5.606700 -31.555400
C -13.673800 -7.006700 -32.944500
H -13.223500 -7.759100 -32.612700
20
Fragment
H -19.740100 -8.668200 -32.450400
H -19.615700 -6.445400 -31.523000
C -19.036800 -8.130400 -32.459000
C -19.001200 -6.838400 -31.908300
C -17.824400 -8.357900 -32.986400
C -17.771300 -6.338100 -32.120000
H -17.476200 -9.084600 -33.438100
H -17.351600 -5.524600 -31.852200
N -17.064200 -7.263000 -32.780500
H -16.250000 -7.202000 -32.923400
H -14.837400 -4.128800 -33.224800
H -14.778800 -5.290000 -35.130600
N -14.488100 -5.659500 -34.446400
C -14.480500 -4.990900 -33.277200
C -13.992700 -5.803200 -32.339100
C -13.986300 -6.895200 -34.241500
H -13.866600 -7.460000 -34.889500
H -13.829600 -5.606700 -31.555400
C -13.673800 -7.006700 -32.944500
H -13.223500 -7.759100 -32.612700
