21
Fragment
O -18.944000 -15.687800 -17.169500
H -18.749000 -13.839100 -18.620400
O -18.660000 -17.856300 -17.612900
N -18.498500 -16.633000 -17.880600
H -17.954800 -13.155300 -19.753100
C -17.882700 -13.745900 -19.011000
C -17.752100 -16.330300 -19.047800
N -17.485800 -15.057500 -19.553200
H -17.224200 -12.404400 -17.641700
C -17.140600 -17.257200 -19.868000
H -17.131600 -18.202100 -19.815100
C -16.870400 -13.212700 -17.996600
H -16.783100 -13.453400 -21.655500
H -16.756500 -13.820600 -17.275200
C -16.721800 -15.223300 -20.658300
N -16.516300 -16.549300 -20.847900
C -16.178700 -14.181500 -21.552100
H -16.017500 -14.568800 -22.404500
H -15.620200 -12.309000 -19.119000
O -15.583700 -13.025900 -18.566400
H -15.369200 -13.841100 -21.198200
21
Fragment
H -14.572500 -13.806400 -24.752500
O -14.357900 -14.621600 -27.384400
H -14.321500 -15.338500 -26.831800
H -13.924100 -13.078700 -23.546300
C -13.763000 -13.466000 -24.398700
N -13.425400 -11.098200 -25.102900
C -13.219900 -12.424200 -25.292500
H -13.185200 -13.826900 -28.675600
H -13.158600 -14.194100 -24.295300
C -13.071200 -14.434800 -27.954200
H -12.810000 -9.445400 -26.135700
C -12.801100 -10.390300 -26.082800
H -12.717500 -15.243100 -28.309100
N -12.455800 -12.590000 -26.397600
C -12.189600 -11.317200 -26.903000
C -12.059000 -13.901600 -26.939800
H -11.986800 -14.492200 -26.197700
N -11.443200 -11.014500 -28.070200
O -11.281700 -9.791300 -28.337900
H -11.192700 -13.808400 -27.330400
O -10.997700 -11.959700 -28.781300
42
Fragment
O -18.944000 -15.687800 -17.169500
H -18.749000 -13.839100 -18.620400
O -18.660000 -17.856300 -17.612900
N -18.498500 -16.633000 -17.880600
H -17.954800 -13.155300 -19.753100
C -17.882700 -13.745900 -19.011000
C -17.752100 -16.330300 -19.047800
N -17.485800 -15.057500 -19.553200
H -17.224200 -12.404400 -17.641700
C -17.140600 -17.257200 -19.868000
H -17.131600 -18.202100 -19.815100
C -16.870400 -13.212700 -17.996600
H -16.783100 -13.453400 -21.655500
H -16.756500 -13.820600 -17.275200
C -16.721800 -15.223300 -20.658300
N -16.516300 -16.549300 -20.847900
C -16.178700 -14.181500 -21.552100
H -16.017500 -14.568800 -22.404500
H -15.620200 -12.309000 -19.119000
O -15.583700 -13.025900 -18.566400
H -15.369200 -13.841100 -21.198200
H -14.572500 -13.806400 -24.752500
O -14.357900 -14.621600 -27.384400
H -14.321500 -15.338500 -26.831800
H -13.924100 -13.078700 -23.546300
C -13.763000 -13.466000 -24.398700
N -13.425400 -11.098200 -25.102900
C -13.219900 -12.424200 -25.292500
H -13.185200 -13.826900 -28.675600
H -13.158600 -14.194100 -24.295300
C -13.071200 -14.434800 -27.954200
H -12.810000 -9.445400 -26.135700
C -12.801100 -10.390300 -26.082800
H -12.717500 -15.243100 -28.309100
N -12.455800 -12.590000 -26.397600
C -12.189600 -11.317200 -26.903000
C -12.059000 -13.901600 -26.939800
H -11.986800 -14.492200 -26.197700
N -11.443200 -11.014500 -28.070200
O -11.281700 -9.791300 -28.337900
H -11.192700 -13.808400 -27.330400
O -10.997700 -11.959700 -28.781300
