21
Fragment
O -18.944000 -15.687800 -17.169500
H -18.749000 -13.839100 -18.620400
O -18.660000 -17.856300 -17.612900
N -18.498500 -16.633000 -17.880600
H -17.954800 -13.155300 -19.753100
C -17.882700 -13.745900 -19.011000
C -17.752100 -16.330300 -19.047800
N -17.485800 -15.057500 -19.553200
H -17.224200 -12.404400 -17.641700
C -17.140600 -17.257200 -19.868000
H -17.131600 -18.202100 -19.815100
C -16.870400 -13.212700 -17.996600
H -16.783100 -13.453400 -21.655500
H -16.756500 -13.820600 -17.275200
C -16.721800 -15.223300 -20.658300
N -16.516300 -16.549300 -20.847900
C -16.178700 -14.181500 -21.552100
H -16.017500 -14.568800 -22.404500
H -15.620200 -12.309000 -19.119000
O -15.583700 -13.025900 -18.566400
H -15.369200 -13.841100 -21.198200
17
Fragment
H -22.236200 -15.079100 -19.004100
H -21.812100 -17.375000 -19.274100
C -21.654600 -15.384900 -19.691100
C -21.408600 -16.744000 -19.859900
O -21.292100 -13.110100 -20.361900
C -21.052000 -14.447700 -20.548000
H -20.763700 -12.634900 -20.916800
C -20.572700 -17.198700 -20.888100
O -20.320300 -18.536700 -21.014400
C -20.235500 -14.904100 -21.577300
C -19.996300 -16.267600 -21.779500
H -19.826500 -14.273600 -22.160900
H -19.782200 -18.584300 -21.734700
C -19.146700 -16.691500 -22.926000
O -18.905100 -17.968400 -23.039700
O -18.700200 -15.831400 -23.735900
H -18.396500 -18.271800 -23.718700
38
Fragment
O -18.944000 -15.687800 -17.169500
H -18.749000 -13.839100 -18.620400
O -18.660000 -17.856300 -17.612900
N -18.498500 -16.633000 -17.880600
H -17.954800 -13.155300 -19.753100
C -17.882700 -13.745900 -19.011000
C -17.752100 -16.330300 -19.047800
N -17.485800 -15.057500 -19.553200
H -17.224200 -12.404400 -17.641700
C -17.140600 -17.257200 -19.868000
H -17.131600 -18.202100 -19.815100
C -16.870400 -13.212700 -17.996600
H -16.783100 -13.453400 -21.655500
H -16.756500 -13.820600 -17.275200
C -16.721800 -15.223300 -20.658300
N -16.516300 -16.549300 -20.847900
C -16.178700 -14.181500 -21.552100
H -16.017500 -14.568800 -22.404500
H -15.620200 -12.309000 -19.119000
O -15.583700 -13.025900 -18.566400
H -15.369200 -13.841100 -21.198200
H -22.236200 -15.079100 -19.004100
H -21.812100 -17.375000 -19.274100
C -21.654600 -15.384900 -19.691100
C -21.408600 -16.744000 -19.859900
O -21.292100 -13.110100 -20.361900
C -21.052000 -14.447700 -20.548000
H -20.763700 -12.634900 -20.916800
C -20.572700 -17.198700 -20.888100
O -20.320300 -18.536700 -21.014400
C -20.235500 -14.904100 -21.577300
C -19.996300 -16.267600 -21.779500
H -19.826500 -14.273600 -22.160900
H -19.782200 -18.584300 -21.734700
C -19.146700 -16.691500 -22.926000
O -18.905100 -17.968400 -23.039700
O -18.700200 -15.831400 -23.735900
H -18.396500 -18.271800 -23.718700
