31
Fragment
O -25.441100 -21.047700 -17.130600
O -25.351400 -19.153100 -16.057000
N -24.952100 -19.925200 -16.921200
C -23.889100 -19.497800 -17.782600
N -23.850800 -23.535300 -22.218200
C -23.756700 -23.028600 -20.976100
H -23.733200 -21.112200 -21.518000
H -23.727000 -24.449300 -19.551000
N -23.706600 -21.690900 -20.802200
O -23.683300 -25.341800 -23.468500
N -23.674600 -23.561400 -19.760500
N -23.668300 -24.867000 -22.316600
O -23.577600 -13.424900 -14.175600
C -23.565400 -21.470500 -19.457200
N -23.541900 -22.585000 -18.785200
N -23.507300 -15.120400 -16.125300
N -23.490800 -15.866700 -17.271700
O -23.454200 -25.568200 -21.320400
H -23.445400 -14.211200 -16.154400
N -23.443200 -14.347600 -13.337000
O -23.422300 -14.126900 -12.123100
C -23.392400 -15.871400 -15.031600
C -23.381200 -17.086000 -16.840100
C -23.372800 -20.146500 -18.886300
N -23.345500 -15.628600 -13.716700
N -23.311800 -17.147500 -15.490600
C -23.259400 -18.227300 -17.744400
H -23.169400 -17.882800 -14.970600
N -22.516900 -19.279600 -19.445400
N -22.417300 -18.108700 -18.771500
H -21.910600 -19.353900 -20.133800
31
Fragment
O -27.491900 -29.591300 -17.130600
O -27.402200 -27.696700 -16.057000
N -27.002900 -28.468800 -16.921200
C -25.939900 -28.041400 -17.782600
N -25.901600 -32.079000 -22.218200
C -25.807500 -31.572200 -20.976100
H -25.784000 -29.655800 -21.518000
H -25.777800 -32.992900 -19.551000
N -25.757400 -30.234500 -20.802200
O -25.734100 -33.885400 -23.468500
N -25.725400 -32.105000 -19.760500
N -25.719100 -33.410600 -22.316600
O -25.628500 -21.968500 -14.175600
C -25.616200 -30.014100 -19.457200
N -25.592800 -31.128600 -18.785200
N -25.558200 -23.664000 -16.125300
N -25.541600 -24.410300 -17.271700
O -25.505000 -34.111800 -21.320400
H -25.496300 -22.754800 -16.154400
N -25.494000 -22.891200 -13.337000
O -25.473100 -22.670500 -12.123100
C -25.443300 -24.415000 -15.031600
C -25.432100 -25.629600 -16.840100
C -25.423600 -28.690100 -18.886300
N -25.396300 -24.172200 -13.716700
N -25.362600 -25.691100 -15.490600
C -25.310200 -26.770900 -17.744400
H -25.220300 -26.426400 -14.970600
N -24.567700 -27.823200 -19.445400
N -24.468200 -26.652300 -18.771500
H -23.961400 -27.897500 -20.133800
62
Fragment
O -25.441100 -21.047700 -17.130600
O -25.351400 -19.153100 -16.057000
N -24.952100 -19.925200 -16.921200
C -23.889100 -19.497800 -17.782600
N -23.850800 -23.535300 -22.218200
C -23.756700 -23.028600 -20.976100
H -23.733200 -21.112200 -21.518000
H -23.727000 -24.449300 -19.551000
N -23.706600 -21.690900 -20.802200
O -23.683300 -25.341800 -23.468500
N -23.674600 -23.561400 -19.760500
N -23.668300 -24.867000 -22.316600
O -23.577600 -13.424900 -14.175600
C -23.565400 -21.470500 -19.457200
N -23.541900 -22.585000 -18.785200
N -23.507300 -15.120400 -16.125300
N -23.490800 -15.866700 -17.271700
O -23.454200 -25.568200 -21.320400
H -23.445400 -14.211200 -16.154400
N -23.443200 -14.347600 -13.337000
O -23.422300 -14.126900 -12.123100
C -23.392400 -15.871400 -15.031600
C -23.381200 -17.086000 -16.840100
C -23.372800 -20.146500 -18.886300
N -23.345500 -15.628600 -13.716700
N -23.311800 -17.147500 -15.490600
C -23.259400 -18.227300 -17.744400
H -23.169400 -17.882800 -14.970600
N -22.516900 -19.279600 -19.445400
N -22.417300 -18.108700 -18.771500
H -21.910600 -19.353900 -20.133800
O -27.491900 -29.591300 -17.130600
O -27.402200 -27.696700 -16.057000
N -27.002900 -28.468800 -16.921200
C -25.939900 -28.041400 -17.782600
N -25.901600 -32.079000 -22.218200
C -25.807500 -31.572200 -20.976100
H -25.784000 -29.655800 -21.518000
H -25.777800 -32.992900 -19.551000
N -25.757400 -30.234500 -20.802200
O -25.734100 -33.885400 -23.468500
N -25.725400 -32.105000 -19.760500
N -25.719100 -33.410600 -22.316600
O -25.628500 -21.968500 -14.175600
C -25.616200 -30.014100 -19.457200
N -25.592800 -31.128600 -18.785200
N -25.558200 -23.664000 -16.125300
N -25.541600 -24.410300 -17.271700
O -25.505000 -34.111800 -21.320400
H -25.496300 -22.754800 -16.154400
N -25.494000 -22.891200 -13.337000
O -25.473100 -22.670500 -12.123100
C -25.443300 -24.415000 -15.031600
C -25.432100 -25.629600 -16.840100
C -25.423600 -28.690100 -18.886300
N -25.396300 -24.172200 -13.716700
N -25.362600 -25.691100 -15.490600
C -25.310200 -26.770900 -17.744400
H -25.220300 -26.426400 -14.970600
N -24.567700 -27.823200 -19.445400
N -24.468200 -26.652300 -18.771500
H -23.961400 -27.897500 -20.133800
