31
Fragment
O -25.441100 -21.047700 -17.130600
O -25.351400 -19.153100 -16.057000
N -24.952100 -19.925200 -16.921200
C -23.889100 -19.497800 -17.782600
N -23.850800 -23.535300 -22.218200
C -23.756700 -23.028600 -20.976100
H -23.733200 -21.112200 -21.518000
H -23.727000 -24.449300 -19.551000
N -23.706600 -21.690900 -20.802200
O -23.683300 -25.341800 -23.468500
N -23.674600 -23.561400 -19.760500
N -23.668300 -24.867000 -22.316600
O -23.577600 -13.424900 -14.175600
C -23.565400 -21.470500 -19.457200
N -23.541900 -22.585000 -18.785200
N -23.507300 -15.120400 -16.125300
N -23.490800 -15.866700 -17.271700
O -23.454200 -25.568200 -21.320400
H -23.445400 -14.211200 -16.154400
N -23.443200 -14.347600 -13.337000
O -23.422300 -14.126900 -12.123100
C -23.392400 -15.871400 -15.031600
C -23.381200 -17.086000 -16.840100
C -23.372800 -20.146500 -18.886300
N -23.345500 -15.628600 -13.716700
N -23.311800 -17.147500 -15.490600
C -23.259400 -18.227300 -17.744400
H -23.169400 -17.882800 -14.970600
N -22.516900 -19.279600 -19.445400
N -22.417300 -18.108700 -18.771500
H -21.910600 -19.353900 -20.133800
3
Fragment
O -20.528700 -15.240100 -14.744800
H -20.486500 -14.500000 -14.288600
H -20.285900 -15.856900 -14.180500
34
Fragment
O -25.441100 -21.047700 -17.130600
O -25.351400 -19.153100 -16.057000
N -24.952100 -19.925200 -16.921200
C -23.889100 -19.497800 -17.782600
N -23.850800 -23.535300 -22.218200
C -23.756700 -23.028600 -20.976100
H -23.733200 -21.112200 -21.518000
H -23.727000 -24.449300 -19.551000
N -23.706600 -21.690900 -20.802200
O -23.683300 -25.341800 -23.468500
N -23.674600 -23.561400 -19.760500
N -23.668300 -24.867000 -22.316600
O -23.577600 -13.424900 -14.175600
C -23.565400 -21.470500 -19.457200
N -23.541900 -22.585000 -18.785200
N -23.507300 -15.120400 -16.125300
N -23.490800 -15.866700 -17.271700
O -23.454200 -25.568200 -21.320400
H -23.445400 -14.211200 -16.154400
N -23.443200 -14.347600 -13.337000
O -23.422300 -14.126900 -12.123100
C -23.392400 -15.871400 -15.031600
C -23.381200 -17.086000 -16.840100
C -23.372800 -20.146500 -18.886300
N -23.345500 -15.628600 -13.716700
N -23.311800 -17.147500 -15.490600
C -23.259400 -18.227300 -17.744400
H -23.169400 -17.882800 -14.970600
N -22.516900 -19.279600 -19.445400
N -22.417300 -18.108700 -18.771500
H -21.910600 -19.353900 -20.133800
O -20.528700 -15.240100 -14.744800
H -20.486500 -14.500000 -14.288600
H -20.285900 -15.856900 -14.180500
