31
Fragment
O -25.441100 -21.047700 -17.130600
O -25.351400 -19.153100 -16.057000
N -24.952100 -19.925200 -16.921200
C -23.889100 -19.497800 -17.782600
N -23.850800 -23.535300 -22.218200
C -23.756700 -23.028600 -20.976100
H -23.733200 -21.112200 -21.518000
H -23.727000 -24.449300 -19.551000
N -23.706600 -21.690900 -20.802200
O -23.683300 -25.341800 -23.468500
N -23.674600 -23.561400 -19.760500
N -23.668300 -24.867000 -22.316600
O -23.577600 -13.424900 -14.175600
C -23.565400 -21.470500 -19.457200
N -23.541900 -22.585000 -18.785200
N -23.507300 -15.120400 -16.125300
N -23.490800 -15.866700 -17.271700
O -23.454200 -25.568200 -21.320400
H -23.445400 -14.211200 -16.154400
N -23.443200 -14.347600 -13.337000
O -23.422300 -14.126900 -12.123100
C -23.392400 -15.871400 -15.031600
C -23.381200 -17.086000 -16.840100
C -23.372800 -20.146500 -18.886300
N -23.345500 -15.628600 -13.716700
N -23.311800 -17.147500 -15.490600
C -23.259400 -18.227300 -17.744400
H -23.169400 -17.882800 -14.970600
N -22.516900 -19.279600 -19.445400
N -22.417300 -18.108700 -18.771500
H -21.910600 -19.353900 -20.133800
31
Fragment
H -21.763200 -24.219000 -16.291000
N -21.256400 -25.464200 -17.653300
N -21.156800 -24.293200 -16.979400
H -20.504300 -25.690100 -21.454200
C -20.414300 -25.345600 -18.680500
N -20.362000 -26.425400 -20.934300
N -20.328200 -27.944200 -22.708100
C -20.301000 -23.426400 -17.538600
C -20.292500 -26.486900 -19.584700
C -20.281300 -27.701500 -21.393200
O -20.251400 -29.446000 -24.301700
N -20.230600 -29.225300 -23.087900
H -20.228300 -29.361700 -20.270400
O -20.219500 -18.004700 -15.104500
N -20.182900 -27.706200 -19.153100
N -20.166400 -28.452400 -20.299600
N -20.131800 -20.987800 -17.639600
C -20.108400 -22.102400 -16.967600
O -20.096100 -30.148000 -22.249200
N -20.005400 -18.705800 -14.108200
N -19.999200 -20.011500 -16.664400
O -19.990500 -18.231100 -12.956300
N -19.967200 -21.882000 -15.622600
H -19.946800 -19.123600 -16.873800
H -19.940500 -22.460700 -14.906900
C -19.917000 -20.544300 -15.448700
N -19.823000 -20.037500 -14.206600
C -19.784700 -24.075100 -18.642200
N -18.721600 -23.647600 -19.503700
O -18.322400 -24.419800 -20.367900
O -18.232700 -22.525200 -19.294200
62
Fragment
O -25.441100 -21.047700 -17.130600
O -25.351400 -19.153100 -16.057000
N -24.952100 -19.925200 -16.921200
C -23.889100 -19.497800 -17.782600
N -23.850800 -23.535300 -22.218200
C -23.756700 -23.028600 -20.976100
H -23.733200 -21.112200 -21.518000
H -23.727000 -24.449300 -19.551000
N -23.706600 -21.690900 -20.802200
O -23.683300 -25.341800 -23.468500
N -23.674600 -23.561400 -19.760500
N -23.668300 -24.867000 -22.316600
O -23.577600 -13.424900 -14.175600
C -23.565400 -21.470500 -19.457200
N -23.541900 -22.585000 -18.785200
N -23.507300 -15.120400 -16.125300
N -23.490800 -15.866700 -17.271700
O -23.454200 -25.568200 -21.320400
H -23.445400 -14.211200 -16.154400
N -23.443200 -14.347600 -13.337000
O -23.422300 -14.126900 -12.123100
C -23.392400 -15.871400 -15.031600
C -23.381200 -17.086000 -16.840100
C -23.372800 -20.146500 -18.886300
N -23.345500 -15.628600 -13.716700
N -23.311800 -17.147500 -15.490600
C -23.259400 -18.227300 -17.744400
H -23.169400 -17.882800 -14.970600
N -22.516900 -19.279600 -19.445400
N -22.417300 -18.108700 -18.771500
H -21.910600 -19.353900 -20.133800
H -21.763200 -24.219000 -16.291000
N -21.256400 -25.464200 -17.653300
N -21.156800 -24.293200 -16.979400
H -20.504300 -25.690100 -21.454200
C -20.414300 -25.345600 -18.680500
N -20.362000 -26.425400 -20.934300
N -20.328200 -27.944200 -22.708100
C -20.301000 -23.426400 -17.538600
C -20.292500 -26.486900 -19.584700
C -20.281300 -27.701500 -21.393200
O -20.251400 -29.446000 -24.301700
N -20.230600 -29.225300 -23.087900
H -20.228300 -29.361700 -20.270400
O -20.219500 -18.004700 -15.104500
N -20.182900 -27.706200 -19.153100
N -20.166400 -28.452400 -20.299600
N -20.131800 -20.987800 -17.639600
C -20.108400 -22.102400 -16.967600
O -20.096100 -30.148000 -22.249200
N -20.005400 -18.705800 -14.108200
N -19.999200 -20.011500 -16.664400
O -19.990500 -18.231100 -12.956300
N -19.967200 -21.882000 -15.622600
H -19.946800 -19.123600 -16.873800
H -19.940500 -22.460700 -14.906900
C -19.917000 -20.544300 -15.448700
N -19.823000 -20.037500 -14.206600
C -19.784700 -24.075100 -18.642200
N -18.721600 -23.647600 -19.503700
O -18.322400 -24.419800 -20.367900
O -18.232700 -22.525200 -19.294200
