20
Fragment
F -7.930100 -35.581000 -7.102200
F -7.930100 -32.975000 -7.102200
N -7.537400 -38.678800 -7.138100
N -7.537400 -29.877200 -7.138100
C -6.879200 -34.947100 -6.545200
C -6.879200 -33.608900 -6.545200
C -6.818900 -37.941200 -6.637800
C -6.818900 -30.614800 -6.637800
C -5.850900 -37.140700 -5.977300
C -5.850900 -35.735500 -5.977300
C -5.850900 -32.820500 -5.977300
C -5.850900 -31.415300 -5.977300
C -4.883000 -37.941200 -5.316800
C -4.883000 -30.614800 -5.316800
C -4.822700 -34.947100 -5.409500
C -4.822700 -33.608900 -5.409500
N -4.164500 -38.678800 -4.816500
N -4.164500 -29.877200 -4.816500
F -3.771800 -35.581000 -4.852400
F -3.771800 -32.975000 -4.852400
38
Fragment
H -7.192900 -37.228200 -10.590600
H -7.192900 -31.327800 -10.590600
H -6.952300 -38.448500 -9.636600
H -6.952300 -30.107500 -9.636600
C -6.540700 -37.855900 -10.270800
C -6.540700 -30.700100 -10.270800
H -6.198300 -38.366200 -11.009000
H -6.198300 -30.189800 -11.009000
H -6.089200 -35.288100 -9.979100
H -6.089200 -33.267900 -9.979100
C -5.412900 -37.115100 -9.606700
C -5.412900 -31.440900 -9.606700
C -5.389600 -35.748800 -9.575700
C -5.389600 -32.807200 -9.575700
H -4.967200 -39.581900 -9.468100
H -4.967200 -28.974100 -9.468100
N -4.360900 -39.164900 -8.966000
C -4.360900 -37.823000 -8.966000
C -4.360900 -34.999400 -8.966000
C -4.360900 -33.556600 -8.966000
C -4.360900 -30.733000 -8.966000
N -4.360900 -29.391100 -8.966000
H -3.754600 -39.581900 -8.463900
H -3.754600 -28.974100 -8.463900
C -3.332300 -35.748800 -8.356300
C -3.332300 -32.807200 -8.356300
C -3.308900 -37.115100 -8.325200
C -3.308900 -31.440900 -8.325200
H -2.632700 -35.288100 -7.952800
H -2.632700 -33.267900 -7.952800
H -2.523600 -38.366200 -6.922900
H -2.523600 -30.189800 -6.922900
C -2.181100 -37.855900 -7.661100
C -2.181100 -30.700100 -7.661100
H -1.769600 -38.448500 -8.295300
H -1.769600 -30.107500 -8.295300
H -1.529000 -37.228200 -7.341300
H -1.529000 -31.327800 -7.341300
58
Fragment
F -7.930100 -35.581000 -7.102200
F -7.930100 -32.975000 -7.102200
N -7.537400 -38.678800 -7.138100
N -7.537400 -29.877200 -7.138100
C -6.879200 -34.947100 -6.545200
C -6.879200 -33.608900 -6.545200
C -6.818900 -37.941200 -6.637800
C -6.818900 -30.614800 -6.637800
C -5.850900 -37.140700 -5.977300
C -5.850900 -35.735500 -5.977300
C -5.850900 -32.820500 -5.977300
C -5.850900 -31.415300 -5.977300
C -4.883000 -37.941200 -5.316800
C -4.883000 -30.614800 -5.316800
C -4.822700 -34.947100 -5.409500
C -4.822700 -33.608900 -5.409500
N -4.164500 -38.678800 -4.816500
N -4.164500 -29.877200 -4.816500
F -3.771800 -35.581000 -4.852400
F -3.771800 -32.975000 -4.852400
H -7.192900 -37.228200 -10.590600
H -7.192900 -31.327800 -10.590600
H -6.952300 -38.448500 -9.636600
H -6.952300 -30.107500 -9.636600
C -6.540700 -37.855900 -10.270800
C -6.540700 -30.700100 -10.270800
H -6.198300 -38.366200 -11.009000
H -6.198300 -30.189800 -11.009000
H -6.089200 -35.288100 -9.979100
H -6.089200 -33.267900 -9.979100
C -5.412900 -37.115100 -9.606700
C -5.412900 -31.440900 -9.606700
C -5.389600 -35.748800 -9.575700
C -5.389600 -32.807200 -9.575700
H -4.967200 -39.581900 -9.468100
H -4.967200 -28.974100 -9.468100
N -4.360900 -39.164900 -8.966000
C -4.360900 -37.823000 -8.966000
C -4.360900 -34.999400 -8.966000
C -4.360900 -33.556600 -8.966000
C -4.360900 -30.733000 -8.966000
N -4.360900 -29.391100 -8.966000
H -3.754600 -39.581900 -8.463900
H -3.754600 -28.974100 -8.463900
C -3.332300 -35.748800 -8.356300
C -3.332300 -32.807200 -8.356300
C -3.308900 -37.115100 -8.325200
C -3.308900 -31.440900 -8.325200
H -2.632700 -35.288100 -7.952800
H -2.632700 -33.267900 -7.952800
H -2.523600 -38.366200 -6.922900
H -2.523600 -30.189800 -6.922900
C -2.181100 -37.855900 -7.661100
C -2.181100 -30.700100 -7.661100
H -1.769600 -38.448500 -8.295300
H -1.769600 -30.107500 -8.295300
H -1.529000 -37.228200 -7.341300
H -1.529000 -31.327800 -7.341300
