20
Fragment
F -7.930100 -35.581000 -7.102200
F -7.930100 -32.975000 -7.102200
N -7.537400 -38.678800 -7.138100
N -7.537400 -29.877200 -7.138100
C -6.879200 -34.947100 -6.545200
C -6.879200 -33.608900 -6.545200
C -6.818900 -37.941200 -6.637800
C -6.818900 -30.614800 -6.637800
C -5.850900 -37.140700 -5.977300
C -5.850900 -35.735500 -5.977300
C -5.850900 -32.820500 -5.977300
C -5.850900 -31.415300 -5.977300
C -4.883000 -37.941200 -5.316800
C -4.883000 -30.614800 -5.316800
C -4.822700 -34.947100 -5.409500
C -4.822700 -33.608900 -5.409500
N -4.164500 -38.678800 -4.816500
N -4.164500 -29.877200 -4.816500
F -3.771800 -35.581000 -4.852400
F -3.771800 -32.975000 -4.852400
38
Fragment
H -10.172900 -37.228200 -4.613300
H -10.172900 -31.327800 -4.613300
H -9.932300 -38.448500 -3.659300
H -9.932300 -30.107500 -3.659300
C -9.520800 -37.855900 -4.293500
C -9.520800 -30.700100 -4.293500
H -9.178300 -38.366200 -5.031700
H -9.178300 -30.189800 -5.031700
H -9.069200 -35.288100 -4.001800
H -9.069200 -33.267900 -4.001800
C -8.393000 -37.115100 -3.629400
C -8.393000 -31.440900 -3.629400
C -8.369600 -35.748800 -3.598300
C -8.369600 -32.807200 -3.598300
H -7.947300 -39.581900 -3.490800
H -7.947300 -28.974100 -3.490800
N -7.341000 -39.164900 -2.988700
C -7.341000 -37.823000 -2.988700
C -7.341000 -34.999400 -2.988700
C -7.341000 -33.556600 -2.988700
C -7.341000 -30.733000 -2.988700
N -7.341000 -29.391100 -2.988700
H -6.734700 -39.581900 -2.486600
H -6.734700 -28.974100 -2.486600
C -6.312300 -35.748800 -2.379000
C -6.312300 -32.807200 -2.379000
C -6.289000 -37.115100 -2.347900
C -6.289000 -31.440900 -2.347900
H -5.612700 -35.288100 -1.975500
H -5.612700 -33.267900 -1.975500
H -5.503600 -38.366200 -0.945600
H -5.503600 -30.189800 -0.945600
C -5.161200 -37.855900 -1.683800
C -5.161200 -30.700100 -1.683800
H -4.749600 -38.448500 -2.318000
H -4.749600 -30.107500 -2.318000
H -4.509000 -37.228200 -1.364000
H -4.509000 -31.327800 -1.364000
58
Fragment
F -7.930100 -35.581000 -7.102200
F -7.930100 -32.975000 -7.102200
N -7.537400 -38.678800 -7.138100
N -7.537400 -29.877200 -7.138100
C -6.879200 -34.947100 -6.545200
C -6.879200 -33.608900 -6.545200
C -6.818900 -37.941200 -6.637800
C -6.818900 -30.614800 -6.637800
C -5.850900 -37.140700 -5.977300
C -5.850900 -35.735500 -5.977300
C -5.850900 -32.820500 -5.977300
C -5.850900 -31.415300 -5.977300
C -4.883000 -37.941200 -5.316800
C -4.883000 -30.614800 -5.316800
C -4.822700 -34.947100 -5.409500
C -4.822700 -33.608900 -5.409500
N -4.164500 -38.678800 -4.816500
N -4.164500 -29.877200 -4.816500
F -3.771800 -35.581000 -4.852400
F -3.771800 -32.975000 -4.852400
H -10.172900 -37.228200 -4.613300
H -10.172900 -31.327800 -4.613300
H -9.932300 -38.448500 -3.659300
H -9.932300 -30.107500 -3.659300
C -9.520800 -37.855900 -4.293500
C -9.520800 -30.700100 -4.293500
H -9.178300 -38.366200 -5.031700
H -9.178300 -30.189800 -5.031700
H -9.069200 -35.288100 -4.001800
H -9.069200 -33.267900 -4.001800
C -8.393000 -37.115100 -3.629400
C -8.393000 -31.440900 -3.629400
C -8.369600 -35.748800 -3.598300
C -8.369600 -32.807200 -3.598300
H -7.947300 -39.581900 -3.490800
H -7.947300 -28.974100 -3.490800
N -7.341000 -39.164900 -2.988700
C -7.341000 -37.823000 -2.988700
C -7.341000 -34.999400 -2.988700
C -7.341000 -33.556600 -2.988700
C -7.341000 -30.733000 -2.988700
N -7.341000 -29.391100 -2.988700
H -6.734700 -39.581900 -2.486600
H -6.734700 -28.974100 -2.486600
C -6.312300 -35.748800 -2.379000
C -6.312300 -32.807200 -2.379000
C -6.289000 -37.115100 -2.347900
C -6.289000 -31.440900 -2.347900
H -5.612700 -35.288100 -1.975500
H -5.612700 -33.267900 -1.975500
H -5.503600 -38.366200 -0.945600
H -5.503600 -30.189800 -0.945600
C -5.161200 -37.855900 -1.683800
C -5.161200 -30.700100 -1.683800
H -4.749600 -38.448500 -2.318000
H -4.749600 -30.107500 -2.318000
H -4.509000 -37.228200 -1.364000
H -4.509000 -31.327800 -1.364000
