20
Fragment
F -7.930100 -35.581000 -7.102200
F -7.930100 -32.975000 -7.102200
N -7.537400 -38.678800 -7.138100
N -7.537400 -29.877200 -7.138100
C -6.879200 -34.947100 -6.545200
C -6.879200 -33.608900 -6.545200
C -6.818900 -37.941200 -6.637800
C -6.818900 -30.614800 -6.637800
C -5.850900 -37.140700 -5.977300
C -5.850900 -35.735500 -5.977300
C -5.850900 -32.820500 -5.977300
C -5.850900 -31.415300 -5.977300
C -4.883000 -37.941200 -5.316800
C -4.883000 -30.614800 -5.316800
C -4.822700 -34.947100 -5.409500
C -4.822700 -33.608900 -5.409500
N -4.164500 -38.678800 -4.816500
N -4.164500 -29.877200 -4.816500
F -3.771800 -35.581000 -4.852400
F -3.771800 -32.975000 -4.852400
20
Fragment
F -3.514600 -24.155000 -7.102200
F -3.514600 -21.549000 -7.102200
N -3.121900 -27.252800 -7.138100
N -3.121900 -18.451200 -7.138100
C -2.463700 -23.521100 -6.545200
C -2.463700 -22.182900 -6.545200
C -2.403400 -26.515200 -6.637800
C -2.403400 -19.188800 -6.637800
C -1.435400 -25.714700 -5.977300
C -1.435400 -24.309500 -5.977300
C -1.435400 -21.394500 -5.977300
C -1.435400 -19.989300 -5.977300
C -0.467500 -26.515200 -5.316800
C -0.467500 -19.188800 -5.316800
C -0.407200 -23.521100 -5.409500
C -0.407200 -22.182900 -5.409500
N 0.251000 -27.252800 -4.816500
N 0.251000 -18.451200 -4.816500
F 0.643700 -24.155000 -4.852400
F 0.643700 -21.549000 -4.852400
40
Fragment
F -7.930100 -35.581000 -7.102200
F -7.930100 -32.975000 -7.102200
N -7.537400 -38.678800 -7.138100
N -7.537400 -29.877200 -7.138100
C -6.879200 -34.947100 -6.545200
C -6.879200 -33.608900 -6.545200
C -6.818900 -37.941200 -6.637800
C -6.818900 -30.614800 -6.637800
C -5.850900 -37.140700 -5.977300
C -5.850900 -35.735500 -5.977300
C -5.850900 -32.820500 -5.977300
C -5.850900 -31.415300 -5.977300
C -4.883000 -37.941200 -5.316800
C -4.883000 -30.614800 -5.316800
C -4.822700 -34.947100 -5.409500
C -4.822700 -33.608900 -5.409500
N -4.164500 -38.678800 -4.816500
N -4.164500 -29.877200 -4.816500
F -3.771800 -35.581000 -4.852400
F -3.771800 -32.975000 -4.852400
F -3.514600 -24.155000 -7.102200
F -3.514600 -21.549000 -7.102200
N -3.121900 -27.252800 -7.138100
N -3.121900 -18.451200 -7.138100
C -2.463700 -23.521100 -6.545200
C -2.463700 -22.182900 -6.545200
C -2.403400 -26.515200 -6.637800
C -2.403400 -19.188800 -6.637800
C -1.435400 -25.714700 -5.977300
C -1.435400 -24.309500 -5.977300
C -1.435400 -21.394500 -5.977300
C -1.435400 -19.989300 -5.977300
C -0.467500 -26.515200 -5.316800
C -0.467500 -19.188800 -5.316800
C -0.407200 -23.521100 -5.409500
C -0.407200 -22.182900 -5.409500
N 0.251000 -27.252800 -4.816500
N 0.251000 -18.451200 -4.816500
F 0.643700 -24.155000 -4.852400
F 0.643700 -21.549000 -4.852400
