20
Fragment
F -7.930100 -35.581000 -7.102200
F -7.930100 -32.975000 -7.102200
N -7.537400 -38.678800 -7.138100
N -7.537400 -29.877200 -7.138100
C -6.879200 -34.947100 -6.545200
C -6.879200 -33.608900 -6.545200
C -6.818900 -37.941200 -6.637800
C -6.818900 -30.614800 -6.637800
C -5.850900 -37.140700 -5.977300
C -5.850900 -35.735500 -5.977300
C -5.850900 -32.820500 -5.977300
C -5.850900 -31.415300 -5.977300
C -4.883000 -37.941200 -5.316800
C -4.883000 -30.614800 -5.316800
C -4.822700 -34.947100 -5.409500
C -4.822700 -33.608900 -5.409500
N -4.164500 -38.678800 -4.816500
N -4.164500 -29.877200 -4.816500
F -3.771800 -35.581000 -4.852400
F -3.771800 -32.975000 -4.852400
38
Fragment
H -5.757400 -25.802200 -4.613300
H -5.757400 -19.901800 -4.613300
H -5.516800 -27.022500 -3.659300
H -5.516800 -18.681500 -3.659300
C -5.105300 -26.429900 -4.293500
C -5.105300 -19.274100 -4.293500
H -4.762800 -26.940200 -5.031700
H -4.762800 -18.763800 -5.031700
H -4.653700 -23.862100 -4.001800
H -4.653700 -21.841900 -4.001800
C -3.977500 -25.689100 -3.629400
C -3.977500 -20.014900 -3.629400
C -3.954100 -24.322800 -3.598300
C -3.954100 -21.381200 -3.598300
H -3.531800 -28.155900 -3.490800
H -3.531800 -17.548100 -3.490800
N -2.925500 -27.738900 -2.988700
C -2.925500 -26.397000 -2.988700
C -2.925500 -23.573400 -2.988700
C -2.925500 -22.130600 -2.988700
C -2.925500 -19.307000 -2.988700
N -2.925500 -17.965100 -2.988700
H -2.319200 -28.155900 -2.486600
H -2.319200 -17.548100 -2.486600
C -1.896800 -24.322800 -2.379000
C -1.896800 -21.381200 -2.379000
C -1.873500 -25.689100 -2.347900
C -1.873500 -20.014900 -2.347900
H -1.197200 -23.862100 -1.975500
H -1.197200 -21.841900 -1.975500
H -1.088100 -26.940200 -0.945600
H -1.088100 -18.763800 -0.945600
C -0.745700 -26.429900 -1.683800
C -0.745700 -19.274100 -1.683800
H -0.334100 -27.022500 -2.318000
H -0.334100 -18.681500 -2.318000
H -0.093500 -25.802200 -1.364000
H -0.093500 -19.901800 -1.364000
58
Fragment
F -7.930100 -35.581000 -7.102200
F -7.930100 -32.975000 -7.102200
N -7.537400 -38.678800 -7.138100
N -7.537400 -29.877200 -7.138100
C -6.879200 -34.947100 -6.545200
C -6.879200 -33.608900 -6.545200
C -6.818900 -37.941200 -6.637800
C -6.818900 -30.614800 -6.637800
C -5.850900 -37.140700 -5.977300
C -5.850900 -35.735500 -5.977300
C -5.850900 -32.820500 -5.977300
C -5.850900 -31.415300 -5.977300
C -4.883000 -37.941200 -5.316800
C -4.883000 -30.614800 -5.316800
C -4.822700 -34.947100 -5.409500
C -4.822700 -33.608900 -5.409500
N -4.164500 -38.678800 -4.816500
N -4.164500 -29.877200 -4.816500
F -3.771800 -35.581000 -4.852400
F -3.771800 -32.975000 -4.852400
H -5.757400 -25.802200 -4.613300
H -5.757400 -19.901800 -4.613300
H -5.516800 -27.022500 -3.659300
H -5.516800 -18.681500 -3.659300
C -5.105300 -26.429900 -4.293500
C -5.105300 -19.274100 -4.293500
H -4.762800 -26.940200 -5.031700
H -4.762800 -18.763800 -5.031700
H -4.653700 -23.862100 -4.001800
H -4.653700 -21.841900 -4.001800
C -3.977500 -25.689100 -3.629400
C -3.977500 -20.014900 -3.629400
C -3.954100 -24.322800 -3.598300
C -3.954100 -21.381200 -3.598300
H -3.531800 -28.155900 -3.490800
H -3.531800 -17.548100 -3.490800
N -2.925500 -27.738900 -2.988700
C -2.925500 -26.397000 -2.988700
C -2.925500 -23.573400 -2.988700
C -2.925500 -22.130600 -2.988700
C -2.925500 -19.307000 -2.988700
N -2.925500 -17.965100 -2.988700
H -2.319200 -28.155900 -2.486600
H -2.319200 -17.548100 -2.486600
C -1.896800 -24.322800 -2.379000
C -1.896800 -21.381200 -2.379000
C -1.873500 -25.689100 -2.347900
C -1.873500 -20.014900 -2.347900
H -1.197200 -23.862100 -1.975500
H -1.197200 -21.841900 -1.975500
H -1.088100 -26.940200 -0.945600
H -1.088100 -18.763800 -0.945600
C -0.745700 -26.429900 -1.683800
C -0.745700 -19.274100 -1.683800
H -0.334100 -27.022500 -2.318000
H -0.334100 -18.681500 -2.318000
H -0.093500 -25.802200 -1.364000
H -0.093500 -19.901800 -1.364000
