17
Fragment
H -17.896200 -18.540700 -11.942300
O -17.538400 -18.044400 -12.611400
O -17.210000 -20.003400 -13.596100
C -17.086800 -18.800900 -13.588000
H -17.068200 -17.460600 -15.082600
H -16.419600 -19.401000 -16.143700
C -16.415400 -18.012700 -14.667100
H -15.767100 -17.467100 -17.207600
C -15.758500 -18.852200 -15.737200
H -15.749900 -17.467100 -14.266900
C -15.101500 -18.012700 -16.807400
H -15.097300 -19.401000 -15.330800
H -14.448800 -17.460600 -16.391900
C -14.430100 -18.800900 -17.886500
O -14.306900 -20.003400 -17.878400
O -13.978500 -18.044400 -18.863100
H -13.620800 -18.540700 -19.532200
8
Fragment
H -12.540900 -14.834700 -17.742600
H -12.218800 -16.266800 -18.084300
N -12.138100 -15.418500 -18.210200
C -11.452900 -14.975700 -19.259700
O -11.432500 -13.762300 -19.554700
N -10.811400 -15.884200 -19.992600
H -10.777300 -16.693200 -19.694000
H -10.393400 -15.600000 -20.656300
25
Fragment
H -17.896200 -18.540700 -11.942300
O -17.538400 -18.044400 -12.611400
O -17.210000 -20.003400 -13.596100
C -17.086800 -18.800900 -13.588000
H -17.068200 -17.460600 -15.082600
H -16.419600 -19.401000 -16.143700
C -16.415400 -18.012700 -14.667100
H -15.767100 -17.467100 -17.207600
C -15.758500 -18.852200 -15.737200
H -15.749900 -17.467100 -14.266900
C -15.101500 -18.012700 -16.807400
H -15.097300 -19.401000 -15.330800
H -14.448800 -17.460600 -16.391900
C -14.430100 -18.800900 -17.886500
O -14.306900 -20.003400 -17.878400
O -13.978500 -18.044400 -18.863100
H -13.620800 -18.540700 -19.532200
H -12.540900 -14.834700 -17.742600
H -12.218800 -16.266800 -18.084300
N -12.138100 -15.418500 -18.210200
C -11.452900 -14.975700 -19.259700
O -11.432500 -13.762300 -19.554700
N -10.811400 -15.884200 -19.992600
H -10.777300 -16.693200 -19.694000
H -10.393400 -15.600000 -20.656300
