17
Fragment
H -17.896200 -18.540700 -11.942300
O -17.538400 -18.044400 -12.611400
O -17.210000 -20.003400 -13.596100
C -17.086800 -18.800900 -13.588000
H -17.068200 -17.460600 -15.082600
H -16.419600 -19.401000 -16.143700
C -16.415400 -18.012700 -14.667100
H -15.767100 -17.467100 -17.207600
C -15.758500 -18.852200 -15.737200
H -15.749900 -17.467100 -14.266900
C -15.101500 -18.012700 -16.807400
H -15.097300 -19.401000 -15.330800
H -14.448800 -17.460600 -16.391900
C -14.430100 -18.800900 -17.886500
O -14.306900 -20.003400 -17.878400
O -13.978500 -18.044400 -18.863100
H -13.620800 -18.540700 -19.532200
8
Fragment
H -21.123500 -15.600000 -10.818200
H -20.739600 -16.693200 -11.780500
N -20.705500 -15.884200 -11.481900
O -20.084400 -13.762300 -11.919800
C -20.064000 -14.975700 -12.214800
N -19.378900 -15.418500 -13.264300
H -19.298100 -16.266800 -13.390200
H -18.976000 -14.834700 -13.731900
25
Fragment
H -17.896200 -18.540700 -11.942300
O -17.538400 -18.044400 -12.611400
O -17.210000 -20.003400 -13.596100
C -17.086800 -18.800900 -13.588000
H -17.068200 -17.460600 -15.082600
H -16.419600 -19.401000 -16.143700
C -16.415400 -18.012700 -14.667100
H -15.767100 -17.467100 -17.207600
C -15.758500 -18.852200 -15.737200
H -15.749900 -17.467100 -14.266900
C -15.101500 -18.012700 -16.807400
H -15.097300 -19.401000 -15.330800
H -14.448800 -17.460600 -16.391900
C -14.430100 -18.800900 -17.886500
O -14.306900 -20.003400 -17.878400
O -13.978500 -18.044400 -18.863100
H -13.620800 -18.540700 -19.532200
H -21.123500 -15.600000 -10.818200
H -20.739600 -16.693200 -11.780500
N -20.705500 -15.884200 -11.481900
O -20.084400 -13.762300 -11.919800
C -20.064000 -14.975700 -12.214800
N -19.378900 -15.418500 -13.264300
H -19.298100 -16.266800 -13.390200
H -18.976000 -14.834700 -13.731900
