17
Fragment
H -17.896200 -18.540700 -11.942300
O -17.538400 -18.044400 -12.611400
O -17.210000 -20.003400 -13.596100
C -17.086800 -18.800900 -13.588000
H -17.068200 -17.460600 -15.082600
H -16.419600 -19.401000 -16.143700
C -16.415400 -18.012700 -14.667100
H -15.767100 -17.467100 -17.207600
C -15.758500 -18.852200 -15.737200
H -15.749900 -17.467100 -14.266900
C -15.101500 -18.012700 -16.807400
H -15.097300 -19.401000 -15.330800
H -14.448800 -17.460600 -16.391900
C -14.430100 -18.800900 -17.886500
O -14.306900 -20.003400 -17.878400
O -13.978500 -18.044400 -18.863100
H -13.620800 -18.540700 -19.532200
8
Fragment
H -13.905100 -21.066000 -19.810900
H -13.521200 -22.159200 -20.773200
N -13.487100 -21.350200 -20.474600
O -12.866000 -19.228300 -20.912600
C -12.845600 -20.441700 -21.207500
N -12.160400 -20.884500 -22.257000
H -12.079700 -21.732800 -22.382900
H -11.757600 -20.300700 -22.724600
25
Fragment
H -17.896200 -18.540700 -11.942300
O -17.538400 -18.044400 -12.611400
O -17.210000 -20.003400 -13.596100
C -17.086800 -18.800900 -13.588000
H -17.068200 -17.460600 -15.082600
H -16.419600 -19.401000 -16.143700
C -16.415400 -18.012700 -14.667100
H -15.767100 -17.467100 -17.207600
C -15.758500 -18.852200 -15.737200
H -15.749900 -17.467100 -14.266900
C -15.101500 -18.012700 -16.807400
H -15.097300 -19.401000 -15.330800
H -14.448800 -17.460600 -16.391900
C -14.430100 -18.800900 -17.886500
O -14.306900 -20.003400 -17.878400
O -13.978500 -18.044400 -18.863100
H -13.620800 -18.540700 -19.532200
H -13.905100 -21.066000 -19.810900
H -13.521200 -22.159200 -20.773200
N -13.487100 -21.350200 -20.474600
O -12.866000 -19.228300 -20.912600
C -12.845600 -20.441700 -21.207500
N -12.160400 -20.884500 -22.257000
H -12.079700 -21.732800 -22.382900
H -11.757600 -20.300700 -22.724600
