17
Fragment
H -17.896200 -18.540700 -11.942300
O -17.538400 -18.044400 -12.611400
O -17.210000 -20.003400 -13.596100
C -17.086800 -18.800900 -13.588000
H -17.068200 -17.460600 -15.082600
H -16.419600 -19.401000 -16.143700
C -16.415400 -18.012700 -14.667100
H -15.767100 -17.467100 -17.207600
C -15.758500 -18.852200 -15.737200
H -15.749900 -17.467100 -14.266900
C -15.101500 -18.012700 -16.807400
H -15.097300 -19.401000 -15.330800
H -14.448800 -17.460600 -16.391900
C -14.430100 -18.800900 -17.886500
O -14.306900 -20.003400 -17.878400
O -13.978500 -18.044400 -18.863100
H -13.620800 -18.540700 -19.532200
17
Fragment
H -19.137600 -18.540700 -2.949600
O -18.779900 -18.044400 -3.618700
O -18.451500 -20.003400 -4.603400
C -18.328300 -18.800900 -4.595300
H -18.309600 -17.460600 -6.089900
H -17.661000 -19.401000 -7.151000
C -17.656900 -18.012700 -5.674400
H -17.008500 -17.467100 -8.214800
C -16.999900 -18.852200 -6.744500
H -16.991300 -17.467100 -5.274200
C -16.342900 -18.012700 -7.814700
H -16.338800 -19.401000 -6.338100
H -15.690200 -17.460600 -7.399200
C -15.671600 -18.800900 -8.893800
O -15.548400 -20.003400 -8.885700
O -15.220000 -18.044400 -9.870400
H -14.862200 -18.540700 -10.539500
34
Fragment
H -17.896200 -18.540700 -11.942300
O -17.538400 -18.044400 -12.611400
O -17.210000 -20.003400 -13.596100
C -17.086800 -18.800900 -13.588000
H -17.068200 -17.460600 -15.082600
H -16.419600 -19.401000 -16.143700
C -16.415400 -18.012700 -14.667100
H -15.767100 -17.467100 -17.207600
C -15.758500 -18.852200 -15.737200
H -15.749900 -17.467100 -14.266900
C -15.101500 -18.012700 -16.807400
H -15.097300 -19.401000 -15.330800
H -14.448800 -17.460600 -16.391900
C -14.430100 -18.800900 -17.886500
O -14.306900 -20.003400 -17.878400
O -13.978500 -18.044400 -18.863100
H -13.620800 -18.540700 -19.532200
H -19.137600 -18.540700 -2.949600
O -18.779900 -18.044400 -3.618700
O -18.451500 -20.003400 -4.603400
C -18.328300 -18.800900 -4.595300
H -18.309600 -17.460600 -6.089900
H -17.661000 -19.401000 -7.151000
C -17.656900 -18.012700 -5.674400
H -17.008500 -17.467100 -8.214800
C -16.999900 -18.852200 -6.744500
H -16.991300 -17.467100 -5.274200
C -16.342900 -18.012700 -7.814700
H -16.338800 -19.401000 -6.338100
H -15.690200 -17.460600 -7.399200
C -15.671600 -18.800900 -8.893800
O -15.548400 -20.003400 -8.885700
O -15.220000 -18.044400 -9.870400
H -14.862200 -18.540700 -10.539500
