17
Fragment
H -17.896200 -18.540700 -11.942300
O -17.538400 -18.044400 -12.611400
O -17.210000 -20.003400 -13.596100
C -17.086800 -18.800900 -13.588000
H -17.068200 -17.460600 -15.082600
H -16.419600 -19.401000 -16.143700
C -16.415400 -18.012700 -14.667100
H -15.767100 -17.467100 -17.207600
C -15.758500 -18.852200 -15.737200
H -15.749900 -17.467100 -14.266900
C -15.101500 -18.012700 -16.807400
H -15.097300 -19.401000 -15.330800
H -14.448800 -17.460600 -16.391900
C -14.430100 -18.800900 -17.886500
O -14.306900 -20.003400 -17.878400
O -13.978500 -18.044400 -18.863100
H -13.620800 -18.540700 -19.532200
8
Fragment
H -20.502800 -17.196000 -15.314600
H -20.118900 -16.102800 -16.276800
N -20.084800 -16.911800 -15.978300
O -19.463700 -19.033700 -16.416200
C -19.443300 -17.820300 -16.711200
N -18.758100 -17.377500 -17.760600
H -18.677400 -16.529200 -17.886500
H -18.355300 -17.961300 -18.228200
25
Fragment
H -17.896200 -18.540700 -11.942300
O -17.538400 -18.044400 -12.611400
O -17.210000 -20.003400 -13.596100
C -17.086800 -18.800900 -13.588000
H -17.068200 -17.460600 -15.082600
H -16.419600 -19.401000 -16.143700
C -16.415400 -18.012700 -14.667100
H -15.767100 -17.467100 -17.207600
C -15.758500 -18.852200 -15.737200
H -15.749900 -17.467100 -14.266900
C -15.101500 -18.012700 -16.807400
H -15.097300 -19.401000 -15.330800
H -14.448800 -17.460600 -16.391900
C -14.430100 -18.800900 -17.886500
O -14.306900 -20.003400 -17.878400
O -13.978500 -18.044400 -18.863100
H -13.620800 -18.540700 -19.532200
H -20.502800 -17.196000 -15.314600
H -20.118900 -16.102800 -16.276800
N -20.084800 -16.911800 -15.978300
O -19.463700 -19.033700 -16.416200
C -19.443300 -17.820300 -16.711200
N -18.758100 -17.377500 -17.760600
H -18.677400 -16.529200 -17.886500
H -18.355300 -17.961300 -18.228200
