17
Fragment
H -17.896200 -18.540700 -11.942300
O -17.538400 -18.044400 -12.611400
O -17.210000 -20.003400 -13.596100
C -17.086800 -18.800900 -13.588000
H -17.068200 -17.460600 -15.082600
H -16.419600 -19.401000 -16.143700
C -16.415400 -18.012700 -14.667100
H -15.767100 -17.467100 -17.207600
C -15.758500 -18.852200 -15.737200
H -15.749900 -17.467100 -14.266900
C -15.101500 -18.012700 -16.807400
H -15.097300 -19.401000 -15.330800
H -14.448800 -17.460600 -16.391900
C -14.430100 -18.800900 -17.886500
O -14.306900 -20.003400 -17.878400
O -13.978500 -18.044400 -18.863100
H -13.620800 -18.540700 -19.532200
17
Fragment
H -24.493900 -19.721300 -7.446000
O -24.136100 -20.217600 -8.115000
O -23.807700 -18.258600 -9.099700
C -23.684500 -19.461100 -9.091600
H -23.665900 -20.801400 -10.586200
H -23.017300 -18.861000 -11.647400
C -23.013200 -20.249300 -10.170800
H -22.364800 -20.794900 -12.711200
C -22.356200 -19.409800 -11.240900
H -22.347600 -20.794900 -9.770600
C -21.699200 -20.249300 -12.311000
H -21.695100 -18.861000 -10.834400
H -21.046500 -20.801400 -11.895600
C -21.027900 -19.461100 -13.390200
O -20.904700 -18.258600 -13.382100
O -20.576300 -20.217600 -14.366800
H -20.218500 -19.721300 -15.035800
34
Fragment
H -17.896200 -18.540700 -11.942300
O -17.538400 -18.044400 -12.611400
O -17.210000 -20.003400 -13.596100
C -17.086800 -18.800900 -13.588000
H -17.068200 -17.460600 -15.082600
H -16.419600 -19.401000 -16.143700
C -16.415400 -18.012700 -14.667100
H -15.767100 -17.467100 -17.207600
C -15.758500 -18.852200 -15.737200
H -15.749900 -17.467100 -14.266900
C -15.101500 -18.012700 -16.807400
H -15.097300 -19.401000 -15.330800
H -14.448800 -17.460600 -16.391900
C -14.430100 -18.800900 -17.886500
O -14.306900 -20.003400 -17.878400
O -13.978500 -18.044400 -18.863100
H -13.620800 -18.540700 -19.532200
H -24.493900 -19.721300 -7.446000
O -24.136100 -20.217600 -8.115000
O -23.807700 -18.258600 -9.099700
C -23.684500 -19.461100 -9.091600
H -23.665900 -20.801400 -10.586200
H -23.017300 -18.861000 -11.647400
C -23.013200 -20.249300 -10.170800
H -22.364800 -20.794900 -12.711200
C -22.356200 -19.409800 -11.240900
H -22.347600 -20.794900 -9.770600
C -21.699200 -20.249300 -12.311000
H -21.695100 -18.861000 -10.834400
H -21.046500 -20.801400 -11.895600
C -21.027900 -19.461100 -13.390200
O -20.904700 -18.258600 -13.382100
O -20.576300 -20.217600 -14.366800
H -20.218500 -19.721300 -15.035800
