42
Fragment
H -24.427700 -13.618000 -28.926200
C -23.573400 -13.181900 -28.944000
H -23.531700 -12.590400 -29.698600
H -23.453800 -12.678700 -28.135900
O -22.960900 -14.456300 -31.243700
H -22.960600 -17.197600 -31.728300
H -22.867700 -18.003300 -33.880200
N -22.517200 -14.185000 -29.053400
C -22.287500 -14.801400 -30.268900
C -22.183200 -17.088900 -32.225900
C -22.132500 -17.564400 -33.517900
N -21.831800 -14.426600 -27.933800
C -21.238900 -15.819300 -30.305400
C -21.084900 -16.444900 -31.650400
C -20.989600 -17.389900 -34.273400
H -20.965100 -17.680600 -35.155500
C -20.875700 -15.302000 -27.986600
C -20.501700 -16.055200 -29.154900
H -20.393500 -15.455400 -27.207200
C -19.913900 -16.321100 -32.398700
C -19.887000 -16.782400 -33.715100
H -19.674600 -17.680800 -27.153400
H -19.557800 -18.142600 -30.594900
N -19.427200 -16.902000 -29.007600
H -19.113700 -16.678900 -34.221500
C -18.949000 -17.303600 -27.675200
H -18.918700 -15.066300 -31.135600
C -18.840500 -17.745200 -30.057800
C -18.675900 -15.773100 -31.754000
H -18.615900 -19.668600 -29.294400
H -18.590000 -16.537700 -27.198300
H -18.100000 -15.390100 -32.434200
C -18.091100 -18.852700 -29.310300
H -17.953500 -19.047000 -27.257500
C -17.901900 -16.890900 -30.987600
C -17.878700 -18.327400 -27.904000
C -17.301400 -17.825400 -31.974000
H -17.240600 -19.036900 -29.738100
H -17.000200 -17.925000 -27.821600
N -16.925600 -18.557100 -32.758800
C -16.842100 -16.286300 -30.156800
N -16.111400 -15.806900 -29.437200
42
Fragment
N -20.169100 -24.721900 -24.449200
C -19.438400 -24.242500 -23.729600
N -19.355000 -21.971700 -21.127600
H -19.280300 -22.603900 -26.064900
H -19.039900 -21.491900 -24.148300
C -18.979200 -22.703400 -21.912400
C -18.401800 -22.201400 -25.982400
C -18.378600 -23.637900 -22.898800
H -18.327000 -21.481900 -26.628900
C -18.189400 -21.676100 -24.576200
H -18.180500 -25.138700 -21.452200
H -17.690500 -23.991100 -26.688100
H -17.664600 -20.860200 -24.592000
C -17.604600 -24.755700 -22.132400
C -17.440000 -22.783600 -23.828600
H -17.361900 -25.462600 -22.750800
C -17.331500 -23.225200 -26.211200
H -17.166800 -23.849900 -19.664900
N -16.853400 -23.626800 -24.878800
H -16.722700 -22.386200 -23.291500
H -16.606000 -22.848000 -26.733000
C -16.393500 -23.746400 -20.171300
C -16.366700 -24.207800 -21.487700
H -15.887000 -25.073500 -26.679200
C -15.778900 -24.473600 -24.731500
C -15.404900 -25.226800 -25.899800
H -15.315400 -22.848200 -18.730900
C -15.290900 -23.139000 -19.613000
C -15.195600 -24.084000 -22.236000
C -15.041700 -24.709500 -23.581100
N -14.448700 -26.102200 -25.952600
C -14.148100 -22.964500 -20.368500
C -14.097300 -23.439900 -21.660500
C -13.993000 -25.727400 -23.617500
N -13.763300 -26.343800 -24.833000
H -13.412800 -22.525500 -20.006200
H -13.320000 -23.331200 -22.158100
O -13.319600 -26.072500 -22.642700
H -12.826700 -27.850100 -25.750500
H -12.748800 -27.938500 -24.187800
C -12.707100 -27.346900 -24.942400
H -11.852800 -26.910900 -24.960200
84
Fragment
H -24.427700 -13.618000 -28.926200
C -23.573400 -13.181900 -28.944000
H -23.531700 -12.590400 -29.698600
H -23.453800 -12.678700 -28.135900
O -22.960900 -14.456300 -31.243700
H -22.960600 -17.197600 -31.728300
H -22.867700 -18.003300 -33.880200
N -22.517200 -14.185000 -29.053400
C -22.287500 -14.801400 -30.268900
C -22.183200 -17.088900 -32.225900
C -22.132500 -17.564400 -33.517900
N -21.831800 -14.426600 -27.933800
C -21.238900 -15.819300 -30.305400
C -21.084900 -16.444900 -31.650400
C -20.989600 -17.389900 -34.273400
H -20.965100 -17.680600 -35.155500
C -20.875700 -15.302000 -27.986600
C -20.501700 -16.055200 -29.154900
H -20.393500 -15.455400 -27.207200
C -19.913900 -16.321100 -32.398700
C -19.887000 -16.782400 -33.715100
H -19.674600 -17.680800 -27.153400
H -19.557800 -18.142600 -30.594900
N -19.427200 -16.902000 -29.007600
H -19.113700 -16.678900 -34.221500
C -18.949000 -17.303600 -27.675200
H -18.918700 -15.066300 -31.135600
C -18.840500 -17.745200 -30.057800
C -18.675900 -15.773100 -31.754000
H -18.615900 -19.668600 -29.294400
H -18.590000 -16.537700 -27.198300
H -18.100000 -15.390100 -32.434200
C -18.091100 -18.852700 -29.310300
H -17.953500 -19.047000 -27.257500
C -17.901900 -16.890900 -30.987600
C -17.878700 -18.327400 -27.904000
C -17.301400 -17.825400 -31.974000
H -17.240600 -19.036900 -29.738100
H -17.000200 -17.925000 -27.821600
N -16.925600 -18.557100 -32.758800
C -16.842100 -16.286300 -30.156800
N -16.111400 -15.806900 -29.437200
N -20.169100 -24.721900 -24.449200
C -19.438400 -24.242500 -23.729600
N -19.355000 -21.971700 -21.127600
H -19.280300 -22.603900 -26.064900
H -19.039900 -21.491900 -24.148300
C -18.979200 -22.703400 -21.912400
C -18.401800 -22.201400 -25.982400
C -18.378600 -23.637900 -22.898800
H -18.327000 -21.481900 -26.628900
C -18.189400 -21.676100 -24.576200
H -18.180500 -25.138700 -21.452200
H -17.690500 -23.991100 -26.688100
H -17.664600 -20.860200 -24.592000
C -17.604600 -24.755700 -22.132400
C -17.440000 -22.783600 -23.828600
H -17.361900 -25.462600 -22.750800
C -17.331500 -23.225200 -26.211200
H -17.166800 -23.849900 -19.664900
N -16.853400 -23.626800 -24.878800
H -16.722700 -22.386200 -23.291500
H -16.606000 -22.848000 -26.733000
C -16.393500 -23.746400 -20.171300
C -16.366700 -24.207800 -21.487700
H -15.887000 -25.073500 -26.679200
C -15.778900 -24.473600 -24.731500
C -15.404900 -25.226800 -25.899800
H -15.315400 -22.848200 -18.730900
C -15.290900 -23.139000 -19.613000
C -15.195600 -24.084000 -22.236000
C -15.041700 -24.709500 -23.581100
N -14.448700 -26.102200 -25.952600
C -14.148100 -22.964500 -20.368500
C -14.097300 -23.439900 -21.660500
C -13.993000 -25.727400 -23.617500
N -13.763300 -26.343800 -24.833000
H -13.412800 -22.525500 -20.006200
H -13.320000 -23.331200 -22.158100
O -13.319600 -26.072500 -22.642700
H -12.826700 -27.850100 -25.750500
H -12.748800 -27.938500 -24.187800
C -12.707100 -27.346900 -24.942400
H -11.852800 -26.910900 -24.960200
