42
Fragment
H -24.427700 -13.618000 -28.926200
C -23.573400 -13.181900 -28.944000
H -23.531700 -12.590400 -29.698600
H -23.453800 -12.678700 -28.135900
O -22.960900 -14.456300 -31.243700
H -22.960600 -17.197600 -31.728300
H -22.867700 -18.003300 -33.880200
N -22.517200 -14.185000 -29.053400
C -22.287500 -14.801400 -30.268900
C -22.183200 -17.088900 -32.225900
C -22.132500 -17.564400 -33.517900
N -21.831800 -14.426600 -27.933800
C -21.238900 -15.819300 -30.305400
C -21.084900 -16.444900 -31.650400
C -20.989600 -17.389900 -34.273400
H -20.965100 -17.680600 -35.155500
C -20.875700 -15.302000 -27.986600
C -20.501700 -16.055200 -29.154900
H -20.393500 -15.455400 -27.207200
C -19.913900 -16.321100 -32.398700
C -19.887000 -16.782400 -33.715100
H -19.674600 -17.680800 -27.153400
H -19.557800 -18.142600 -30.594900
N -19.427200 -16.902000 -29.007600
H -19.113700 -16.678900 -34.221500
C -18.949000 -17.303600 -27.675200
H -18.918700 -15.066300 -31.135600
C -18.840500 -17.745200 -30.057800
C -18.675900 -15.773100 -31.754000
H -18.615900 -19.668600 -29.294400
H -18.590000 -16.537700 -27.198300
H -18.100000 -15.390100 -32.434200
C -18.091100 -18.852700 -29.310300
H -17.953500 -19.047000 -27.257500
C -17.901900 -16.890900 -30.987600
C -17.878700 -18.327400 -27.904000
C -17.301400 -17.825400 -31.974000
H -17.240600 -19.036900 -29.738100
H -17.000200 -17.925000 -27.821600
N -16.925600 -18.557100 -32.758800
C -16.842100 -16.286300 -30.156800
N -16.111400 -15.806900 -29.437200
42
Fragment
H -14.699700 -13.618000 -28.926200
C -13.845400 -13.181900 -28.944000
H -13.803700 -12.590400 -29.698600
H -13.725800 -12.678700 -28.135900
O -13.232900 -14.456300 -31.243700
H -13.232600 -17.197600 -31.728300
H -13.139700 -18.003300 -33.880200
N -12.789200 -14.185000 -29.053400
C -12.559500 -14.801400 -30.268900
C -12.455200 -17.088900 -32.225900
C -12.404500 -17.564400 -33.517900
N -12.103800 -14.426600 -27.933800
C -11.510900 -15.819300 -30.305400
C -11.356900 -16.444900 -31.650400
C -11.261600 -17.389900 -34.273400
H -11.237100 -17.680600 -35.155500
C -11.147700 -15.302000 -27.986600
C -10.773700 -16.055200 -29.154900
H -10.665500 -15.455400 -27.207200
C -10.185900 -16.321100 -32.398700
C -10.159000 -16.782400 -33.715100
H -9.946600 -17.680800 -27.153400
H -9.829800 -18.142600 -30.594900
N -9.699200 -16.902000 -29.007600
H -9.385700 -16.678900 -34.221500
C -9.221000 -17.303600 -27.675200
H -9.190700 -15.066300 -31.135600
C -9.112500 -17.745200 -30.057800
C -8.947900 -15.773100 -31.754000
H -8.887900 -19.668600 -29.294400
H -8.862000 -16.537700 -27.198300
H -8.372000 -15.390100 -32.434200
C -8.363100 -18.852700 -29.310300
H -8.225500 -19.047000 -27.257500
C -8.173900 -16.890900 -30.987600
C -8.150700 -18.327400 -27.904000
C -7.573400 -17.825400 -31.974000
H -7.512600 -19.036900 -29.738100
H -7.272200 -17.925000 -27.821600
N -7.197600 -18.557100 -32.758800
C -7.114100 -16.286300 -30.156800
N -6.383400 -15.806900 -29.437200
84
Fragment
H -24.427700 -13.618000 -28.926200
C -23.573400 -13.181900 -28.944000
H -23.531700 -12.590400 -29.698600
H -23.453800 -12.678700 -28.135900
O -22.960900 -14.456300 -31.243700
H -22.960600 -17.197600 -31.728300
H -22.867700 -18.003300 -33.880200
N -22.517200 -14.185000 -29.053400
C -22.287500 -14.801400 -30.268900
C -22.183200 -17.088900 -32.225900
C -22.132500 -17.564400 -33.517900
N -21.831800 -14.426600 -27.933800
C -21.238900 -15.819300 -30.305400
C -21.084900 -16.444900 -31.650400
C -20.989600 -17.389900 -34.273400
H -20.965100 -17.680600 -35.155500
C -20.875700 -15.302000 -27.986600
C -20.501700 -16.055200 -29.154900
H -20.393500 -15.455400 -27.207200
C -19.913900 -16.321100 -32.398700
C -19.887000 -16.782400 -33.715100
H -19.674600 -17.680800 -27.153400
H -19.557800 -18.142600 -30.594900
N -19.427200 -16.902000 -29.007600
H -19.113700 -16.678900 -34.221500
C -18.949000 -17.303600 -27.675200
H -18.918700 -15.066300 -31.135600
C -18.840500 -17.745200 -30.057800
C -18.675900 -15.773100 -31.754000
H -18.615900 -19.668600 -29.294400
H -18.590000 -16.537700 -27.198300
H -18.100000 -15.390100 -32.434200
C -18.091100 -18.852700 -29.310300
H -17.953500 -19.047000 -27.257500
C -17.901900 -16.890900 -30.987600
C -17.878700 -18.327400 -27.904000
C -17.301400 -17.825400 -31.974000
H -17.240600 -19.036900 -29.738100
H -17.000200 -17.925000 -27.821600
N -16.925600 -18.557100 -32.758800
C -16.842100 -16.286300 -30.156800
N -16.111400 -15.806900 -29.437200
H -14.699700 -13.618000 -28.926200
C -13.845400 -13.181900 -28.944000
H -13.803700 -12.590400 -29.698600
H -13.725800 -12.678700 -28.135900
O -13.232900 -14.456300 -31.243700
H -13.232600 -17.197600 -31.728300
H -13.139700 -18.003300 -33.880200
N -12.789200 -14.185000 -29.053400
C -12.559500 -14.801400 -30.268900
C -12.455200 -17.088900 -32.225900
C -12.404500 -17.564400 -33.517900
N -12.103800 -14.426600 -27.933800
C -11.510900 -15.819300 -30.305400
C -11.356900 -16.444900 -31.650400
C -11.261600 -17.389900 -34.273400
H -11.237100 -17.680600 -35.155500
C -11.147700 -15.302000 -27.986600
C -10.773700 -16.055200 -29.154900
H -10.665500 -15.455400 -27.207200
C -10.185900 -16.321100 -32.398700
C -10.159000 -16.782400 -33.715100
H -9.946600 -17.680800 -27.153400
H -9.829800 -18.142600 -30.594900
N -9.699200 -16.902000 -29.007600
H -9.385700 -16.678900 -34.221500
C -9.221000 -17.303600 -27.675200
H -9.190700 -15.066300 -31.135600
C -9.112500 -17.745200 -30.057800
C -8.947900 -15.773100 -31.754000
H -8.887900 -19.668600 -29.294400
H -8.862000 -16.537700 -27.198300
H -8.372000 -15.390100 -32.434200
C -8.363100 -18.852700 -29.310300
H -8.225500 -19.047000 -27.257500
C -8.173900 -16.890900 -30.987600
C -8.150700 -18.327400 -27.904000
C -7.573400 -17.825400 -31.974000
H -7.512600 -19.036900 -29.738100
H -7.272200 -17.925000 -27.821600
N -7.197600 -18.557100 -32.758800
C -7.114100 -16.286300 -30.156800
N -6.383400 -15.806900 -29.437200
