42
Fragment
H -24.427700 -13.618000 -28.926200
C -23.573400 -13.181900 -28.944000
H -23.531700 -12.590400 -29.698600
H -23.453800 -12.678700 -28.135900
O -22.960900 -14.456300 -31.243700
H -22.960600 -17.197600 -31.728300
H -22.867700 -18.003300 -33.880200
N -22.517200 -14.185000 -29.053400
C -22.287500 -14.801400 -30.268900
C -22.183200 -17.088900 -32.225900
C -22.132500 -17.564400 -33.517900
N -21.831800 -14.426600 -27.933800
C -21.238900 -15.819300 -30.305400
C -21.084900 -16.444900 -31.650400
C -20.989600 -17.389900 -34.273400
H -20.965100 -17.680600 -35.155500
C -20.875700 -15.302000 -27.986600
C -20.501700 -16.055200 -29.154900
H -20.393500 -15.455400 -27.207200
C -19.913900 -16.321100 -32.398700
C -19.887000 -16.782400 -33.715100
H -19.674600 -17.680800 -27.153400
H -19.557800 -18.142600 -30.594900
N -19.427200 -16.902000 -29.007600
H -19.113700 -16.678900 -34.221500
C -18.949000 -17.303600 -27.675200
H -18.918700 -15.066300 -31.135600
C -18.840500 -17.745200 -30.057800
C -18.675900 -15.773100 -31.754000
H -18.615900 -19.668600 -29.294400
H -18.590000 -16.537700 -27.198300
H -18.100000 -15.390100 -32.434200
C -18.091100 -18.852700 -29.310300
H -17.953500 -19.047000 -27.257500
C -17.901900 -16.890900 -30.987600
C -17.878700 -18.327400 -27.904000
C -17.301400 -17.825400 -31.974000
H -17.240600 -19.036900 -29.738100
H -17.000200 -17.925000 -27.821600
N -16.925600 -18.557100 -32.758800
C -16.842100 -16.286300 -30.156800
N -16.111400 -15.806900 -29.437200
42
Fragment
H -33.861700 -10.371300 -32.146800
H -33.858200 -12.261700 -33.273100
H -33.574500 -8.247300 -28.509500
H -33.491700 -13.331200 -35.214800
H -33.487100 -10.997700 -34.140600
N -33.428300 -9.631700 -30.439200
C -33.185200 -10.324700 -31.510100
C -33.162200 -11.849600 -33.808200
H -32.858800 -9.291600 -27.584500
C -32.759100 -8.729900 -28.356800
C -32.757700 -12.753900 -34.952500
H -32.474100 -12.236200 -35.721300
N -32.454900 -9.561500 -29.531500
H -32.041600 -8.109500 -28.211300
C -31.960200 -11.028000 -31.800000
H -31.929400 -14.343200 -33.907100
N -31.929200 -11.666900 -33.016200
C -31.603500 -13.565600 -34.387300
C -31.215800 -10.153500 -29.637000
H -31.009400 -13.859700 -35.094400
C -30.968000 -10.960300 -30.836300
C -30.888300 -12.603700 -33.441400
H -30.559000 -13.099700 -32.662300
O -30.403400 -9.973800 -28.732600
N -30.351000 -10.544400 -36.280800
C -30.086200 -11.149000 -35.351600
H -29.824700 -12.481200 -29.026800
H -29.721200 -10.093200 -32.985700
C -29.693800 -11.847700 -34.118200
C -29.614400 -11.607400 -30.841000
C -29.221200 -12.350200 -29.721800
C -29.074900 -10.795500 -33.159900
C -28.706100 -12.889700 -34.482300
C -28.677400 -11.447600 -31.865900
H -28.296400 -10.393100 -33.576600
N -27.990500 -13.745500 -34.725800
C -27.958100 -12.891000 -29.628700
H -27.726100 -13.390700 -28.879500
C -27.406500 -11.981900 -31.745700
C -27.034900 -12.699300 -30.631400
H -26.790600 -11.853600 -32.430600
H -26.176200 -13.048800 -30.557200
84
Fragment
H -24.427700 -13.618000 -28.926200
C -23.573400 -13.181900 -28.944000
H -23.531700 -12.590400 -29.698600
H -23.453800 -12.678700 -28.135900
O -22.960900 -14.456300 -31.243700
H -22.960600 -17.197600 -31.728300
H -22.867700 -18.003300 -33.880200
N -22.517200 -14.185000 -29.053400
C -22.287500 -14.801400 -30.268900
C -22.183200 -17.088900 -32.225900
C -22.132500 -17.564400 -33.517900
N -21.831800 -14.426600 -27.933800
C -21.238900 -15.819300 -30.305400
C -21.084900 -16.444900 -31.650400
C -20.989600 -17.389900 -34.273400
H -20.965100 -17.680600 -35.155500
C -20.875700 -15.302000 -27.986600
C -20.501700 -16.055200 -29.154900
H -20.393500 -15.455400 -27.207200
C -19.913900 -16.321100 -32.398700
C -19.887000 -16.782400 -33.715100
H -19.674600 -17.680800 -27.153400
H -19.557800 -18.142600 -30.594900
N -19.427200 -16.902000 -29.007600
H -19.113700 -16.678900 -34.221500
C -18.949000 -17.303600 -27.675200
H -18.918700 -15.066300 -31.135600
C -18.840500 -17.745200 -30.057800
C -18.675900 -15.773100 -31.754000
H -18.615900 -19.668600 -29.294400
H -18.590000 -16.537700 -27.198300
H -18.100000 -15.390100 -32.434200
C -18.091100 -18.852700 -29.310300
H -17.953500 -19.047000 -27.257500
C -17.901900 -16.890900 -30.987600
C -17.878700 -18.327400 -27.904000
C -17.301400 -17.825400 -31.974000
H -17.240600 -19.036900 -29.738100
H -17.000200 -17.925000 -27.821600
N -16.925600 -18.557100 -32.758800
C -16.842100 -16.286300 -30.156800
N -16.111400 -15.806900 -29.437200
H -33.861700 -10.371300 -32.146800
H -33.858200 -12.261700 -33.273100
H -33.574500 -8.247300 -28.509500
H -33.491700 -13.331200 -35.214800
H -33.487100 -10.997700 -34.140600
N -33.428300 -9.631700 -30.439200
C -33.185200 -10.324700 -31.510100
C -33.162200 -11.849600 -33.808200
H -32.858800 -9.291600 -27.584500
C -32.759100 -8.729900 -28.356800
C -32.757700 -12.753900 -34.952500
H -32.474100 -12.236200 -35.721300
N -32.454900 -9.561500 -29.531500
H -32.041600 -8.109500 -28.211300
C -31.960200 -11.028000 -31.800000
H -31.929400 -14.343200 -33.907100
N -31.929200 -11.666900 -33.016200
C -31.603500 -13.565600 -34.387300
C -31.215800 -10.153500 -29.637000
H -31.009400 -13.859700 -35.094400
C -30.968000 -10.960300 -30.836300
C -30.888300 -12.603700 -33.441400
H -30.559000 -13.099700 -32.662300
O -30.403400 -9.973800 -28.732600
N -30.351000 -10.544400 -36.280800
C -30.086200 -11.149000 -35.351600
H -29.824700 -12.481200 -29.026800
H -29.721200 -10.093200 -32.985700
C -29.693800 -11.847700 -34.118200
C -29.614400 -11.607400 -30.841000
C -29.221200 -12.350200 -29.721800
C -29.074900 -10.795500 -33.159900
C -28.706100 -12.889700 -34.482300
C -28.677400 -11.447600 -31.865900
H -28.296400 -10.393100 -33.576600
N -27.990500 -13.745500 -34.725800
C -27.958100 -12.891000 -29.628700
H -27.726100 -13.390700 -28.879500
C -27.406500 -11.981900 -31.745700
C -27.034900 -12.699300 -30.631400
H -26.790600 -11.853600 -32.430600
H -26.176200 -13.048800 -30.557200
