42
Fragment
H -24.427700 -13.618000 -28.926200
C -23.573400 -13.181900 -28.944000
H -23.531700 -12.590400 -29.698600
H -23.453800 -12.678700 -28.135900
O -22.960900 -14.456300 -31.243700
H -22.960600 -17.197600 -31.728300
H -22.867700 -18.003300 -33.880200
N -22.517200 -14.185000 -29.053400
C -22.287500 -14.801400 -30.268900
C -22.183200 -17.088900 -32.225900
C -22.132500 -17.564400 -33.517900
N -21.831800 -14.426600 -27.933800
C -21.238900 -15.819300 -30.305400
C -21.084900 -16.444900 -31.650400
C -20.989600 -17.389900 -34.273400
H -20.965100 -17.680600 -35.155500
C -20.875700 -15.302000 -27.986600
C -20.501700 -16.055200 -29.154900
H -20.393500 -15.455400 -27.207200
C -19.913900 -16.321100 -32.398700
C -19.887000 -16.782400 -33.715100
H -19.674600 -17.680800 -27.153400
H -19.557800 -18.142600 -30.594900
N -19.427200 -16.902000 -29.007600
H -19.113700 -16.678900 -34.221500
C -18.949000 -17.303600 -27.675200
H -18.918700 -15.066300 -31.135600
C -18.840500 -17.745200 -30.057800
C -18.675900 -15.773100 -31.754000
H -18.615900 -19.668600 -29.294400
H -18.590000 -16.537700 -27.198300
H -18.100000 -15.390100 -32.434200
C -18.091100 -18.852700 -29.310300
H -17.953500 -19.047000 -27.257500
C -17.901900 -16.890900 -30.987600
C -17.878700 -18.327400 -27.904000
C -17.301400 -17.825400 -31.974000
H -17.240600 -19.036900 -29.738100
H -17.000200 -17.925000 -27.821600
N -16.925600 -18.557100 -32.758800
C -16.842100 -16.286300 -30.156800
N -16.111400 -15.806900 -29.437200
42
Fragment
H -19.331400 -17.691800 -23.329200
H -18.716900 -18.887100 -21.455800
C -18.472700 -18.041300 -23.255000
C -18.101000 -18.758700 -22.140700
H -17.781400 -17.350000 -25.006900
C -17.549400 -17.849600 -24.257700
N -17.517100 -16.995100 -19.160600
H -17.211100 -20.347600 -20.309800
C -16.830200 -19.293000 -22.020500
C -16.801400 -17.851000 -19.404100
C -16.432600 -19.945100 -20.726500
C -16.286300 -18.390500 -24.164600
C -15.893100 -19.133200 -23.045400
C -15.813800 -18.892900 -19.768200
H -15.786300 -20.647500 -20.900700
H -15.682900 -18.259400 -24.859600
C -15.421300 -19.591600 -18.534800
N -15.156500 -20.196300 -17.605600
O -15.104200 -20.766900 -25.153800
H -14.948600 -17.641000 -21.224100
C -14.619200 -18.136900 -20.445000
C -14.539500 -19.780300 -23.050100
H -14.498200 -16.881000 -18.792000
C -14.291800 -20.587100 -24.249400
C -13.904000 -17.175100 -19.499200
N -13.578300 -19.073700 -20.870200
H -13.578200 -16.397400 -19.979300
C -13.547300 -19.712600 -22.086400
H -13.466000 -22.631100 -25.675100
N -13.052700 -21.179100 -24.354900
H -13.033500 -18.504500 -18.165100
C -12.749800 -17.986700 -18.933900
C -12.748500 -22.010700 -25.529600
H -12.648700 -21.449000 -26.302000
C -12.345300 -18.891000 -20.078300
C -12.322400 -20.416000 -22.376300
N -12.079200 -21.108900 -23.447200
H -12.020400 -19.742900 -19.745800
H -12.015800 -17.409400 -18.671600
H -11.933000 -22.493300 -25.376900
H -11.649400 -18.478900 -20.613300
H -11.645800 -20.369400 -21.739600
84
Fragment
H -24.427700 -13.618000 -28.926200
C -23.573400 -13.181900 -28.944000
H -23.531700 -12.590400 -29.698600
H -23.453800 -12.678700 -28.135900
O -22.960900 -14.456300 -31.243700
H -22.960600 -17.197600 -31.728300
H -22.867700 -18.003300 -33.880200
N -22.517200 -14.185000 -29.053400
C -22.287500 -14.801400 -30.268900
C -22.183200 -17.088900 -32.225900
C -22.132500 -17.564400 -33.517900
N -21.831800 -14.426600 -27.933800
C -21.238900 -15.819300 -30.305400
C -21.084900 -16.444900 -31.650400
C -20.989600 -17.389900 -34.273400
H -20.965100 -17.680600 -35.155500
C -20.875700 -15.302000 -27.986600
C -20.501700 -16.055200 -29.154900
H -20.393500 -15.455400 -27.207200
C -19.913900 -16.321100 -32.398700
C -19.887000 -16.782400 -33.715100
H -19.674600 -17.680800 -27.153400
H -19.557800 -18.142600 -30.594900
N -19.427200 -16.902000 -29.007600
H -19.113700 -16.678900 -34.221500
C -18.949000 -17.303600 -27.675200
H -18.918700 -15.066300 -31.135600
C -18.840500 -17.745200 -30.057800
C -18.675900 -15.773100 -31.754000
H -18.615900 -19.668600 -29.294400
H -18.590000 -16.537700 -27.198300
H -18.100000 -15.390100 -32.434200
C -18.091100 -18.852700 -29.310300
H -17.953500 -19.047000 -27.257500
C -17.901900 -16.890900 -30.987600
C -17.878700 -18.327400 -27.904000
C -17.301400 -17.825400 -31.974000
H -17.240600 -19.036900 -29.738100
H -17.000200 -17.925000 -27.821600
N -16.925600 -18.557100 -32.758800
C -16.842100 -16.286300 -30.156800
N -16.111400 -15.806900 -29.437200
H -19.331400 -17.691800 -23.329200
H -18.716900 -18.887100 -21.455800
C -18.472700 -18.041300 -23.255000
C -18.101000 -18.758700 -22.140700
H -17.781400 -17.350000 -25.006900
C -17.549400 -17.849600 -24.257700
N -17.517100 -16.995100 -19.160600
H -17.211100 -20.347600 -20.309800
C -16.830200 -19.293000 -22.020500
C -16.801400 -17.851000 -19.404100
C -16.432600 -19.945100 -20.726500
C -16.286300 -18.390500 -24.164600
C -15.893100 -19.133200 -23.045400
C -15.813800 -18.892900 -19.768200
H -15.786300 -20.647500 -20.900700
H -15.682900 -18.259400 -24.859600
C -15.421300 -19.591600 -18.534800
N -15.156500 -20.196300 -17.605600
O -15.104200 -20.766900 -25.153800
H -14.948600 -17.641000 -21.224100
C -14.619200 -18.136900 -20.445000
C -14.539500 -19.780300 -23.050100
H -14.498200 -16.881000 -18.792000
C -14.291800 -20.587100 -24.249400
C -13.904000 -17.175100 -19.499200
N -13.578300 -19.073700 -20.870200
H -13.578200 -16.397400 -19.979300
C -13.547300 -19.712600 -22.086400
H -13.466000 -22.631100 -25.675100
N -13.052700 -21.179100 -24.354900
H -13.033500 -18.504500 -18.165100
C -12.749800 -17.986700 -18.933900
C -12.748500 -22.010700 -25.529600
H -12.648700 -21.449000 -26.302000
C -12.345300 -18.891000 -20.078300
C -12.322400 -20.416000 -22.376300
N -12.079200 -21.108900 -23.447200
H -12.020400 -19.742900 -19.745800
H -12.015800 -17.409400 -18.671600
H -11.933000 -22.493300 -25.376900
H -11.649400 -18.478900 -20.613300
H -11.645800 -20.369400 -21.739600
