42
Fragment
H -24.427700 -13.618000 -28.926200
C -23.573400 -13.181900 -28.944000
H -23.531700 -12.590400 -29.698600
H -23.453800 -12.678700 -28.135900
O -22.960900 -14.456300 -31.243700
H -22.960600 -17.197600 -31.728300
H -22.867700 -18.003300 -33.880200
N -22.517200 -14.185000 -29.053400
C -22.287500 -14.801400 -30.268900
C -22.183200 -17.088900 -32.225900
C -22.132500 -17.564400 -33.517900
N -21.831800 -14.426600 -27.933800
C -21.238900 -15.819300 -30.305400
C -21.084900 -16.444900 -31.650400
C -20.989600 -17.389900 -34.273400
H -20.965100 -17.680600 -35.155500
C -20.875700 -15.302000 -27.986600
C -20.501700 -16.055200 -29.154900
H -20.393500 -15.455400 -27.207200
C -19.913900 -16.321100 -32.398700
C -19.887000 -16.782400 -33.715100
H -19.674600 -17.680800 -27.153400
H -19.557800 -18.142600 -30.594900
N -19.427200 -16.902000 -29.007600
H -19.113700 -16.678900 -34.221500
C -18.949000 -17.303600 -27.675200
H -18.918700 -15.066300 -31.135600
C -18.840500 -17.745200 -30.057800
C -18.675900 -15.773100 -31.754000
H -18.615900 -19.668600 -29.294400
H -18.590000 -16.537700 -27.198300
H -18.100000 -15.390100 -32.434200
C -18.091100 -18.852700 -29.310300
H -17.953500 -19.047000 -27.257500
C -17.901900 -16.890900 -30.987600
C -17.878700 -18.327400 -27.904000
C -17.301400 -17.825400 -31.974000
H -17.240600 -19.036900 -29.738100
H -17.000200 -17.925000 -27.821600
N -16.925600 -18.557100 -32.758800
C -16.842100 -16.286300 -30.156800
N -16.111400 -15.806900 -29.437200
42
Fragment
H -21.028900 -18.150500 -41.291400
H -20.414500 -19.345700 -39.417900
C -20.170200 -18.500000 -41.217200
C -19.798600 -19.217400 -40.102800
H -19.479000 -17.808700 -42.969000
C -19.247000 -18.308300 -42.219800
N -19.214600 -17.453800 -37.122700
H -18.908600 -20.806200 -38.271900
C -18.527700 -19.751700 -39.982600
C -18.499000 -18.309600 -37.366300
C -18.130100 -20.403800 -38.688600
C -17.983800 -18.849200 -42.126800
C -17.590700 -19.591900 -41.007600
C -17.511300 -19.351600 -37.730400
H -17.483900 -21.106200 -38.862900
H -17.380400 -18.718100 -42.821700
C -17.118800 -20.050300 -36.496900
N -16.854000 -20.655000 -35.567700
O -16.801700 -21.225500 -43.116000
H -16.646100 -18.099700 -39.186200
C -16.316700 -18.595600 -38.407200
C -16.237000 -20.239000 -41.012200
H -16.195700 -17.339700 -36.754100
C -15.989300 -21.045800 -42.211600
C -15.601500 -17.633700 -37.461300
N -15.275900 -19.532400 -38.832300
H -15.275700 -16.856100 -37.941400
C -15.244900 -20.171300 -40.048600
H -15.163500 -23.089800 -43.637200
N -14.750200 -21.637800 -42.317000
H -14.731000 -18.963200 -36.127200
C -14.447300 -18.445400 -36.896000
C -14.446000 -22.469400 -43.491700
H -14.346200 -21.907700 -44.264100
C -14.042900 -19.349700 -38.040400
C -14.019900 -20.874700 -40.338500
N -13.776800 -21.567600 -41.409400
H -13.717900 -20.201600 -37.707900
H -13.713400 -17.868100 -36.633800
H -13.630600 -22.952000 -43.339000
H -13.346900 -18.937600 -38.575500
H -13.343400 -20.828100 -39.701700
84
Fragment
H -24.427700 -13.618000 -28.926200
C -23.573400 -13.181900 -28.944000
H -23.531700 -12.590400 -29.698600
H -23.453800 -12.678700 -28.135900
O -22.960900 -14.456300 -31.243700
H -22.960600 -17.197600 -31.728300
H -22.867700 -18.003300 -33.880200
N -22.517200 -14.185000 -29.053400
C -22.287500 -14.801400 -30.268900
C -22.183200 -17.088900 -32.225900
C -22.132500 -17.564400 -33.517900
N -21.831800 -14.426600 -27.933800
C -21.238900 -15.819300 -30.305400
C -21.084900 -16.444900 -31.650400
C -20.989600 -17.389900 -34.273400
H -20.965100 -17.680600 -35.155500
C -20.875700 -15.302000 -27.986600
C -20.501700 -16.055200 -29.154900
H -20.393500 -15.455400 -27.207200
C -19.913900 -16.321100 -32.398700
C -19.887000 -16.782400 -33.715100
H -19.674600 -17.680800 -27.153400
H -19.557800 -18.142600 -30.594900
N -19.427200 -16.902000 -29.007600
H -19.113700 -16.678900 -34.221500
C -18.949000 -17.303600 -27.675200
H -18.918700 -15.066300 -31.135600
C -18.840500 -17.745200 -30.057800
C -18.675900 -15.773100 -31.754000
H -18.615900 -19.668600 -29.294400
H -18.590000 -16.537700 -27.198300
H -18.100000 -15.390100 -32.434200
C -18.091100 -18.852700 -29.310300
H -17.953500 -19.047000 -27.257500
C -17.901900 -16.890900 -30.987600
C -17.878700 -18.327400 -27.904000
C -17.301400 -17.825400 -31.974000
H -17.240600 -19.036900 -29.738100
H -17.000200 -17.925000 -27.821600
N -16.925600 -18.557100 -32.758800
C -16.842100 -16.286300 -30.156800
N -16.111400 -15.806900 -29.437200
H -21.028900 -18.150500 -41.291400
H -20.414500 -19.345700 -39.417900
C -20.170200 -18.500000 -41.217200
C -19.798600 -19.217400 -40.102800
H -19.479000 -17.808700 -42.969000
C -19.247000 -18.308300 -42.219800
N -19.214600 -17.453800 -37.122700
H -18.908600 -20.806200 -38.271900
C -18.527700 -19.751700 -39.982600
C -18.499000 -18.309600 -37.366300
C -18.130100 -20.403800 -38.688600
C -17.983800 -18.849200 -42.126800
C -17.590700 -19.591900 -41.007600
C -17.511300 -19.351600 -37.730400
H -17.483900 -21.106200 -38.862900
H -17.380400 -18.718100 -42.821700
C -17.118800 -20.050300 -36.496900
N -16.854000 -20.655000 -35.567700
O -16.801700 -21.225500 -43.116000
H -16.646100 -18.099700 -39.186200
C -16.316700 -18.595600 -38.407200
C -16.237000 -20.239000 -41.012200
H -16.195700 -17.339700 -36.754100
C -15.989300 -21.045800 -42.211600
C -15.601500 -17.633700 -37.461300
N -15.275900 -19.532400 -38.832300
H -15.275700 -16.856100 -37.941400
C -15.244900 -20.171300 -40.048600
H -15.163500 -23.089800 -43.637200
N -14.750200 -21.637800 -42.317000
H -14.731000 -18.963200 -36.127200
C -14.447300 -18.445400 -36.896000
C -14.446000 -22.469400 -43.491700
H -14.346200 -21.907700 -44.264100
C -14.042900 -19.349700 -38.040400
C -14.019900 -20.874700 -40.338500
N -13.776800 -21.567600 -41.409400
H -13.717900 -20.201600 -37.707900
H -13.713400 -17.868100 -36.633800
H -13.630600 -22.952000 -43.339000
H -13.346900 -18.937600 -38.575500
H -13.343400 -20.828100 -39.701700
