42
Fragment
H -24.427700 -13.618000 -28.926200
C -23.573400 -13.181900 -28.944000
H -23.531700 -12.590400 -29.698600
H -23.453800 -12.678700 -28.135900
O -22.960900 -14.456300 -31.243700
H -22.960600 -17.197600 -31.728300
H -22.867700 -18.003300 -33.880200
N -22.517200 -14.185000 -29.053400
C -22.287500 -14.801400 -30.268900
C -22.183200 -17.088900 -32.225900
C -22.132500 -17.564400 -33.517900
N -21.831800 -14.426600 -27.933800
C -21.238900 -15.819300 -30.305400
C -21.084900 -16.444900 -31.650400
C -20.989600 -17.389900 -34.273400
H -20.965100 -17.680600 -35.155500
C -20.875700 -15.302000 -27.986600
C -20.501700 -16.055200 -29.154900
H -20.393500 -15.455400 -27.207200
C -19.913900 -16.321100 -32.398700
C -19.887000 -16.782400 -33.715100
H -19.674600 -17.680800 -27.153400
H -19.557800 -18.142600 -30.594900
N -19.427200 -16.902000 -29.007600
H -19.113700 -16.678900 -34.221500
C -18.949000 -17.303600 -27.675200
H -18.918700 -15.066300 -31.135600
C -18.840500 -17.745200 -30.057800
C -18.675900 -15.773100 -31.754000
H -18.615900 -19.668600 -29.294400
H -18.590000 -16.537700 -27.198300
H -18.100000 -15.390100 -32.434200
C -18.091100 -18.852700 -29.310300
H -17.953500 -19.047000 -27.257500
C -17.901900 -16.890900 -30.987600
C -17.878700 -18.327400 -27.904000
C -17.301400 -17.825400 -31.974000
H -17.240600 -19.036900 -29.738100
H -17.000200 -17.925000 -27.821600
N -16.925600 -18.557100 -32.758800
C -16.842100 -16.286300 -30.156800
N -16.111400 -15.806900 -29.437200
42
Fragment
H -14.906700 -20.159400 -32.146800
H -14.903100 -22.049900 -33.273100
H -14.619500 -18.035500 -28.509500
H -14.536700 -23.119400 -35.214800
H -14.532100 -20.785900 -34.140600
N -14.473300 -19.419900 -30.439200
C -14.230100 -20.112800 -31.510100
C -14.207200 -21.637800 -33.808200
H -13.903800 -19.079800 -27.584500
C -13.804100 -18.518100 -28.356800
C -13.802700 -22.542100 -34.952500
H -13.519100 -22.024300 -35.721300
N -13.499900 -19.349700 -29.531500
H -13.086500 -17.897700 -28.211300
C -13.005200 -20.816200 -31.800000
H -12.974300 -24.131400 -33.907100
N -12.974200 -21.455100 -33.016200
C -12.648500 -23.353800 -34.387300
C -12.260800 -19.941700 -29.637000
H -12.054400 -23.647900 -35.094400
C -12.013000 -20.748500 -30.836300
C -11.933300 -22.391900 -33.441400
H -11.604000 -22.887800 -32.662300
O -11.448400 -19.762000 -28.732600
N -11.396000 -20.332500 -36.280800
C -11.131200 -20.937200 -35.351600
H -10.869700 -22.269400 -29.026800
H -10.766200 -19.881300 -32.985700
C -10.738800 -21.635900 -34.118200
C -10.659400 -21.395600 -30.841000
C -10.266200 -22.138400 -29.721800
C -10.119900 -20.583700 -33.159900
C -9.751100 -22.677900 -34.482300
C -9.722400 -21.235800 -31.865900
H -9.341400 -20.181300 -33.576600
N -9.035500 -23.533700 -34.725800
C -9.003100 -22.679200 -29.628700
H -8.771100 -23.178900 -28.879500
C -8.451500 -21.770100 -31.745700
C -8.079900 -22.487500 -30.631400
H -7.835600 -21.641800 -32.430600
H -7.221200 -22.837000 -30.557200
84
Fragment
H -24.427700 -13.618000 -28.926200
C -23.573400 -13.181900 -28.944000
H -23.531700 -12.590400 -29.698600
H -23.453800 -12.678700 -28.135900
O -22.960900 -14.456300 -31.243700
H -22.960600 -17.197600 -31.728300
H -22.867700 -18.003300 -33.880200
N -22.517200 -14.185000 -29.053400
C -22.287500 -14.801400 -30.268900
C -22.183200 -17.088900 -32.225900
C -22.132500 -17.564400 -33.517900
N -21.831800 -14.426600 -27.933800
C -21.238900 -15.819300 -30.305400
C -21.084900 -16.444900 -31.650400
C -20.989600 -17.389900 -34.273400
H -20.965100 -17.680600 -35.155500
C -20.875700 -15.302000 -27.986600
C -20.501700 -16.055200 -29.154900
H -20.393500 -15.455400 -27.207200
C -19.913900 -16.321100 -32.398700
C -19.887000 -16.782400 -33.715100
H -19.674600 -17.680800 -27.153400
H -19.557800 -18.142600 -30.594900
N -19.427200 -16.902000 -29.007600
H -19.113700 -16.678900 -34.221500
C -18.949000 -17.303600 -27.675200
H -18.918700 -15.066300 -31.135600
C -18.840500 -17.745200 -30.057800
C -18.675900 -15.773100 -31.754000
H -18.615900 -19.668600 -29.294400
H -18.590000 -16.537700 -27.198300
H -18.100000 -15.390100 -32.434200
C -18.091100 -18.852700 -29.310300
H -17.953500 -19.047000 -27.257500
C -17.901900 -16.890900 -30.987600
C -17.878700 -18.327400 -27.904000
C -17.301400 -17.825400 -31.974000
H -17.240600 -19.036900 -29.738100
H -17.000200 -17.925000 -27.821600
N -16.925600 -18.557100 -32.758800
C -16.842100 -16.286300 -30.156800
N -16.111400 -15.806900 -29.437200
H -14.906700 -20.159400 -32.146800
H -14.903100 -22.049900 -33.273100
H -14.619500 -18.035500 -28.509500
H -14.536700 -23.119400 -35.214800
H -14.532100 -20.785900 -34.140600
N -14.473300 -19.419900 -30.439200
C -14.230100 -20.112800 -31.510100
C -14.207200 -21.637800 -33.808200
H -13.903800 -19.079800 -27.584500
C -13.804100 -18.518100 -28.356800
C -13.802700 -22.542100 -34.952500
H -13.519100 -22.024300 -35.721300
N -13.499900 -19.349700 -29.531500
H -13.086500 -17.897700 -28.211300
C -13.005200 -20.816200 -31.800000
H -12.974300 -24.131400 -33.907100
N -12.974200 -21.455100 -33.016200
C -12.648500 -23.353800 -34.387300
C -12.260800 -19.941700 -29.637000
H -12.054400 -23.647900 -35.094400
C -12.013000 -20.748500 -30.836300
C -11.933300 -22.391900 -33.441400
H -11.604000 -22.887800 -32.662300
O -11.448400 -19.762000 -28.732600
N -11.396000 -20.332500 -36.280800
C -11.131200 -20.937200 -35.351600
H -10.869700 -22.269400 -29.026800
H -10.766200 -19.881300 -32.985700
C -10.738800 -21.635900 -34.118200
C -10.659400 -21.395600 -30.841000
C -10.266200 -22.138400 -29.721800
C -10.119900 -20.583700 -33.159900
C -9.751100 -22.677900 -34.482300
C -9.722400 -21.235800 -31.865900
H -9.341400 -20.181300 -33.576600
N -9.035500 -23.533700 -34.725800
C -9.003100 -22.679200 -29.628700
H -8.771100 -23.178900 -28.879500
C -8.451500 -21.770100 -31.745700
C -8.079900 -22.487500 -30.631400
H -7.835600 -21.641800 -32.430600
H -7.221200 -22.837000 -30.557200
