42
Fragment
H -24.427700 -13.618000 -28.926200
C -23.573400 -13.181900 -28.944000
H -23.531700 -12.590400 -29.698600
H -23.453800 -12.678700 -28.135900
O -22.960900 -14.456300 -31.243700
H -22.960600 -17.197600 -31.728300
H -22.867700 -18.003300 -33.880200
N -22.517200 -14.185000 -29.053400
C -22.287500 -14.801400 -30.268900
C -22.183200 -17.088900 -32.225900
C -22.132500 -17.564400 -33.517900
N -21.831800 -14.426600 -27.933800
C -21.238900 -15.819300 -30.305400
C -21.084900 -16.444900 -31.650400
C -20.989600 -17.389900 -34.273400
H -20.965100 -17.680600 -35.155500
C -20.875700 -15.302000 -27.986600
C -20.501700 -16.055200 -29.154900
H -20.393500 -15.455400 -27.207200
C -19.913900 -16.321100 -32.398700
C -19.887000 -16.782400 -33.715100
H -19.674600 -17.680800 -27.153400
H -19.557800 -18.142600 -30.594900
N -19.427200 -16.902000 -29.007600
H -19.113700 -16.678900 -34.221500
C -18.949000 -17.303600 -27.675200
H -18.918700 -15.066300 -31.135600
C -18.840500 -17.745200 -30.057800
C -18.675900 -15.773100 -31.754000
H -18.615900 -19.668600 -29.294400
H -18.590000 -16.537700 -27.198300
H -18.100000 -15.390100 -32.434200
C -18.091100 -18.852700 -29.310300
H -17.953500 -19.047000 -27.257500
C -17.901900 -16.890900 -30.987600
C -17.878700 -18.327400 -27.904000
C -17.301400 -17.825400 -31.974000
H -17.240600 -19.036900 -29.738100
H -17.000200 -17.925000 -27.821600
N -16.925600 -18.557100 -32.758800
C -16.842100 -16.286300 -30.156800
N -16.111400 -15.806900 -29.437200
42
Fragment
N -29.396100 -14.933700 -24.449200
C -28.665400 -14.454300 -23.729600
N -28.582000 -12.183600 -21.127600
H -28.507300 -12.815700 -26.064900
H -28.266900 -11.703700 -24.148300
C -28.206200 -12.915200 -21.912400
C -27.628800 -12.413200 -25.982400
C -27.605600 -13.849700 -22.898800
H -27.554000 -11.693700 -26.628900
C -27.416400 -11.887900 -24.576200
H -27.407500 -15.350500 -21.452200
H -26.917500 -14.202900 -26.688100
H -26.891700 -11.072000 -24.592000
C -26.831700 -14.967500 -22.132400
C -26.667000 -12.995500 -23.828600
H -26.588900 -15.674400 -22.750800
C -26.558500 -13.437100 -26.211200
H -26.393900 -14.061800 -19.664900
N -26.080400 -13.838600 -24.878800
H -25.949700 -12.598000 -23.291500
H -25.833000 -13.059800 -26.733000
C -25.620500 -13.958200 -20.171300
C -25.593700 -14.419600 -21.487700
H -25.114000 -15.285300 -26.679200
C -25.005900 -14.685400 -24.731500
C -24.631900 -15.438600 -25.899800
H -24.542400 -13.060100 -18.730900
C -24.517900 -13.350800 -19.613000
C -24.422600 -14.295800 -22.236000
C -24.268700 -14.921300 -23.581100
N -23.675700 -16.314100 -25.952600
C -23.375100 -13.176300 -20.368500
C -23.324300 -13.651700 -21.660500
C -23.220000 -15.939200 -23.617500
N -22.990400 -16.555600 -24.833000
H -22.639800 -12.737300 -20.006200
H -22.547000 -13.543000 -22.158100
O -22.546600 -16.284300 -22.642700
H -22.053700 -18.062000 -25.750500
H -21.975800 -18.150300 -24.187800
C -21.934100 -17.558800 -24.942400
H -21.079800 -17.122700 -24.960200
84
Fragment
H -24.427700 -13.618000 -28.926200
C -23.573400 -13.181900 -28.944000
H -23.531700 -12.590400 -29.698600
H -23.453800 -12.678700 -28.135900
O -22.960900 -14.456300 -31.243700
H -22.960600 -17.197600 -31.728300
H -22.867700 -18.003300 -33.880200
N -22.517200 -14.185000 -29.053400
C -22.287500 -14.801400 -30.268900
C -22.183200 -17.088900 -32.225900
C -22.132500 -17.564400 -33.517900
N -21.831800 -14.426600 -27.933800
C -21.238900 -15.819300 -30.305400
C -21.084900 -16.444900 -31.650400
C -20.989600 -17.389900 -34.273400
H -20.965100 -17.680600 -35.155500
C -20.875700 -15.302000 -27.986600
C -20.501700 -16.055200 -29.154900
H -20.393500 -15.455400 -27.207200
C -19.913900 -16.321100 -32.398700
C -19.887000 -16.782400 -33.715100
H -19.674600 -17.680800 -27.153400
H -19.557800 -18.142600 -30.594900
N -19.427200 -16.902000 -29.007600
H -19.113700 -16.678900 -34.221500
C -18.949000 -17.303600 -27.675200
H -18.918700 -15.066300 -31.135600
C -18.840500 -17.745200 -30.057800
C -18.675900 -15.773100 -31.754000
H -18.615900 -19.668600 -29.294400
H -18.590000 -16.537700 -27.198300
H -18.100000 -15.390100 -32.434200
C -18.091100 -18.852700 -29.310300
H -17.953500 -19.047000 -27.257500
C -17.901900 -16.890900 -30.987600
C -17.878700 -18.327400 -27.904000
C -17.301400 -17.825400 -31.974000
H -17.240600 -19.036900 -29.738100
H -17.000200 -17.925000 -27.821600
N -16.925600 -18.557100 -32.758800
C -16.842100 -16.286300 -30.156800
N -16.111400 -15.806900 -29.437200
N -29.396100 -14.933700 -24.449200
C -28.665400 -14.454300 -23.729600
N -28.582000 -12.183600 -21.127600
H -28.507300 -12.815700 -26.064900
H -28.266900 -11.703700 -24.148300
C -28.206200 -12.915200 -21.912400
C -27.628800 -12.413200 -25.982400
C -27.605600 -13.849700 -22.898800
H -27.554000 -11.693700 -26.628900
C -27.416400 -11.887900 -24.576200
H -27.407500 -15.350500 -21.452200
H -26.917500 -14.202900 -26.688100
H -26.891700 -11.072000 -24.592000
C -26.831700 -14.967500 -22.132400
C -26.667000 -12.995500 -23.828600
H -26.588900 -15.674400 -22.750800
C -26.558500 -13.437100 -26.211200
H -26.393900 -14.061800 -19.664900
N -26.080400 -13.838600 -24.878800
H -25.949700 -12.598000 -23.291500
H -25.833000 -13.059800 -26.733000
C -25.620500 -13.958200 -20.171300
C -25.593700 -14.419600 -21.487700
H -25.114000 -15.285300 -26.679200
C -25.005900 -14.685400 -24.731500
C -24.631900 -15.438600 -25.899800
H -24.542400 -13.060100 -18.730900
C -24.517900 -13.350800 -19.613000
C -24.422600 -14.295800 -22.236000
C -24.268700 -14.921300 -23.581100
N -23.675700 -16.314100 -25.952600
C -23.375100 -13.176300 -20.368500
C -23.324300 -13.651700 -21.660500
C -23.220000 -15.939200 -23.617500
N -22.990400 -16.555600 -24.833000
H -22.639800 -12.737300 -20.006200
H -22.547000 -13.543000 -22.158100
O -22.546600 -16.284300 -22.642700
H -22.053700 -18.062000 -25.750500
H -21.975800 -18.150300 -24.187800
C -21.934100 -17.558800 -24.942400
H -21.079800 -17.122700 -24.960200
