15
Fragment
H -14.783200 -13.854700 -13.710000
H -14.620600 -11.737400 -14.984400
C -13.968100 -13.437200 -13.834300
C -13.884200 -12.223600 -14.420000
O -13.540300 -9.760600 -15.579700
O -13.024500 -15.180400 -12.590700
C -12.852800 -13.958900 -13.155900
C -12.680100 -11.487800 -14.325000
N -12.581400 -10.204400 -14.935300
H -12.577800 -15.425800 -12.047700
C -11.654600 -13.257800 -13.069600
C -11.558100 -12.009800 -13.625300
O -11.541200 -9.530500 -14.786500
H -10.991800 -13.530300 -12.443500
H -10.760600 -11.354400 -13.607100
15
Fragment
H -19.544900 -10.179300 -18.055700
H -19.313700 -8.003400 -19.219300
O -18.764400 -12.003200 -16.876300
C -18.747400 -9.523900 -18.037500
C -18.651000 -8.275900 -18.593200
H -17.727700 -6.107900 -19.615100
N -17.724100 -11.329300 -16.727400
C -17.625500 -10.045900 -17.337700
C -17.452700 -7.574800 -18.506900
O -17.281000 -6.353300 -19.072100
O -16.765200 -11.773100 -16.083100
C -16.421300 -9.310100 -17.242800
C -16.337400 -8.096500 -17.828500
H -15.684900 -9.796300 -16.678400
H -15.522300 -7.679000 -17.952800
30
Fragment
H -14.783200 -13.854700 -13.710000
H -14.620600 -11.737400 -14.984400
C -13.968100 -13.437200 -13.834300
C -13.884200 -12.223600 -14.420000
O -13.540300 -9.760600 -15.579700
O -13.024500 -15.180400 -12.590700
C -12.852800 -13.958900 -13.155900
C -12.680100 -11.487800 -14.325000
N -12.581400 -10.204400 -14.935300
H -12.577800 -15.425800 -12.047700
C -11.654600 -13.257800 -13.069600
C -11.558100 -12.009800 -13.625300
O -11.541200 -9.530500 -14.786500
H -10.991800 -13.530300 -12.443500
H -10.760600 -11.354400 -13.607100
H -19.544900 -10.179300 -18.055700
H -19.313700 -8.003400 -19.219300
O -18.764400 -12.003200 -16.876300
C -18.747400 -9.523900 -18.037500
C -18.651000 -8.275900 -18.593200
H -17.727700 -6.107900 -19.615100
N -17.724100 -11.329300 -16.727400
C -17.625500 -10.045900 -17.337700
C -17.452700 -7.574800 -18.506900
O -17.281000 -6.353300 -19.072100
O -16.765200 -11.773100 -16.083100
C -16.421300 -9.310100 -17.242800
C -16.337400 -8.096500 -17.828500
H -15.684900 -9.796300 -16.678400
H -15.522300 -7.679000 -17.952800
