26
Fragment
H -11.572500 -14.840200 -20.762700
N -11.199700 -15.650600 -20.465300
H -10.723300 -16.027400 -21.135200
H -10.540900 -15.819200 -18.576100
N -10.348900 -15.395700 -19.368600
C -9.369100 -14.478800 -19.472700
N -9.050700 -13.754800 -20.535200
H -8.838600 -14.160500 -16.554700
N -8.684100 -14.805500 -17.172800
N -8.555400 -14.176400 -18.422400
N -7.967000 -12.945100 -20.149000
H -7.928800 -15.227300 -16.992500
C -7.693200 -13.214300 -18.899700
C -6.643300 -12.594700 -18.099500
H -6.407800 -10.581700 -20.006700
N -6.369600 -12.863900 -16.850200
N -5.781200 -11.632600 -18.576800
N -5.652500 -11.003500 -19.826400
H -5.498000 -11.648500 -20.444500
N -5.285900 -12.054200 -16.464000
C -4.967500 -11.330200 -17.526500
N -3.987600 -10.413300 -17.630600
H -3.795700 -9.989800 -18.423200
H -3.613300 -9.781600 -15.864000
N -3.136900 -10.158400 -16.534000
H -2.764100 -10.968800 -16.236500
26
Fragment
H -10.604200 -15.270300 -26.929300
N -10.231400 -14.459900 -26.631800
H -9.755000 -14.083100 -27.301700
H -9.572600 -14.291300 -24.742600
N -9.380600 -14.714800 -25.535100
C -8.400800 -15.631700 -25.639200
N -8.082400 -16.355700 -26.701700
H -7.870300 -15.950000 -22.721200
N -7.715800 -15.305000 -23.339400
N -7.587100 -15.934100 -24.589000
N -6.998700 -17.165400 -26.315600
H -6.960500 -14.883200 -23.159100
C -6.724900 -16.896200 -25.066200
C -5.675000 -17.515800 -24.266100
H -5.439500 -19.528800 -26.173300
N -5.401300 -17.246600 -23.016700
N -4.812900 -18.477900 -24.743400
N -4.684200 -19.107000 -25.992900
H -4.529700 -18.462000 -26.611100
N -4.317600 -18.056300 -22.630600
C -3.999200 -18.780300 -23.693100
N -3.019300 -19.697200 -23.797200
H -2.827400 -20.120700 -24.589700
H -2.645000 -20.328900 -22.030600
N -2.168600 -19.952100 -22.700500
H -1.795800 -19.141700 -22.403000
52
Fragment
H -11.572500 -14.840200 -20.762700
N -11.199700 -15.650600 -20.465300
H -10.723300 -16.027400 -21.135200
H -10.540900 -15.819200 -18.576100
N -10.348900 -15.395700 -19.368600
C -9.369100 -14.478800 -19.472700
N -9.050700 -13.754800 -20.535200
H -8.838600 -14.160500 -16.554700
N -8.684100 -14.805500 -17.172800
N -8.555400 -14.176400 -18.422400
N -7.967000 -12.945100 -20.149000
H -7.928800 -15.227300 -16.992500
C -7.693200 -13.214300 -18.899700
C -6.643300 -12.594700 -18.099500
H -6.407800 -10.581700 -20.006700
N -6.369600 -12.863900 -16.850200
N -5.781200 -11.632600 -18.576800
N -5.652500 -11.003500 -19.826400
H -5.498000 -11.648500 -20.444500
N -5.285900 -12.054200 -16.464000
C -4.967500 -11.330200 -17.526500
N -3.987600 -10.413300 -17.630600
H -3.795700 -9.989800 -18.423200
H -3.613300 -9.781600 -15.864000
N -3.136900 -10.158400 -16.534000
H -2.764100 -10.968800 -16.236500
H -10.604200 -15.270300 -26.929300
N -10.231400 -14.459900 -26.631800
H -9.755000 -14.083100 -27.301700
H -9.572600 -14.291300 -24.742600
N -9.380600 -14.714800 -25.535100
C -8.400800 -15.631700 -25.639200
N -8.082400 -16.355700 -26.701700
H -7.870300 -15.950000 -22.721200
N -7.715800 -15.305000 -23.339400
N -7.587100 -15.934100 -24.589000
N -6.998700 -17.165400 -26.315600
H -6.960500 -14.883200 -23.159100
C -6.724900 -16.896200 -25.066200
C -5.675000 -17.515800 -24.266100
H -5.439500 -19.528800 -26.173300
N -5.401300 -17.246600 -23.016700
N -4.812900 -18.477900 -24.743400
N -4.684200 -19.107000 -25.992900
H -4.529700 -18.462000 -26.611100
N -4.317600 -18.056300 -22.630600
C -3.999200 -18.780300 -23.693100
N -3.019300 -19.697200 -23.797200
H -2.827400 -20.120700 -24.589700
H -2.645000 -20.328900 -22.030600
N -2.168600 -19.952100 -22.700500
H -1.795800 -19.141700 -22.403000
