26
Fragment
H -11.572500 -14.840200 -20.762700
N -11.199700 -15.650600 -20.465300
H -10.723300 -16.027400 -21.135200
H -10.540900 -15.819200 -18.576100
N -10.348900 -15.395700 -19.368600
C -9.369100 -14.478800 -19.472700
N -9.050700 -13.754800 -20.535200
H -8.838600 -14.160500 -16.554700
N -8.684100 -14.805500 -17.172800
N -8.555400 -14.176400 -18.422400
N -7.967000 -12.945100 -20.149000
H -7.928800 -15.227300 -16.992500
C -7.693200 -13.214300 -18.899700
C -6.643300 -12.594700 -18.099500
H -6.407800 -10.581700 -20.006700
N -6.369600 -12.863900 -16.850200
N -5.781200 -11.632600 -18.576800
N -5.652500 -11.003500 -19.826400
H -5.498000 -11.648500 -20.444500
N -5.285900 -12.054200 -16.464000
C -4.967500 -11.330200 -17.526500
N -3.987600 -10.413300 -17.630600
H -3.795700 -9.989800 -18.423200
H -3.613300 -9.781600 -15.864000
N -3.136900 -10.158400 -16.534000
H -2.764100 -10.968800 -16.236500
3
Fragment
H -13.522800 -17.868400 -20.755300
O -13.024200 -17.836400 -20.040400
H -12.568000 -17.102800 -20.132500
29
Fragment
H -11.572500 -14.840200 -20.762700
N -11.199700 -15.650600 -20.465300
H -10.723300 -16.027400 -21.135200
H -10.540900 -15.819200 -18.576100
N -10.348900 -15.395700 -19.368600
C -9.369100 -14.478800 -19.472700
N -9.050700 -13.754800 -20.535200
H -8.838600 -14.160500 -16.554700
N -8.684100 -14.805500 -17.172800
N -8.555400 -14.176400 -18.422400
N -7.967000 -12.945100 -20.149000
H -7.928800 -15.227300 -16.992500
C -7.693200 -13.214300 -18.899700
C -6.643300 -12.594700 -18.099500
H -6.407800 -10.581700 -20.006700
N -6.369600 -12.863900 -16.850200
N -5.781200 -11.632600 -18.576800
N -5.652500 -11.003500 -19.826400
H -5.498000 -11.648500 -20.444500
N -5.285900 -12.054200 -16.464000
C -4.967500 -11.330200 -17.526500
N -3.987600 -10.413300 -17.630600
H -3.795700 -9.989800 -18.423200
H -3.613300 -9.781600 -15.864000
N -3.136900 -10.158400 -16.534000
H -2.764100 -10.968800 -16.236500
H -13.522800 -17.868400 -20.755300
O -13.024200 -17.836400 -20.040400
H -12.568000 -17.102800 -20.132500
