3
Fragment
H -19.378000 -26.892800 -5.231500
O -18.723400 -26.331500 -4.933700
H -18.040700 -27.062900 -4.566200
15
Fragment
H -21.524600 -24.324300 -3.424700
N -21.171500 -22.308600 -3.640100
C -20.932200 -23.618400 -3.692300
N -20.160400 -19.231500 -4.319800
C -20.060600 -21.764300 -4.227200
N -19.768600 -23.931400 -4.265000
C -19.653600 -20.447700 -4.505000
H -19.378000 -24.868600 -4.214700
N -19.224300 -18.387800 -4.853900
C -19.165600 -22.762800 -4.625600
N -18.452500 -20.330400 -5.134800
N -18.212000 -18.991700 -5.350200
N -17.984400 -22.604600 -5.270500
C -17.637200 -21.386700 -5.516200
H -16.785600 -21.092400 -6.066900
18
Fragment
H -19.378000 -26.892800 -5.231500
O -18.723400 -26.331500 -4.933700
H -18.040700 -27.062900 -4.566200
H -21.524600 -24.324300 -3.424700
N -21.171500 -22.308600 -3.640100
C -20.932200 -23.618400 -3.692300
N -20.160400 -19.231500 -4.319800
C -20.060600 -21.764300 -4.227200
N -19.768600 -23.931400 -4.265000
C -19.653600 -20.447700 -4.505000
H -19.378000 -24.868600 -4.214700
N -19.224300 -18.387800 -4.853900
C -19.165600 -22.762800 -4.625600
N -18.452500 -20.330400 -5.134800
N -18.212000 -18.991700 -5.350200
N -17.984400 -22.604600 -5.270500
C -17.637200 -21.386700 -5.516200
H -16.785600 -21.092400 -6.066900
