3
Fragment
H -19.378000 -26.892800 -5.231500
O -18.723400 -26.331500 -4.933700
H -18.040700 -27.062900 -4.566200
3
Fragment
H -17.149300 -23.967100 -2.676200
O -16.466600 -24.698500 -3.043700
H -15.812000 -24.137200 -3.341500
6
Fragment
H -19.378000 -26.892800 -5.231500
O -18.723400 -26.331500 -4.933700
H -18.040700 -27.062900 -4.566200
H -17.149300 -23.967100 -2.676200
O -16.466600 -24.698500 -3.043700
H -15.812000 -24.137200 -3.341500
