18
Fragment
O -11.414700 -11.533000 -20.506900
H -10.970900 -13.865600 -16.125200
N -10.622500 -10.696200 -20.117900
N -10.484200 -13.501800 -15.516600
N -10.462500 -11.859900 -17.983500
N -10.294800 -13.999800 -14.279400
O -10.237700 -9.742700 -20.770500
C -10.121300 -10.830500 -18.762300
C -9.806000 -12.360500 -15.659400
C -9.803300 -11.561300 -16.876900
C -9.488100 -13.091200 -13.774000
O -9.371600 -14.179000 -11.765800
N -9.314600 -9.921900 -18.256900
N -9.146900 -12.061800 -14.552800
N -9.125100 -10.419900 -17.019700
N -8.986900 -13.225500 -12.418300
H -8.638500 -10.056100 -16.411100
O -8.194700 -12.388700 -12.029400
6
Fragment
N -11.534200 -9.272100 -15.030500
H -11.178300 -9.399900 -12.027900
C -11.069100 -9.263600 -14.002500
C -10.485300 -9.286400 -12.682600
H -10.025400 -8.459200 -12.521300
H -9.863700 -10.015300 -12.620000
24
Fragment
O -11.414700 -11.533000 -20.506900
H -10.970900 -13.865600 -16.125200
N -10.622500 -10.696200 -20.117900
N -10.484200 -13.501800 -15.516600
N -10.462500 -11.859900 -17.983500
N -10.294800 -13.999800 -14.279400
O -10.237700 -9.742700 -20.770500
C -10.121300 -10.830500 -18.762300
C -9.806000 -12.360500 -15.659400
C -9.803300 -11.561300 -16.876900
C -9.488100 -13.091200 -13.774000
O -9.371600 -14.179000 -11.765800
N -9.314600 -9.921900 -18.256900
N -9.146900 -12.061800 -14.552800
N -9.125100 -10.419900 -17.019700
N -8.986900 -13.225500 -12.418300
H -8.638500 -10.056100 -16.411100
O -8.194700 -12.388700 -12.029400
N -11.534200 -9.272100 -15.030500
H -11.178300 -9.399900 -12.027900
C -11.069100 -9.263600 -14.002500
C -10.485300 -9.286400 -12.682600
H -10.025400 -8.459200 -12.521300
H -9.863700 -10.015300 -12.620000
