18
Fragment
O -11.414700 -11.533000 -20.506900
H -10.970900 -13.865600 -16.125200
N -10.622500 -10.696200 -20.117900
N -10.484200 -13.501800 -15.516600
N -10.462500 -11.859900 -17.983500
N -10.294800 -13.999800 -14.279400
O -10.237700 -9.742700 -20.770500
C -10.121300 -10.830500 -18.762300
C -9.806000 -12.360500 -15.659400
C -9.803300 -11.561300 -16.876900
C -9.488100 -13.091200 -13.774000
O -9.371600 -14.179000 -11.765800
N -9.314600 -9.921900 -18.256900
N -9.146900 -12.061800 -14.552800
N -9.125100 -10.419900 -17.019700
N -8.986900 -13.225500 -12.418300
H -8.638500 -10.056100 -16.411100
O -8.194700 -12.388700 -12.029400
18
Fragment
O -15.496400 -11.533000 -20.506900
H -15.052600 -13.865600 -16.125200
N -14.704200 -10.696200 -20.117900
N -14.565900 -13.501800 -15.516600
N -14.544200 -11.859900 -17.983500
N -14.376500 -13.999800 -14.279400
O -14.319400 -9.742700 -20.770500
C -14.203000 -10.830500 -18.762300
C -13.887700 -12.360500 -15.659400
C -13.885000 -11.561300 -16.876900
C -13.569800 -13.091200 -13.774000
O -13.453300 -14.179000 -11.765800
N -13.396300 -9.921900 -18.256900
N -13.228600 -12.061800 -14.552800
N -13.206800 -10.419900 -17.019700
N -13.068600 -13.225500 -12.418300
H -12.720200 -10.056100 -16.411100
O -12.276400 -12.388700 -12.029400
36
Fragment
O -11.414700 -11.533000 -20.506900
H -10.970900 -13.865600 -16.125200
N -10.622500 -10.696200 -20.117900
N -10.484200 -13.501800 -15.516600
N -10.462500 -11.859900 -17.983500
N -10.294800 -13.999800 -14.279400
O -10.237700 -9.742700 -20.770500
C -10.121300 -10.830500 -18.762300
C -9.806000 -12.360500 -15.659400
C -9.803300 -11.561300 -16.876900
C -9.488100 -13.091200 -13.774000
O -9.371600 -14.179000 -11.765800
N -9.314600 -9.921900 -18.256900
N -9.146900 -12.061800 -14.552800
N -9.125100 -10.419900 -17.019700
N -8.986900 -13.225500 -12.418300
H -8.638500 -10.056100 -16.411100
O -8.194700 -12.388700 -12.029400
O -15.496400 -11.533000 -20.506900
H -15.052600 -13.865600 -16.125200
N -14.704200 -10.696200 -20.117900
N -14.565900 -13.501800 -15.516600
N -14.544200 -11.859900 -17.983500
N -14.376500 -13.999800 -14.279400
O -14.319400 -9.742700 -20.770500
C -14.203000 -10.830500 -18.762300
C -13.887700 -12.360500 -15.659400
C -13.885000 -11.561300 -16.876900
C -13.569800 -13.091200 -13.774000
O -13.453300 -14.179000 -11.765800
N -13.396300 -9.921900 -18.256900
N -13.228600 -12.061800 -14.552800
N -13.206800 -10.419900 -17.019700
N -13.068600 -13.225500 -12.418300
H -12.720200 -10.056100 -16.411100
O -12.276400 -12.388700 -12.029400
