18
Fragment
O -11.414700 -11.533000 -20.506900
H -10.970900 -13.865600 -16.125200
N -10.622500 -10.696200 -20.117900
N -10.484200 -13.501800 -15.516600
N -10.462500 -11.859900 -17.983500
N -10.294800 -13.999800 -14.279400
O -10.237700 -9.742700 -20.770500
C -10.121300 -10.830500 -18.762300
C -9.806000 -12.360500 -15.659400
C -9.803300 -11.561300 -16.876900
C -9.488100 -13.091200 -13.774000
O -9.371600 -14.179000 -11.765800
N -9.314600 -9.921900 -18.256900
N -9.146900 -12.061800 -14.552800
N -9.125100 -10.419900 -17.019700
N -8.986900 -13.225500 -12.418300
H -8.638500 -10.056100 -16.411100
O -8.194700 -12.388700 -12.029400
18
Fragment
O -12.954800 -11.849200 -31.352300
H -12.511000 -14.181700 -26.970600
N -12.162600 -11.012300 -30.963400
N -12.024400 -13.818000 -26.362000
N -12.002600 -12.176100 -28.828900
N -11.834900 -14.315900 -25.124800
O -11.777900 -10.058800 -31.615900
C -11.661400 -11.146700 -29.607700
C -11.346200 -12.676600 -26.504800
C -11.343500 -11.877400 -27.722300
C -11.028200 -13.407300 -24.619500
O -10.911800 -14.495200 -22.611200
N -10.854700 -10.238000 -29.102300
N -10.687000 -12.377900 -25.398300
N -10.665300 -10.736000 -27.865200
N -10.527000 -13.541600 -23.263800
H -10.178600 -10.372200 -27.256500
O -9.734800 -12.704800 -22.874900
36
Fragment
O -11.414700 -11.533000 -20.506900
H -10.970900 -13.865600 -16.125200
N -10.622500 -10.696200 -20.117900
N -10.484200 -13.501800 -15.516600
N -10.462500 -11.859900 -17.983500
N -10.294800 -13.999800 -14.279400
O -10.237700 -9.742700 -20.770500
C -10.121300 -10.830500 -18.762300
C -9.806000 -12.360500 -15.659400
C -9.803300 -11.561300 -16.876900
C -9.488100 -13.091200 -13.774000
O -9.371600 -14.179000 -11.765800
N -9.314600 -9.921900 -18.256900
N -9.146900 -12.061800 -14.552800
N -9.125100 -10.419900 -17.019700
N -8.986900 -13.225500 -12.418300
H -8.638500 -10.056100 -16.411100
O -8.194700 -12.388700 -12.029400
O -12.954800 -11.849200 -31.352300
H -12.511000 -14.181700 -26.970600
N -12.162600 -11.012300 -30.963400
N -12.024400 -13.818000 -26.362000
N -12.002600 -12.176100 -28.828900
N -11.834900 -14.315900 -25.124800
O -11.777900 -10.058800 -31.615900
C -11.661400 -11.146700 -29.607700
C -11.346200 -12.676600 -26.504800
C -11.343500 -11.877400 -27.722300
C -11.028200 -13.407300 -24.619500
O -10.911800 -14.495200 -22.611200
N -10.854700 -10.238000 -29.102300
N -10.687000 -12.377900 -25.398300
N -10.665300 -10.736000 -27.865200
N -10.527000 -13.541600 -23.263800
H -10.178600 -10.372200 -27.256500
O -9.734800 -12.704800 -22.874900
