18
Fragment
O -11.414700 -11.533000 -20.506900
H -10.970900 -13.865600 -16.125200
N -10.622500 -10.696200 -20.117900
N -10.484200 -13.501800 -15.516600
N -10.462500 -11.859900 -17.983500
N -10.294800 -13.999800 -14.279400
O -10.237700 -9.742700 -20.770500
C -10.121300 -10.830500 -18.762300
C -9.806000 -12.360500 -15.659400
C -9.803300 -11.561300 -16.876900
C -9.488100 -13.091200 -13.774000
O -9.371600 -14.179000 -11.765800
N -9.314600 -9.921900 -18.256900
N -9.146900 -12.061800 -14.552800
N -9.125100 -10.419900 -17.019700
N -8.986900 -13.225500 -12.418300
H -8.638500 -10.056100 -16.411100
O -8.194700 -12.388700 -12.029400
18
Fragment
O -12.040200 -4.191400 -31.352300
H -11.596400 -6.524000 -26.970600
N -11.248000 -3.354600 -30.963400
N -11.109700 -6.160200 -26.362000
N -11.088000 -4.518300 -28.828900
N -10.920300 -6.658200 -25.124800
O -10.863200 -2.401000 -31.615900
C -10.746800 -3.488900 -29.607700
C -10.431600 -5.018800 -26.504800
C -10.428800 -4.219600 -27.722300
C -10.113600 -5.749500 -24.619500
O -9.997100 -6.837400 -22.611200
N -9.940100 -2.580300 -29.102300
N -9.772400 -4.720100 -25.398300
N -9.750700 -3.078200 -27.865200
N -9.612400 -5.883900 -23.263800
H -9.264000 -2.714400 -27.256500
O -8.820200 -5.047000 -22.874900
36
Fragment
O -11.414700 -11.533000 -20.506900
H -10.970900 -13.865600 -16.125200
N -10.622500 -10.696200 -20.117900
N -10.484200 -13.501800 -15.516600
N -10.462500 -11.859900 -17.983500
N -10.294800 -13.999800 -14.279400
O -10.237700 -9.742700 -20.770500
C -10.121300 -10.830500 -18.762300
C -9.806000 -12.360500 -15.659400
C -9.803300 -11.561300 -16.876900
C -9.488100 -13.091200 -13.774000
O -9.371600 -14.179000 -11.765800
N -9.314600 -9.921900 -18.256900
N -9.146900 -12.061800 -14.552800
N -9.125100 -10.419900 -17.019700
N -8.986900 -13.225500 -12.418300
H -8.638500 -10.056100 -16.411100
O -8.194700 -12.388700 -12.029400
O -12.040200 -4.191400 -31.352300
H -11.596400 -6.524000 -26.970600
N -11.248000 -3.354600 -30.963400
N -11.109700 -6.160200 -26.362000
N -11.088000 -4.518300 -28.828900
N -10.920300 -6.658200 -25.124800
O -10.863200 -2.401000 -31.615900
C -10.746800 -3.488900 -29.607700
C -10.431600 -5.018800 -26.504800
C -10.428800 -4.219600 -27.722300
C -10.113600 -5.749500 -24.619500
O -9.997100 -6.837400 -22.611200
N -9.940100 -2.580300 -29.102300
N -9.772400 -4.720100 -25.398300
N -9.750700 -3.078200 -27.865200
N -9.612400 -5.883900 -23.263800
H -9.264000 -2.714400 -27.256500
O -8.820200 -5.047000 -22.874900
