3
Fragment
O -10.237000 -11.074000 -15.162400
H -9.985300 -10.599900 -15.872200
H -9.928300 -10.647200 -14.472700
32
Fragment
H -12.531800 -14.536000 -11.810300
H -12.191000 -12.292700 -10.659100
O -12.002200 -14.073300 -12.372400
H -11.894300 -15.900400 -6.533700
O -11.622500 -12.305300 -8.318300
N -11.462600 -12.734800 -10.534700
O -11.440600 -17.196100 -8.524200
N -11.311700 -15.498700 -7.027500
H -11.173400 -14.640900 -6.845600
C -11.067900 -16.020400 -8.241300
C -11.056600 -12.862000 -9.271200
H -11.055400 -17.316600 -10.610000
C -10.940400 -13.439800 -11.715600
H -10.735300 -16.812800 -11.989400
N -10.680000 -16.707700 -11.124700
H -10.610000 -12.768500 -12.333000
C -10.357400 -15.238300 -9.218900
C -10.295900 -15.568900 -10.554700
C -9.850000 -13.794800 -9.076600
C -9.761600 -14.392300 -11.366700
H -9.665400 -15.060900 -13.286900
C -9.162600 -13.486000 -7.812700
C -9.006800 -14.802800 -12.639300
C -8.919500 -13.672200 -10.305900
H -8.733000 -12.764800 -10.555200
N -8.623000 -13.231700 -6.841500
H -8.590300 -12.922300 -13.473600
H -8.485400 -15.599100 -12.414800
C -8.090300 -13.732700 -13.204500
H -8.085600 -14.145400 -10.149000
H -7.651600 -14.033200 -13.995300
H -7.393500 -13.509300 -12.557300
35
Fragment
O -10.237000 -11.074000 -15.162400
H -9.985300 -10.599900 -15.872200
H -9.928300 -10.647200 -14.472700
H -12.531800 -14.536000 -11.810300
H -12.191000 -12.292700 -10.659100
O -12.002200 -14.073300 -12.372400
H -11.894300 -15.900400 -6.533700
O -11.622500 -12.305300 -8.318300
N -11.462600 -12.734800 -10.534700
O -11.440600 -17.196100 -8.524200
N -11.311700 -15.498700 -7.027500
H -11.173400 -14.640900 -6.845600
C -11.067900 -16.020400 -8.241300
C -11.056600 -12.862000 -9.271200
H -11.055400 -17.316600 -10.610000
C -10.940400 -13.439800 -11.715600
H -10.735300 -16.812800 -11.989400
N -10.680000 -16.707700 -11.124700
H -10.610000 -12.768500 -12.333000
C -10.357400 -15.238300 -9.218900
C -10.295900 -15.568900 -10.554700
C -9.850000 -13.794800 -9.076600
C -9.761600 -14.392300 -11.366700
H -9.665400 -15.060900 -13.286900
C -9.162600 -13.486000 -7.812700
C -9.006800 -14.802800 -12.639300
C -8.919500 -13.672200 -10.305900
H -8.733000 -12.764800 -10.555200
N -8.623000 -13.231700 -6.841500
H -8.590300 -12.922300 -13.473600
H -8.485400 -15.599100 -12.414800
C -8.090300 -13.732700 -13.204500
H -8.085600 -14.145400 -10.149000
H -7.651600 -14.033200 -13.995300
H -7.393500 -13.509300 -12.557300
