3
Fragment
O -10.237000 -11.074000 -15.162400
H -9.985300 -10.599900 -15.872200
H -9.928300 -10.647200 -14.472700
3
Fragment
H -12.057200 -13.644400 -14.273500
O -11.920200 -13.382800 -15.037900
H -11.578700 -12.582500 -15.015600
6
Fragment
O -10.237000 -11.074000 -15.162400
H -9.985300 -10.599900 -15.872200
H -9.928300 -10.647200 -14.472700
H -12.057200 -13.644400 -14.273500
O -11.920200 -13.382800 -15.037900
H -11.578700 -12.582500 -15.015600
