3
Fragment
O -10.237000 -11.074000 -15.162400
H -9.985300 -10.599900 -15.872200
H -9.928300 -10.647200 -14.472700
3
Fragment
H -12.127500 -9.152500 -13.860500
O -11.786100 -8.352100 -13.838200
H -11.649100 -8.090600 -14.602600
6
Fragment
O -10.237000 -11.074000 -15.162400
H -9.985300 -10.599900 -15.872200
H -9.928300 -10.647200 -14.472700
H -12.127500 -9.152500 -13.860500
O -11.786100 -8.352100 -13.838200
H -11.649100 -8.090600 -14.602600
