6
Fragment
H -14.603900 -19.716400 -20.597500
H -14.539800 -19.026100 -22.812100
H -14.432500 -18.195400 -20.625700
C -14.050500 -19.035600 -20.922400
O -13.773900 -19.083600 -22.292900
H -13.269400 -19.206700 -20.505200
49
Fragment
H -21.246000 -16.917900 -25.411100
H -20.900300 -15.993500 -24.151300
C -20.544800 -16.392000 -24.972400
H -20.243000 -15.681900 -25.576400
N -19.515900 -18.555600 -24.751900
C -19.391400 -17.282500 -24.635200
H -18.548600 -20.171200 -24.535800
N -18.433400 -19.316800 -24.424200
C -18.162300 -16.612900 -24.167700
O -18.051400 -15.410700 -24.060300
H -17.900400 -25.483200 -24.819000
H -17.582300 -23.187700 -24.734400
C -17.217900 -18.865300 -24.017500
N -17.117800 -17.496700 -23.872100
C -17.090400 -25.129600 -24.469900
C -16.899700 -23.767000 -24.416700
N -16.525200 -20.976500 -23.969200
H -16.425600 -15.889200 -22.230200
H -16.248200 -26.921200 -24.032100
N -16.190900 -19.622500 -23.758000
C -16.105500 -25.982100 -24.017000
N -15.792000 -17.023000 -23.678400
C -15.717700 -23.221800 -23.902800
C -15.679300 -16.143100 -22.759800
C -15.547300 -21.777600 -23.765000
H -15.278900 -15.198900 -18.322700
O -14.914900 -15.285400 -20.283400
C -14.907600 -25.471100 -23.540600
C -14.706500 -24.105100 -23.498100
H -14.699100 -21.427300 -23.520800
C -14.531200 -14.995800 -18.922900
C -14.357200 -15.534800 -22.547000
H -14.297700 -14.047200 -18.844300
H -14.224400 -26.061100 -23.242700
C -13.978000 -15.108400 -21.270500
H -13.756900 -15.544100 -18.677700
H -13.720300 -15.659100 -24.475600
O -13.527700 -23.525300 -23.071600
C -13.471100 -15.369200 -23.605600
H -12.765100 -24.914700 -21.879100
C -12.721300 -14.557500 -21.065700
C -12.484200 -24.414900 -22.674400
H -12.455600 -14.286600 -20.195100
H -12.294400 -25.041700 -23.402900
C -12.229300 -14.786800 -23.407000
C -11.855800 -14.403400 -22.134200
H -11.677100 -23.899300 -22.467300
H -11.640800 -14.651800 -24.139800
H -10.994500 -14.029800 -21.990600
55
Fragment
H -14.603900 -19.716400 -20.597500
H -14.539800 -19.026100 -22.812100
H -14.432500 -18.195400 -20.625700
C -14.050500 -19.035600 -20.922400
O -13.773900 -19.083600 -22.292900
H -13.269400 -19.206700 -20.505200
H -21.246000 -16.917900 -25.411100
H -20.900300 -15.993500 -24.151300
C -20.544800 -16.392000 -24.972400
H -20.243000 -15.681900 -25.576400
N -19.515900 -18.555600 -24.751900
C -19.391400 -17.282500 -24.635200
H -18.548600 -20.171200 -24.535800
N -18.433400 -19.316800 -24.424200
C -18.162300 -16.612900 -24.167700
O -18.051400 -15.410700 -24.060300
H -17.900400 -25.483200 -24.819000
H -17.582300 -23.187700 -24.734400
C -17.217900 -18.865300 -24.017500
N -17.117800 -17.496700 -23.872100
C -17.090400 -25.129600 -24.469900
C -16.899700 -23.767000 -24.416700
N -16.525200 -20.976500 -23.969200
H -16.425600 -15.889200 -22.230200
H -16.248200 -26.921200 -24.032100
N -16.190900 -19.622500 -23.758000
C -16.105500 -25.982100 -24.017000
N -15.792000 -17.023000 -23.678400
C -15.717700 -23.221800 -23.902800
C -15.679300 -16.143100 -22.759800
C -15.547300 -21.777600 -23.765000
H -15.278900 -15.198900 -18.322700
O -14.914900 -15.285400 -20.283400
C -14.907600 -25.471100 -23.540600
C -14.706500 -24.105100 -23.498100
H -14.699100 -21.427300 -23.520800
C -14.531200 -14.995800 -18.922900
C -14.357200 -15.534800 -22.547000
H -14.297700 -14.047200 -18.844300
H -14.224400 -26.061100 -23.242700
C -13.978000 -15.108400 -21.270500
H -13.756900 -15.544100 -18.677700
H -13.720300 -15.659100 -24.475600
O -13.527700 -23.525300 -23.071600
C -13.471100 -15.369200 -23.605600
H -12.765100 -24.914700 -21.879100
C -12.721300 -14.557500 -21.065700
C -12.484200 -24.414900 -22.674400
H -12.455600 -14.286600 -20.195100
H -12.294400 -25.041700 -23.402900
C -12.229300 -14.786800 -23.407000
C -11.855800 -14.403400 -22.134200
H -11.677100 -23.899300 -22.467300
H -11.640800 -14.651800 -24.139800
H -10.994500 -14.029800 -21.990600
