6
Fragment
H -14.603900 -19.716400 -20.597500
H -14.539800 -19.026100 -22.812100
H -14.432500 -18.195400 -20.625700
C -14.050500 -19.035600 -20.922400
O -13.773900 -19.083600 -22.292900
H -13.269400 -19.206700 -20.505200
49
Fragment
H -23.839800 -7.341300 -22.864600
H -23.193400 -7.963300 -20.715400
H -23.157200 -17.210800 -22.387900
C -22.978400 -7.714900 -22.720900
C -22.605000 -8.098300 -21.448200
H -22.539800 -18.353200 -21.452300
H -22.378700 -7.598100 -24.660100
C -22.350100 -17.726400 -22.180800
C -22.113000 -7.869000 -23.789500
H -22.069200 -18.226200 -22.976100
C -21.363200 -8.680700 -21.249600
O -21.306500 -16.836800 -21.783600
H -21.113900 -8.970600 -20.379600
H -21.077300 -8.855600 -26.177500
C -20.856300 -8.419900 -23.584700
H -20.609800 -19.372600 -21.612500
H -20.536500 -7.358700 -26.010900
C -20.477100 -8.846300 -22.308200
C -20.303000 -8.307300 -25.932300
H -20.135100 -14.738800 -21.334400
C -20.127800 -17.416600 -21.357100
C -19.926700 -18.782600 -21.314500
O -19.919300 -8.596900 -24.571800
H -19.555300 -8.510400 -26.532500
C -19.286900 -15.089100 -21.090100
C -19.155000 -9.454600 -22.095400
C -19.116600 -16.533300 -20.952400
N -19.042300 -10.334500 -21.176800
C -18.728800 -19.293600 -20.838200
N -18.643400 -12.934000 -21.097200
H -18.586000 -20.232700 -20.823100
H -18.408600 -9.200700 -22.625000
N -18.309100 -14.288000 -20.886000
C -17.934600 -17.078500 -20.438500
C -17.743800 -18.441100 -20.385300
N -17.716500 -10.808200 -20.983100
C -17.616300 -12.176800 -20.837700
H -17.251900 -16.499200 -20.120800
H -16.933900 -18.794700 -20.036200
O -16.782900 -8.722200 -20.794900
C -16.671900 -9.924400 -20.687500
N -16.400900 -12.628300 -20.431000
H -16.285700 -13.482700 -20.319400
C -15.442900 -10.594000 -20.219900
N -15.318400 -11.867100 -20.103300
H -14.591300 -8.993400 -19.278800
C -14.289400 -9.703500 -19.882800
H -13.933900 -9.305000 -20.703900
H -13.588300 -10.229400 -19.444100
55
Fragment
H -14.603900 -19.716400 -20.597500
H -14.539800 -19.026100 -22.812100
H -14.432500 -18.195400 -20.625700
C -14.050500 -19.035600 -20.922400
O -13.773900 -19.083600 -22.292900
H -13.269400 -19.206700 -20.505200
H -23.839800 -7.341300 -22.864600
H -23.193400 -7.963300 -20.715400
H -23.157200 -17.210800 -22.387900
C -22.978400 -7.714900 -22.720900
C -22.605000 -8.098300 -21.448200
H -22.539800 -18.353200 -21.452300
H -22.378700 -7.598100 -24.660100
C -22.350100 -17.726400 -22.180800
C -22.113000 -7.869000 -23.789500
H -22.069200 -18.226200 -22.976100
C -21.363200 -8.680700 -21.249600
O -21.306500 -16.836800 -21.783600
H -21.113900 -8.970600 -20.379600
H -21.077300 -8.855600 -26.177500
C -20.856300 -8.419900 -23.584700
H -20.609800 -19.372600 -21.612500
H -20.536500 -7.358700 -26.010900
C -20.477100 -8.846300 -22.308200
C -20.303000 -8.307300 -25.932300
H -20.135100 -14.738800 -21.334400
C -20.127800 -17.416600 -21.357100
C -19.926700 -18.782600 -21.314500
O -19.919300 -8.596900 -24.571800
H -19.555300 -8.510400 -26.532500
C -19.286900 -15.089100 -21.090100
C -19.155000 -9.454600 -22.095400
C -19.116600 -16.533300 -20.952400
N -19.042300 -10.334500 -21.176800
C -18.728800 -19.293600 -20.838200
N -18.643400 -12.934000 -21.097200
H -18.586000 -20.232700 -20.823100
H -18.408600 -9.200700 -22.625000
N -18.309100 -14.288000 -20.886000
C -17.934600 -17.078500 -20.438500
C -17.743800 -18.441100 -20.385300
N -17.716500 -10.808200 -20.983100
C -17.616300 -12.176800 -20.837700
H -17.251900 -16.499200 -20.120800
H -16.933900 -18.794700 -20.036200
O -16.782900 -8.722200 -20.794900
C -16.671900 -9.924400 -20.687500
N -16.400900 -12.628300 -20.431000
H -16.285700 -13.482700 -20.319400
C -15.442900 -10.594000 -20.219900
N -15.318400 -11.867100 -20.103300
H -14.591300 -8.993400 -19.278800
C -14.289400 -9.703500 -19.882800
H -13.933900 -9.305000 -20.703900
H -13.588300 -10.229400 -19.444100
