6
Fragment
H -14.603900 -19.716400 -20.597500
H -14.539800 -19.026100 -22.812100
H -14.432500 -18.195400 -20.625700
C -14.050500 -19.035600 -20.922400
O -13.773900 -19.083600 -22.292900
H -13.269400 -19.206700 -20.505200
49
Fragment
H -23.839800 -20.718300 -22.864600
H -23.193400 -21.340300 -20.715400
H -23.157200 -30.587800 -22.387900
C -22.978400 -21.091900 -22.720900
C -22.605000 -21.475300 -21.448200
H -22.539800 -31.730200 -21.452300
H -22.378700 -20.975100 -24.660100
C -22.350100 -31.103400 -22.180800
C -22.113000 -21.246000 -23.789500
H -22.069200 -31.603200 -22.976100
C -21.363200 -22.057700 -21.249600
O -21.306500 -30.213800 -21.783600
H -21.113900 -22.347600 -20.379600
H -21.077300 -22.232600 -26.177500
C -20.856300 -21.796900 -23.584700
H -20.609800 -32.749600 -21.612500
H -20.536500 -20.735700 -26.010900
C -20.477100 -22.223300 -22.308200
C -20.303000 -21.684300 -25.932300
H -20.135100 -28.115800 -21.334400
C -20.127800 -30.793600 -21.357100
C -19.926700 -32.159600 -21.314500
O -19.919300 -21.973900 -24.571800
H -19.555300 -21.887400 -26.532500
C -19.286900 -28.466100 -21.090100
C -19.155000 -22.831600 -22.095400
C -19.116600 -29.910300 -20.952400
N -19.042300 -23.711500 -21.176800
C -18.728800 -32.670600 -20.838200
N -18.643400 -26.311000 -21.097200
H -18.586000 -33.609700 -20.823100
H -18.408600 -22.577700 -22.625000
N -18.309100 -27.665000 -20.886000
C -17.934600 -30.455500 -20.438500
C -17.743800 -31.818100 -20.385300
N -17.716500 -24.185200 -20.983100
C -17.616300 -25.553800 -20.837700
H -17.251900 -29.876200 -20.120800
H -16.933900 -32.171700 -20.036200
O -16.782900 -22.099200 -20.794900
C -16.671900 -23.301400 -20.687500
N -16.400900 -26.005300 -20.431000
H -16.285700 -26.859700 -20.319400
C -15.442900 -23.971000 -20.219900
N -15.318400 -25.244100 -20.103300
H -14.591300 -22.370400 -19.278800
C -14.289400 -23.080500 -19.882800
H -13.933900 -22.682000 -20.703900
H -13.588300 -23.606400 -19.444100
55
Fragment
H -14.603900 -19.716400 -20.597500
H -14.539800 -19.026100 -22.812100
H -14.432500 -18.195400 -20.625700
C -14.050500 -19.035600 -20.922400
O -13.773900 -19.083600 -22.292900
H -13.269400 -19.206700 -20.505200
H -23.839800 -20.718300 -22.864600
H -23.193400 -21.340300 -20.715400
H -23.157200 -30.587800 -22.387900
C -22.978400 -21.091900 -22.720900
C -22.605000 -21.475300 -21.448200
H -22.539800 -31.730200 -21.452300
H -22.378700 -20.975100 -24.660100
C -22.350100 -31.103400 -22.180800
C -22.113000 -21.246000 -23.789500
H -22.069200 -31.603200 -22.976100
C -21.363200 -22.057700 -21.249600
O -21.306500 -30.213800 -21.783600
H -21.113900 -22.347600 -20.379600
H -21.077300 -22.232600 -26.177500
C -20.856300 -21.796900 -23.584700
H -20.609800 -32.749600 -21.612500
H -20.536500 -20.735700 -26.010900
C -20.477100 -22.223300 -22.308200
C -20.303000 -21.684300 -25.932300
H -20.135100 -28.115800 -21.334400
C -20.127800 -30.793600 -21.357100
C -19.926700 -32.159600 -21.314500
O -19.919300 -21.973900 -24.571800
H -19.555300 -21.887400 -26.532500
C -19.286900 -28.466100 -21.090100
C -19.155000 -22.831600 -22.095400
C -19.116600 -29.910300 -20.952400
N -19.042300 -23.711500 -21.176800
C -18.728800 -32.670600 -20.838200
N -18.643400 -26.311000 -21.097200
H -18.586000 -33.609700 -20.823100
H -18.408600 -22.577700 -22.625000
N -18.309100 -27.665000 -20.886000
C -17.934600 -30.455500 -20.438500
C -17.743800 -31.818100 -20.385300
N -17.716500 -24.185200 -20.983100
C -17.616300 -25.553800 -20.837700
H -17.251900 -29.876200 -20.120800
H -16.933900 -32.171700 -20.036200
O -16.782900 -22.099200 -20.794900
C -16.671900 -23.301400 -20.687500
N -16.400900 -26.005300 -20.431000
H -16.285700 -26.859700 -20.319400
C -15.442900 -23.971000 -20.219900
N -15.318400 -25.244100 -20.103300
H -14.591300 -22.370400 -19.278800
C -14.289400 -23.080500 -19.882800
H -13.933900 -22.682000 -20.703900
H -13.588300 -23.606400 -19.444100
