6
Fragment
H -9.785900 -19.498600 -24.966700
C -8.952300 -19.868400 -24.590600
H -8.836200 -20.754700 -24.719400
C -8.766300 -19.511100 -23.200600
N -8.624700 -19.231200 -22.108200
H -8.338000 -19.348600 -25.152200
34
Fragment
H -18.117500 -22.596300 -26.895900
H -17.486500 -22.420500 -28.308800
C -17.286100 -22.347800 -27.358300
O -17.187600 -25.196500 -27.781800
H -17.105100 -21.413200 -27.140200
C -16.246900 -24.659300 -27.212000
C -16.159400 -23.218800 -26.936300
H -15.660900 -26.950100 -27.698200
N -15.233900 -26.798800 -26.903500
N -15.175100 -25.385700 -26.784600
N -15.158700 -22.685400 -26.325400
H -14.367500 -27.071700 -26.920700
N -14.147100 -23.502300 -25.939000
C -14.086400 -24.850900 -26.135400
H -13.429400 -23.125000 -25.445900
N -13.121500 -25.634700 -25.787100
N -12.137900 -24.903200 -25.097500
C -11.126300 -25.603400 -24.770400
H -11.071600 -26.575500 -25.025500
H -10.711600 -23.137100 -23.897000
C -10.022400 -25.053100 -24.002400
C -9.966300 -23.699900 -23.636700
H -9.055300 -26.801300 -23.838300
C -8.983500 -25.871800 -23.586400
C -8.924600 -23.215800 -22.897900
H -8.906900 -22.304200 -22.615500
C -7.933300 -25.396100 -22.834100
C -7.899500 -24.055800 -22.488900
H -7.236300 -25.975200 -22.535100
O -6.920900 -23.468000 -21.742300
H -5.994400 -25.020600 -20.907400
C -5.750800 -24.238600 -21.464800
H -5.319500 -24.535200 -22.352700
H -5.122000 -23.610400 -20.953700
40
Fragment
H -9.785900 -19.498600 -24.966700
C -8.952300 -19.868400 -24.590600
H -8.836200 -20.754700 -24.719400
C -8.766300 -19.511100 -23.200600
N -8.624700 -19.231200 -22.108200
H -8.338000 -19.348600 -25.152200
H -18.117500 -22.596300 -26.895900
H -17.486500 -22.420500 -28.308800
C -17.286100 -22.347800 -27.358300
O -17.187600 -25.196500 -27.781800
H -17.105100 -21.413200 -27.140200
C -16.246900 -24.659300 -27.212000
C -16.159400 -23.218800 -26.936300
H -15.660900 -26.950100 -27.698200
N -15.233900 -26.798800 -26.903500
N -15.175100 -25.385700 -26.784600
N -15.158700 -22.685400 -26.325400
H -14.367500 -27.071700 -26.920700
N -14.147100 -23.502300 -25.939000
C -14.086400 -24.850900 -26.135400
H -13.429400 -23.125000 -25.445900
N -13.121500 -25.634700 -25.787100
N -12.137900 -24.903200 -25.097500
C -11.126300 -25.603400 -24.770400
H -11.071600 -26.575500 -25.025500
H -10.711600 -23.137100 -23.897000
C -10.022400 -25.053100 -24.002400
C -9.966300 -23.699900 -23.636700
H -9.055300 -26.801300 -23.838300
C -8.983500 -25.871800 -23.586400
C -8.924600 -23.215800 -22.897900
H -8.906900 -22.304200 -22.615500
C -7.933300 -25.396100 -22.834100
C -7.899500 -24.055800 -22.488900
H -7.236300 -25.975200 -22.535100
O -6.920900 -23.468000 -21.742300
H -5.994400 -25.020600 -20.907400
C -5.750800 -24.238600 -21.464800
H -5.319500 -24.535200 -22.352700
H -5.122000 -23.610400 -20.953700
