6
Fragment
H -9.785900 -19.498600 -24.966700
C -8.952300 -19.868400 -24.590600
H -8.836200 -20.754700 -24.719400
C -8.766300 -19.511100 -23.200600
N -8.624700 -19.231200 -22.108200
H -8.338000 -19.348600 -25.152200
34
Fragment
H -10.923300 -24.727200 -19.166800
H -10.292300 -24.903000 -20.579700
C -10.092000 -24.975700 -19.629100
O -9.993500 -22.127000 -20.052700
H -9.910900 -25.910300 -19.411000
C -9.052700 -22.664200 -19.482900
C -8.965200 -24.104700 -19.207100
H -8.466800 -20.373400 -19.969000
N -8.039700 -20.524700 -19.174300
N -7.981000 -21.937800 -19.055500
N -7.964600 -24.638100 -18.596200
H -7.173300 -20.251800 -19.191500
N -6.952900 -23.821200 -18.209900
C -6.892200 -22.472600 -18.406200
H -6.235200 -24.198500 -17.716800
N -5.927300 -21.688800 -18.057900
N -4.943800 -22.420300 -17.368300
C -3.932200 -21.720100 -17.041200
H -3.877400 -20.748000 -17.296300
H -3.517500 -24.186400 -16.167900
C -2.828300 -22.270400 -16.273300
C -2.772100 -23.623600 -15.907500
H -1.861100 -20.522200 -16.109100
C -1.789400 -21.451700 -15.857300
C -1.730500 -24.107700 -15.168800
H -1.712800 -25.019300 -14.886400
C -0.739100 -21.927400 -15.104900
C -0.705300 -23.267700 -14.759800
H -0.042100 -21.348300 -14.806000
O 0.273300 -23.855500 -14.013100
H 1.199700 -22.302900 -13.178200
C 1.443300 -23.084900 -13.735600
H 1.874600 -22.788300 -14.623600
H 2.072200 -23.713100 -13.224600
40
Fragment
H -9.785900 -19.498600 -24.966700
C -8.952300 -19.868400 -24.590600
H -8.836200 -20.754700 -24.719400
C -8.766300 -19.511100 -23.200600
N -8.624700 -19.231200 -22.108200
H -8.338000 -19.348600 -25.152200
H -10.923300 -24.727200 -19.166800
H -10.292300 -24.903000 -20.579700
C -10.092000 -24.975700 -19.629100
O -9.993500 -22.127000 -20.052700
H -9.910900 -25.910300 -19.411000
C -9.052700 -22.664200 -19.482900
C -8.965200 -24.104700 -19.207100
H -8.466800 -20.373400 -19.969000
N -8.039700 -20.524700 -19.174300
N -7.981000 -21.937800 -19.055500
N -7.964600 -24.638100 -18.596200
H -7.173300 -20.251800 -19.191500
N -6.952900 -23.821200 -18.209900
C -6.892200 -22.472600 -18.406200
H -6.235200 -24.198500 -17.716800
N -5.927300 -21.688800 -18.057900
N -4.943800 -22.420300 -17.368300
C -3.932200 -21.720100 -17.041200
H -3.877400 -20.748000 -17.296300
H -3.517500 -24.186400 -16.167900
C -2.828300 -22.270400 -16.273300
C -2.772100 -23.623600 -15.907500
H -1.861100 -20.522200 -16.109100
C -1.789400 -21.451700 -15.857300
C -1.730500 -24.107700 -15.168800
H -1.712800 -25.019300 -14.886400
C -0.739100 -21.927400 -15.104900
C -0.705300 -23.267700 -14.759800
H -0.042100 -21.348300 -14.806000
O 0.273300 -23.855500 -14.013100
H 1.199700 -22.302900 -13.178200
C 1.443300 -23.084900 -13.735600
H 1.874600 -22.788300 -14.623600
H 2.072200 -23.713100 -13.224600
