24
Fragment
H -8.117000 -14.070500 -37.366200
C -7.263400 -13.600900 -37.475000
H -7.254200 -13.135100 -38.337800
H -7.153800 -12.950600 -36.749800
N -6.544100 -15.129000 -35.093500
N -6.169000 -14.565200 -37.431900
H -6.112800 -16.072700 -33.353100
C -5.866800 -15.929700 -34.259900
C -5.857500 -15.214300 -36.260200
O -5.734100 -14.366700 -39.651800
C -5.432800 -14.836000 -38.566300
N -4.806000 -16.507500 -34.841100
C -4.784700 -16.046600 -36.149800
N -4.297300 -15.637000 -38.404700
H -4.157400 -17.634700 -33.304900
H -3.915500 -16.693300 -40.080500
C -3.907900 -16.323300 -37.239900
C -3.840600 -17.399300 -34.201100
H -3.742500 -18.214200 -34.738100
H -3.554600 -15.140300 -40.212400
C -3.527300 -15.919900 -39.619800
H -2.973700 -16.946900 -34.131800
O -2.917800 -17.042300 -37.223600
H -2.597700 -16.114800 -39.380400
16
Fragment
H -7.443300 -11.156900 -33.824900
O -6.720000 -11.559100 -33.970200
O -5.831500 -9.830100 -32.847700
C -5.728100 -10.877200 -33.448200
H -5.213500 -13.416800 -33.218600
H -4.770200 -13.311500 -31.153700
O -4.514100 -12.622400 -31.559600
C -4.404600 -12.901000 -32.935500
C -4.394700 -11.565000 -33.683100
H -4.308300 -11.754500 -34.662000
H -3.504100 -10.349800 -32.574300
O -3.315400 -10.736900 -33.296000
C -3.165800 -13.730700 -33.256200
O -2.973700 -13.838300 -34.551200
O -2.468900 -14.256200 -32.422300
H -2.286100 -14.299100 -34.695000
40
Fragment
H -8.117000 -14.070500 -37.366200
C -7.263400 -13.600900 -37.475000
H -7.254200 -13.135100 -38.337800
H -7.153800 -12.950600 -36.749800
N -6.544100 -15.129000 -35.093500
N -6.169000 -14.565200 -37.431900
H -6.112800 -16.072700 -33.353100
C -5.866800 -15.929700 -34.259900
C -5.857500 -15.214300 -36.260200
O -5.734100 -14.366700 -39.651800
C -5.432800 -14.836000 -38.566300
N -4.806000 -16.507500 -34.841100
C -4.784700 -16.046600 -36.149800
N -4.297300 -15.637000 -38.404700
H -4.157400 -17.634700 -33.304900
H -3.915500 -16.693300 -40.080500
C -3.907900 -16.323300 -37.239900
C -3.840600 -17.399300 -34.201100
H -3.742500 -18.214200 -34.738100
H -3.554600 -15.140300 -40.212400
C -3.527300 -15.919900 -39.619800
H -2.973700 -16.946900 -34.131800
O -2.917800 -17.042300 -37.223600
H -2.597700 -16.114800 -39.380400
H -7.443300 -11.156900 -33.824900
O -6.720000 -11.559100 -33.970200
O -5.831500 -9.830100 -32.847700
C -5.728100 -10.877200 -33.448200
H -5.213500 -13.416800 -33.218600
H -4.770200 -13.311500 -31.153700
O -4.514100 -12.622400 -31.559600
C -4.404600 -12.901000 -32.935500
C -4.394700 -11.565000 -33.683100
H -4.308300 -11.754500 -34.662000
H -3.504100 -10.349800 -32.574300
O -3.315400 -10.736900 -33.296000
C -3.165800 -13.730700 -33.256200
O -2.973700 -13.838300 -34.551200
O -2.468900 -14.256200 -32.422300
H -2.286100 -14.299100 -34.695000
