24
Fragment
H -8.117000 -14.070500 -37.366200
C -7.263400 -13.600900 -37.475000
H -7.254200 -13.135100 -38.337800
H -7.153800 -12.950600 -36.749800
N -6.544100 -15.129000 -35.093500
N -6.169000 -14.565200 -37.431900
H -6.112800 -16.072700 -33.353100
C -5.866800 -15.929700 -34.259900
C -5.857500 -15.214300 -36.260200
O -5.734100 -14.366700 -39.651800
C -5.432800 -14.836000 -38.566300
N -4.806000 -16.507500 -34.841100
C -4.784700 -16.046600 -36.149800
N -4.297300 -15.637000 -38.404700
H -4.157400 -17.634700 -33.304900
H -3.915500 -16.693300 -40.080500
C -3.907900 -16.323300 -37.239900
C -3.840600 -17.399300 -34.201100
H -3.742500 -18.214200 -34.738100
H -3.554600 -15.140300 -40.212400
C -3.527300 -15.919900 -39.619800
H -2.973700 -16.946900 -34.131800
O -2.917800 -17.042300 -37.223600
H -2.597700 -16.114800 -39.380400
24
Fragment
H -11.018200 -10.994500 -38.736000
C -10.164600 -11.464100 -38.627200
H -10.155400 -11.929900 -37.764400
H -10.055000 -12.114400 -39.352400
N -9.445300 -9.936000 -41.008700
N -9.070200 -10.499800 -38.670300
H -9.014000 -8.992300 -42.749100
C -8.768000 -9.135300 -41.842300
C -8.758700 -9.850700 -39.842000
O -8.635300 -10.698300 -36.450400
C -8.334000 -10.229000 -37.535900
N -7.707200 -8.557500 -41.261100
C -7.685900 -9.018400 -39.952400
N -7.198500 -9.428000 -37.697500
H -7.058600 -7.430300 -42.797300
H -6.816700 -8.371700 -36.021700
C -6.809100 -8.741700 -38.862300
C -6.741800 -7.665700 -41.901100
H -6.643700 -6.850800 -41.364100
H -6.455800 -9.924700 -35.889800
C -6.428500 -9.145100 -36.482400
H -5.874900 -8.118100 -41.970400
O -5.819000 -8.022700 -38.878600
H -5.498900 -8.950200 -36.721800
48
Fragment
H -8.117000 -14.070500 -37.366200
C -7.263400 -13.600900 -37.475000
H -7.254200 -13.135100 -38.337800
H -7.153800 -12.950600 -36.749800
N -6.544100 -15.129000 -35.093500
N -6.169000 -14.565200 -37.431900
H -6.112800 -16.072700 -33.353100
C -5.866800 -15.929700 -34.259900
C -5.857500 -15.214300 -36.260200
O -5.734100 -14.366700 -39.651800
C -5.432800 -14.836000 -38.566300
N -4.806000 -16.507500 -34.841100
C -4.784700 -16.046600 -36.149800
N -4.297300 -15.637000 -38.404700
H -4.157400 -17.634700 -33.304900
H -3.915500 -16.693300 -40.080500
C -3.907900 -16.323300 -37.239900
C -3.840600 -17.399300 -34.201100
H -3.742500 -18.214200 -34.738100
H -3.554600 -15.140300 -40.212400
C -3.527300 -15.919900 -39.619800
H -2.973700 -16.946900 -34.131800
O -2.917800 -17.042300 -37.223600
H -2.597700 -16.114800 -39.380400
H -11.018200 -10.994500 -38.736000
C -10.164600 -11.464100 -38.627200
H -10.155400 -11.929900 -37.764400
H -10.055000 -12.114400 -39.352400
N -9.445300 -9.936000 -41.008700
N -9.070200 -10.499800 -38.670300
H -9.014000 -8.992300 -42.749100
C -8.768000 -9.135300 -41.842300
C -8.758700 -9.850700 -39.842000
O -8.635300 -10.698300 -36.450400
C -8.334000 -10.229000 -37.535900
N -7.707200 -8.557500 -41.261100
C -7.685900 -9.018400 -39.952400
N -7.198500 -9.428000 -37.697500
H -7.058600 -7.430300 -42.797300
H -6.816700 -8.371700 -36.021700
C -6.809100 -8.741700 -38.862300
C -6.741800 -7.665700 -41.901100
H -6.643700 -6.850800 -41.364100
H -6.455800 -9.924700 -35.889800
C -6.428500 -9.145100 -36.482400
H -5.874900 -8.118100 -41.970400
O -5.819000 -8.022700 -38.878600
H -5.498900 -8.950200 -36.721800
