34
Fragment
O -24.004500 -11.140700 -21.714200
H -23.412400 -12.250600 -20.455500
C -23.362400 -11.385200 -20.794500
H -22.819300 -8.776800 -21.189400
C -22.463800 -10.435800 -20.104300
H -22.375800 -4.358700 -16.743800
C -22.328500 -9.108100 -20.473300
H -22.200500 -6.351800 -17.909500
H -21.805000 -11.814400 -18.780100
C -21.728000 -10.922300 -19.030200
C -21.559100 -4.803800 -16.767000
C -21.473800 -8.273900 -19.790000
C -21.465600 -5.995800 -17.465400
H -21.381100 -7.386500 -20.052400
C -20.886200 -10.086600 -18.335900
C -20.757200 -8.753200 -18.718600
H -20.598100 -3.466300 -15.640900
C -20.491000 -4.261000 -16.109700
H -20.402100 -10.411500 -17.610200
C -20.242200 -6.638000 -17.476300
N -19.893400 -7.893700 -17.994300
C -19.255500 -4.876700 -16.134300
C -19.122100 -6.089600 -16.829900
C -18.550900 -8.151200 -17.671700
H -18.526400 -4.495800 -15.699700
H -18.121100 -9.982800 -18.411100
C -18.047400 -7.037600 -16.977500
C -17.770900 -9.246500 -17.964200
C -16.698900 -7.011900 -16.605800
C -16.455300 -9.212100 -17.569200
H -16.332800 -6.274700 -16.171200
C -15.930800 -8.118400 -16.905100
H -15.906200 -9.939700 -17.752400
H -15.035400 -8.128800 -16.653600
34
Fragment
O -26.602000 -19.149000 -21.714200
H -26.009800 -20.258900 -20.455500
C -25.959900 -19.393500 -20.794500
H -25.416700 -16.785100 -21.189400
C -25.061200 -18.444100 -20.104300
H -24.973200 -12.367000 -16.743800
C -24.925900 -17.116400 -20.473300
H -24.797900 -14.360100 -17.909500
H -24.402400 -19.822700 -18.780100
C -24.325400 -18.930600 -19.030200
C -24.156500 -12.812100 -16.767000
C -24.071300 -16.282200 -19.790000
C -24.063000 -14.004100 -17.465400
H -23.978500 -15.394800 -20.052400
C -23.483700 -18.094900 -18.335900
C -23.354600 -16.761500 -18.718600
H -23.195500 -11.474700 -15.640900
C -23.088400 -12.269300 -16.109700
H -22.999500 -18.419800 -17.610200
C -22.839700 -14.646300 -17.476300
N -22.490800 -15.902000 -17.994300
C -21.852900 -12.885000 -16.134300
C -21.719500 -14.097900 -16.829900
C -21.148300 -16.159500 -17.671700
H -21.123800 -12.504200 -15.699700
H -20.718500 -17.991100 -18.411100
C -20.644800 -15.045900 -16.977500
C -20.368300 -17.254800 -17.964200
C -19.296300 -15.020200 -16.605800
C -19.052800 -17.220400 -17.569200
H -18.930200 -14.283000 -16.171200
C -18.528200 -16.126700 -16.905100
H -18.503600 -17.948000 -17.752400
H -17.632900 -16.137100 -16.653600
68
Fragment
O -24.004500 -11.140700 -21.714200
H -23.412400 -12.250600 -20.455500
C -23.362400 -11.385200 -20.794500
H -22.819300 -8.776800 -21.189400
C -22.463800 -10.435800 -20.104300
H -22.375800 -4.358700 -16.743800
C -22.328500 -9.108100 -20.473300
H -22.200500 -6.351800 -17.909500
H -21.805000 -11.814400 -18.780100
C -21.728000 -10.922300 -19.030200
C -21.559100 -4.803800 -16.767000
C -21.473800 -8.273900 -19.790000
C -21.465600 -5.995800 -17.465400
H -21.381100 -7.386500 -20.052400
C -20.886200 -10.086600 -18.335900
C -20.757200 -8.753200 -18.718600
H -20.598100 -3.466300 -15.640900
C -20.491000 -4.261000 -16.109700
H -20.402100 -10.411500 -17.610200
C -20.242200 -6.638000 -17.476300
N -19.893400 -7.893700 -17.994300
C -19.255500 -4.876700 -16.134300
C -19.122100 -6.089600 -16.829900
C -18.550900 -8.151200 -17.671700
H -18.526400 -4.495800 -15.699700
H -18.121100 -9.982800 -18.411100
C -18.047400 -7.037600 -16.977500
C -17.770900 -9.246500 -17.964200
C -16.698900 -7.011900 -16.605800
C -16.455300 -9.212100 -17.569200
H -16.332800 -6.274700 -16.171200
C -15.930800 -8.118400 -16.905100
H -15.906200 -9.939700 -17.752400
H -15.035400 -8.128800 -16.653600
O -26.602000 -19.149000 -21.714200
H -26.009800 -20.258900 -20.455500
C -25.959900 -19.393500 -20.794500
H -25.416700 -16.785100 -21.189400
C -25.061200 -18.444100 -20.104300
H -24.973200 -12.367000 -16.743800
C -24.925900 -17.116400 -20.473300
H -24.797900 -14.360100 -17.909500
H -24.402400 -19.822700 -18.780100
C -24.325400 -18.930600 -19.030200
C -24.156500 -12.812100 -16.767000
C -24.071300 -16.282200 -19.790000
C -24.063000 -14.004100 -17.465400
H -23.978500 -15.394800 -20.052400
C -23.483700 -18.094900 -18.335900
C -23.354600 -16.761500 -18.718600
H -23.195500 -11.474700 -15.640900
C -23.088400 -12.269300 -16.109700
H -22.999500 -18.419800 -17.610200
C -22.839700 -14.646300 -17.476300
N -22.490800 -15.902000 -17.994300
C -21.852900 -12.885000 -16.134300
C -21.719500 -14.097900 -16.829900
C -21.148300 -16.159500 -17.671700
H -21.123800 -12.504200 -15.699700
H -20.718500 -17.991100 -18.411100
C -20.644800 -15.045900 -16.977500
C -20.368300 -17.254800 -17.964200
C -19.296300 -15.020200 -16.605800
C -19.052800 -17.220400 -17.569200
H -18.930200 -14.283000 -16.171200
C -18.528200 -16.126700 -16.905100
H -18.503600 -17.948000 -17.752400
H -17.632900 -16.137100 -16.653600
