34
Fragment
O -24.004500 -11.140700 -21.714200
H -23.412400 -12.250600 -20.455500
C -23.362400 -11.385200 -20.794500
H -22.819300 -8.776800 -21.189400
C -22.463800 -10.435800 -20.104300
H -22.375800 -4.358700 -16.743800
C -22.328500 -9.108100 -20.473300
H -22.200500 -6.351800 -17.909500
H -21.805000 -11.814400 -18.780100
C -21.728000 -10.922300 -19.030200
C -21.559100 -4.803800 -16.767000
C -21.473800 -8.273900 -19.790000
C -21.465600 -5.995800 -17.465400
H -21.381100 -7.386500 -20.052400
C -20.886200 -10.086600 -18.335900
C -20.757200 -8.753200 -18.718600
H -20.598100 -3.466300 -15.640900
C -20.491000 -4.261000 -16.109700
H -20.402100 -10.411500 -17.610200
C -20.242200 -6.638000 -17.476300
N -19.893400 -7.893700 -17.994300
C -19.255500 -4.876700 -16.134300
C -19.122100 -6.089600 -16.829900
C -18.550900 -8.151200 -17.671700
H -18.526400 -4.495800 -15.699700
H -18.121100 -9.982800 -18.411100
C -18.047400 -7.037600 -16.977500
C -17.770900 -9.246500 -17.964200
C -16.698900 -7.011900 -16.605800
C -16.455300 -9.212100 -17.569200
H -16.332800 -6.274700 -16.171200
C -15.930800 -8.118400 -16.905100
H -15.906200 -9.939700 -17.752400
H -15.035400 -8.128800 -16.653600
34
Fragment
H -32.836900 -7.628500 -24.344900
H -31.966200 -5.817500 -23.246200
C -31.941600 -7.638900 -24.093500
H -31.539600 -9.482500 -24.827400
C -31.417000 -6.545100 -23.429300
C -31.173500 -8.745300 -24.392800
C -30.101500 -6.510800 -23.034400
C -29.825000 -8.719600 -24.021100
H -29.751300 -5.774400 -22.587500
H -29.346000 -11.261400 -25.298800
C -29.321500 -7.606100 -23.326800
C -28.750300 -9.667700 -24.168600
C -28.616900 -10.880600 -24.864300
N -27.979000 -7.863600 -23.004300
C -27.630100 -9.119200 -23.522200
H -27.470300 -5.345700 -23.388300
C -27.381400 -11.496200 -24.888900
H -27.274300 -12.290900 -25.357600
C -27.115200 -7.004100 -22.280000
C -26.986100 -5.670700 -22.662600
H -26.491300 -8.370700 -20.946200
C -26.406800 -9.761400 -23.533200
C -26.398500 -7.483300 -21.208600
C -26.313300 -10.953400 -24.231500
C -26.144400 -4.835000 -21.968400
H -26.067400 -3.942900 -22.218500
H -25.671900 -9.405400 -23.089000
C -25.543900 -6.649200 -20.525200
H -25.496600 -11.398500 -24.254700
C -25.408600 -5.321500 -20.894200
H -25.053100 -6.980500 -19.809100
C -24.509900 -4.372100 -20.204100
H -24.460000 -3.506600 -20.543000
O -23.867800 -4.616500 -19.284400
68
Fragment
O -24.004500 -11.140700 -21.714200
H -23.412400 -12.250600 -20.455500
C -23.362400 -11.385200 -20.794500
H -22.819300 -8.776800 -21.189400
C -22.463800 -10.435800 -20.104300
H -22.375800 -4.358700 -16.743800
C -22.328500 -9.108100 -20.473300
H -22.200500 -6.351800 -17.909500
H -21.805000 -11.814400 -18.780100
C -21.728000 -10.922300 -19.030200
C -21.559100 -4.803800 -16.767000
C -21.473800 -8.273900 -19.790000
C -21.465600 -5.995800 -17.465400
H -21.381100 -7.386500 -20.052400
C -20.886200 -10.086600 -18.335900
C -20.757200 -8.753200 -18.718600
H -20.598100 -3.466300 -15.640900
C -20.491000 -4.261000 -16.109700
H -20.402100 -10.411500 -17.610200
C -20.242200 -6.638000 -17.476300
N -19.893400 -7.893700 -17.994300
C -19.255500 -4.876700 -16.134300
C -19.122100 -6.089600 -16.829900
C -18.550900 -8.151200 -17.671700
H -18.526400 -4.495800 -15.699700
H -18.121100 -9.982800 -18.411100
C -18.047400 -7.037600 -16.977500
C -17.770900 -9.246500 -17.964200
C -16.698900 -7.011900 -16.605800
C -16.455300 -9.212100 -17.569200
H -16.332800 -6.274700 -16.171200
C -15.930800 -8.118400 -16.905100
H -15.906200 -9.939700 -17.752400
H -15.035400 -8.128800 -16.653600
H -32.836900 -7.628500 -24.344900
H -31.966200 -5.817500 -23.246200
C -31.941600 -7.638900 -24.093500
H -31.539600 -9.482500 -24.827400
C -31.417000 -6.545100 -23.429300
C -31.173500 -8.745300 -24.392800
C -30.101500 -6.510800 -23.034400
C -29.825000 -8.719600 -24.021100
H -29.751300 -5.774400 -22.587500
H -29.346000 -11.261400 -25.298800
C -29.321500 -7.606100 -23.326800
C -28.750300 -9.667700 -24.168600
C -28.616900 -10.880600 -24.864300
N -27.979000 -7.863600 -23.004300
C -27.630100 -9.119200 -23.522200
H -27.470300 -5.345700 -23.388300
C -27.381400 -11.496200 -24.888900
H -27.274300 -12.290900 -25.357600
C -27.115200 -7.004100 -22.280000
C -26.986100 -5.670700 -22.662600
H -26.491300 -8.370700 -20.946200
C -26.406800 -9.761400 -23.533200
C -26.398500 -7.483300 -21.208600
C -26.313300 -10.953400 -24.231500
C -26.144400 -4.835000 -21.968400
H -26.067400 -3.942900 -22.218500
H -25.671900 -9.405400 -23.089000
C -25.543900 -6.649200 -20.525200
H -25.496600 -11.398500 -24.254700
C -25.408600 -5.321500 -20.894200
H -25.053100 -6.980500 -19.809100
C -24.509900 -4.372100 -20.204100
H -24.460000 -3.506600 -20.543000
O -23.867800 -4.616500 -19.284400
