20
Fragment
O -3.680300 -10.234200 -21.776400
H -3.582000 -12.131100 -21.046300
N -2.982800 -12.691800 -21.310600
H -2.979900 -13.505700 -20.999900
N -2.747100 -10.044400 -22.565400
O -2.635100 -8.960700 -23.153600
C -2.036400 -12.333800 -22.143000
C -1.805500 -11.086100 -22.773200
C -1.068800 -13.341800 -22.502300
N -0.972400 -14.629900 -22.187800
H -0.870000 -9.018700 -23.953600
C -0.622300 -10.896400 -23.597200
N -0.353000 -9.640300 -24.121400
N -0.043900 -13.018600 -23.288300
N 0.146800 -15.060800 -22.822600
N 0.265100 -11.825600 -23.848700
N 0.683400 -9.318800 -24.998400
N 0.727500 -14.100500 -23.493300
O 0.838000 -8.121800 -25.165500
O 1.345400 -10.196800 -25.530900
3
Fragment
O -5.060100 -7.098700 -22.072100
H -5.035300 -6.400300 -22.561100
H -4.602200 -7.598600 -22.420500
23
Fragment
O -3.680300 -10.234200 -21.776400
H -3.582000 -12.131100 -21.046300
N -2.982800 -12.691800 -21.310600
H -2.979900 -13.505700 -20.999900
N -2.747100 -10.044400 -22.565400
O -2.635100 -8.960700 -23.153600
C -2.036400 -12.333800 -22.143000
C -1.805500 -11.086100 -22.773200
C -1.068800 -13.341800 -22.502300
N -0.972400 -14.629900 -22.187800
H -0.870000 -9.018700 -23.953600
C -0.622300 -10.896400 -23.597200
N -0.353000 -9.640300 -24.121400
N -0.043900 -13.018600 -23.288300
N 0.146800 -15.060800 -22.822600
N 0.265100 -11.825600 -23.848700
N 0.683400 -9.318800 -24.998400
N 0.727500 -14.100500 -23.493300
O 0.838000 -8.121800 -25.165500
O 1.345400 -10.196800 -25.530900
O -5.060100 -7.098700 -22.072100
H -5.035300 -6.400300 -22.561100
H -4.602200 -7.598600 -22.420500
