20
Fragment
O -3.680300 -10.234200 -21.776400
H -3.582000 -12.131100 -21.046300
N -2.982800 -12.691800 -21.310600
H -2.979900 -13.505700 -20.999900
N -2.747100 -10.044400 -22.565400
O -2.635100 -8.960700 -23.153600
C -2.036400 -12.333800 -22.143000
C -1.805500 -11.086100 -22.773200
C -1.068800 -13.341800 -22.502300
N -0.972400 -14.629900 -22.187800
H -0.870000 -9.018700 -23.953600
C -0.622300 -10.896400 -23.597200
N -0.353000 -9.640300 -24.121400
N -0.043900 -13.018600 -23.288300
N 0.146800 -15.060800 -22.822600
N 0.265100 -11.825600 -23.848700
N 0.683400 -9.318800 -24.998400
N 0.727500 -14.100500 -23.493300
O 0.838000 -8.121800 -25.165500
O 1.345400 -10.196800 -25.530900
20
Fragment
O -0.334500 -19.709600 -16.665700
O 0.172900 -21.784600 -17.031100
N 0.283300 -15.805900 -18.703400
N 0.327500 -20.587600 -17.198200
N 0.745800 -18.080800 -18.347900
N 0.864100 -14.845600 -19.374000
N 1.054800 -16.887800 -18.908300
N 1.363800 -20.266100 -18.075200
C 1.633100 -19.010000 -18.599400
H 1.880900 -20.887600 -18.243000
N 1.983300 -15.276500 -20.008800
C 2.079700 -16.564500 -19.694300
C 2.816400 -18.820200 -19.423400
C 3.047300 -17.572600 -20.053700
O 3.646000 -20.945600 -19.043100
N 3.758000 -19.862000 -19.631300
H 3.990800 -16.400700 -21.196800
N 3.993700 -17.214600 -20.886100
H 4.592800 -17.775200 -21.150400
O 4.691100 -19.672200 -20.420200
40
Fragment
O -3.680300 -10.234200 -21.776400
H -3.582000 -12.131100 -21.046300
N -2.982800 -12.691800 -21.310600
H -2.979900 -13.505700 -20.999900
N -2.747100 -10.044400 -22.565400
O -2.635100 -8.960700 -23.153600
C -2.036400 -12.333800 -22.143000
C -1.805500 -11.086100 -22.773200
C -1.068800 -13.341800 -22.502300
N -0.972400 -14.629900 -22.187800
H -0.870000 -9.018700 -23.953600
C -0.622300 -10.896400 -23.597200
N -0.353000 -9.640300 -24.121400
N -0.043900 -13.018600 -23.288300
N 0.146800 -15.060800 -22.822600
N 0.265100 -11.825600 -23.848700
N 0.683400 -9.318800 -24.998400
N 0.727500 -14.100500 -23.493300
O 0.838000 -8.121800 -25.165500
O 1.345400 -10.196800 -25.530900
O -0.334500 -19.709600 -16.665700
O 0.172900 -21.784600 -17.031100
N 0.283300 -15.805900 -18.703400
N 0.327500 -20.587600 -17.198200
N 0.745800 -18.080800 -18.347900
N 0.864100 -14.845600 -19.374000
N 1.054800 -16.887800 -18.908300
N 1.363800 -20.266100 -18.075200
C 1.633100 -19.010000 -18.599400
H 1.880900 -20.887600 -18.243000
N 1.983300 -15.276500 -20.008800
C 2.079700 -16.564500 -19.694300
C 2.816400 -18.820200 -19.423400
C 3.047300 -17.572600 -20.053700
O 3.646000 -20.945600 -19.043100
N 3.758000 -19.862000 -19.631300
H 3.990800 -16.400700 -21.196800
N 3.993700 -17.214600 -20.886100
H 4.592800 -17.775200 -21.150400
O 4.691100 -19.672200 -20.420200
