20
Fragment
O -3.680300 -10.234200 -21.776400
H -3.582000 -12.131100 -21.046300
N -2.982800 -12.691800 -21.310600
H -2.979900 -13.505700 -20.999900
N -2.747100 -10.044400 -22.565400
O -2.635100 -8.960700 -23.153600
C -2.036400 -12.333800 -22.143000
C -1.805500 -11.086100 -22.773200
C -1.068800 -13.341800 -22.502300
N -0.972400 -14.629900 -22.187800
H -0.870000 -9.018700 -23.953600
C -0.622300 -10.896400 -23.597200
N -0.353000 -9.640300 -24.121400
N -0.043900 -13.018600 -23.288300
N 0.146800 -15.060800 -22.822600
N 0.265100 -11.825600 -23.848700
N 0.683400 -9.318800 -24.998400
N 0.727500 -14.100500 -23.493300
O 0.838000 -8.121800 -25.165500
O 1.345400 -10.196800 -25.530900
20
Fragment
O -6.228900 -8.832900 -16.665700
O -5.721500 -10.907900 -17.031100
N -5.611100 -4.929200 -18.703400
N -5.566900 -9.710900 -17.198200
N -5.148600 -7.204100 -18.347900
N -5.030300 -3.968900 -19.374000
N -4.839600 -6.011100 -18.908300
N -4.530500 -9.389400 -18.075200
C -4.261300 -8.133300 -18.599400
H -4.013500 -10.010900 -18.243000
N -3.911100 -4.399800 -20.008800
C -3.814700 -5.687800 -19.694300
C -3.078000 -7.943500 -19.423400
C -2.847100 -6.695900 -20.053700
O -2.248400 -10.068900 -19.043100
N -2.136400 -8.985300 -19.631300
H -1.903600 -5.524000 -21.196800
N -1.900700 -6.337800 -20.886100
H -1.301600 -6.898500 -21.150400
O -1.203300 -8.795500 -20.420200
40
Fragment
O -3.680300 -10.234200 -21.776400
H -3.582000 -12.131100 -21.046300
N -2.982800 -12.691800 -21.310600
H -2.979900 -13.505700 -20.999900
N -2.747100 -10.044400 -22.565400
O -2.635100 -8.960700 -23.153600
C -2.036400 -12.333800 -22.143000
C -1.805500 -11.086100 -22.773200
C -1.068800 -13.341800 -22.502300
N -0.972400 -14.629900 -22.187800
H -0.870000 -9.018700 -23.953600
C -0.622300 -10.896400 -23.597200
N -0.353000 -9.640300 -24.121400
N -0.043900 -13.018600 -23.288300
N 0.146800 -15.060800 -22.822600
N 0.265100 -11.825600 -23.848700
N 0.683400 -9.318800 -24.998400
N 0.727500 -14.100500 -23.493300
O 0.838000 -8.121800 -25.165500
O 1.345400 -10.196800 -25.530900
O -6.228900 -8.832900 -16.665700
O -5.721500 -10.907900 -17.031100
N -5.611100 -4.929200 -18.703400
N -5.566900 -9.710900 -17.198200
N -5.148600 -7.204100 -18.347900
N -5.030300 -3.968900 -19.374000
N -4.839600 -6.011100 -18.908300
N -4.530500 -9.389400 -18.075200
C -4.261300 -8.133300 -18.599400
H -4.013500 -10.010900 -18.243000
N -3.911100 -4.399800 -20.008800
C -3.814700 -5.687800 -19.694300
C -3.078000 -7.943500 -19.423400
C -2.847100 -6.695900 -20.053700
O -2.248400 -10.068900 -19.043100
N -2.136400 -8.985300 -19.631300
H -1.903600 -5.524000 -21.196800
N -1.900700 -6.337800 -20.886100
H -1.301600 -6.898500 -21.150400
O -1.203300 -8.795500 -20.420200
