40
Fragment
H -9.215300 -15.514300 -12.893500
H -8.793600 -13.871500 -14.515800
C -8.328800 -15.204500 -13.037300
C -8.082900 -14.236700 -14.001200
H -7.459800 -16.383600 -11.623400
C -7.283600 -15.721300 -12.282200
H -7.150600 -14.467900 -17.793300
H -7.148900 -14.936500 -16.322700
N -7.079400 -14.269100 -16.911300
H -6.968500 -8.364200 -15.046500
N -6.857800 -12.734900 -19.884700
C -6.773000 -13.812600 -14.197800
C -6.657900 -13.066200 -16.532900
C -6.599600 -12.374000 -18.822100
N -6.495200 -12.817700 -15.213300
C -6.361900 -12.034800 -17.453400
H -6.154200 -6.432800 -13.970600
C -6.077900 -8.339500 -14.716600
N -6.047000 -11.625700 -14.725500
C -5.981300 -15.277700 -12.482500
C -5.828100 -10.797300 -17.017100
C -5.742000 -10.679500 -15.561400
C -5.717100 -14.318600 -13.449200
C -5.603500 -7.200400 -14.075900
C -5.459500 -9.848100 -19.289200
N -5.444200 -9.814900 -20.440600
C -5.400700 -9.773000 -17.863800
H -5.273600 -15.631600 -11.957300
C -5.246400 -9.442600 -14.873700
H -4.829800 -14.012900 -13.596600
C -4.772800 -8.556100 -17.457400
O -4.535300 -5.043400 -12.832100
C -4.303500 -7.218200 -13.596200
N -4.231200 -7.558000 -17.269400
C -3.945500 -9.435100 -14.376700
N -3.797500 -6.019900 -12.902500
C -3.459500 -8.310400 -13.720300
H -3.390300 -10.197700 -14.486700
O -2.668200 -6.059700 -12.422100
H -2.577600 -8.290800 -13.368300
40
Fragment
H -0.581400 -6.462900 -10.917800
O -0.490800 -8.694000 -11.864000
H 0.231300 -4.556000 -9.799500
C 0.300500 -6.443300 -10.565800
N 0.638400 -8.733700 -11.383600
C 0.786500 -5.318600 -9.909500
N 1.072200 -7.195700 -7.016800
C 1.144500 -7.535500 -10.689900
O 1.376200 -9.710300 -11.454100
C 1.613700 -6.197600 -6.828800
H 1.670800 -0.740800 -10.689600
C 2.087300 -5.311100 -9.412500
H 2.114500 0.877900 -12.328900
C 2.241700 -4.980700 -6.422400
N 2.285100 -4.938800 -3.845600
C 2.300500 -4.905500 -4.997000
C 2.444400 -7.553300 -10.210300
C 2.558100 -0.435100 -10.837000
C 2.583000 -4.074100 -8.724800
C 2.669100 -3.956300 -7.269100
C 2.822300 0.524000 -11.803700
N 2.887900 -3.128000 -9.560600
C 2.918800 -6.414100 -9.569600
H 2.995200 -8.320800 -10.315500
C 3.202900 -2.718800 -6.832800
N 3.336200 -1.936000 -9.072800
C 3.440600 -2.379700 -5.464000
C 3.498800 -1.687500 -7.753200
C 3.614000 -0.941100 -10.088300
N 3.698800 -2.018800 -4.401500
H 3.809400 -6.389500 -9.239700
N 3.920400 -0.484600 -7.374900
H 3.989800 0.182800 -7.963400
H 3.991600 -0.285800 -6.492900
C 4.124500 0.967600 -12.003900
H 4.300800 1.629900 -12.662800
C 4.923900 -0.517000 -10.284900
C 5.169800 0.450900 -11.248900
H 5.634500 -0.882200 -9.770300
H 6.056300 0.760700 -11.392600
80
Fragment
H -9.215300 -15.514300 -12.893500
H -8.793600 -13.871500 -14.515800
C -8.328800 -15.204500 -13.037300
C -8.082900 -14.236700 -14.001200
H -7.459800 -16.383600 -11.623400
C -7.283600 -15.721300 -12.282200
H -7.150600 -14.467900 -17.793300
H -7.148900 -14.936500 -16.322700
N -7.079400 -14.269100 -16.911300
H -6.968500 -8.364200 -15.046500
N -6.857800 -12.734900 -19.884700
C -6.773000 -13.812600 -14.197800
C -6.657900 -13.066200 -16.532900
C -6.599600 -12.374000 -18.822100
N -6.495200 -12.817700 -15.213300
C -6.361900 -12.034800 -17.453400
H -6.154200 -6.432800 -13.970600
C -6.077900 -8.339500 -14.716600
N -6.047000 -11.625700 -14.725500
C -5.981300 -15.277700 -12.482500
C -5.828100 -10.797300 -17.017100
C -5.742000 -10.679500 -15.561400
C -5.717100 -14.318600 -13.449200
C -5.603500 -7.200400 -14.075900
C -5.459500 -9.848100 -19.289200
N -5.444200 -9.814900 -20.440600
C -5.400700 -9.773000 -17.863800
H -5.273600 -15.631600 -11.957300
C -5.246400 -9.442600 -14.873700
H -4.829800 -14.012900 -13.596600
C -4.772800 -8.556100 -17.457400
O -4.535300 -5.043400 -12.832100
C -4.303500 -7.218200 -13.596200
N -4.231200 -7.558000 -17.269400
C -3.945500 -9.435100 -14.376700
N -3.797500 -6.019900 -12.902500
C -3.459500 -8.310400 -13.720300
H -3.390300 -10.197700 -14.486700
O -2.668200 -6.059700 -12.422100
H -2.577600 -8.290800 -13.368300
H -0.581400 -6.462900 -10.917800
O -0.490800 -8.694000 -11.864000
H 0.231300 -4.556000 -9.799500
C 0.300500 -6.443300 -10.565800
N 0.638400 -8.733700 -11.383600
C 0.786500 -5.318600 -9.909500
N 1.072200 -7.195700 -7.016800
C 1.144500 -7.535500 -10.689900
O 1.376200 -9.710300 -11.454100
C 1.613700 -6.197600 -6.828800
H 1.670800 -0.740800 -10.689600
C 2.087300 -5.311100 -9.412500
H 2.114500 0.877900 -12.328900
C 2.241700 -4.980700 -6.422400
N 2.285100 -4.938800 -3.845600
C 2.300500 -4.905500 -4.997000
C 2.444400 -7.553300 -10.210300
C 2.558100 -0.435100 -10.837000
C 2.583000 -4.074100 -8.724800
C 2.669100 -3.956300 -7.269100
C 2.822300 0.524000 -11.803700
N 2.887900 -3.128000 -9.560600
C 2.918800 -6.414100 -9.569600
H 2.995200 -8.320800 -10.315500
C 3.202900 -2.718800 -6.832800
N 3.336200 -1.936000 -9.072800
C 3.440600 -2.379700 -5.464000
C 3.498800 -1.687500 -7.753200
C 3.614000 -0.941100 -10.088300
N 3.698800 -2.018800 -4.401500
H 3.809400 -6.389500 -9.239700
N 3.920400 -0.484600 -7.374900
H 3.989800 0.182800 -7.963400
H 3.991600 -0.285800 -6.492900
C 4.124500 0.967600 -12.003900
H 4.300800 1.629900 -12.662800
C 4.923900 -0.517000 -10.284900
C 5.169800 0.450900 -11.248900
H 5.634500 -0.882200 -9.770300
H 6.056300 0.760700 -11.392600
