40
Fragment
H -9.215300 -15.514300 -12.893500
H -8.793600 -13.871500 -14.515800
C -8.328800 -15.204500 -13.037300
C -8.082900 -14.236700 -14.001200
H -7.459800 -16.383600 -11.623400
C -7.283600 -15.721300 -12.282200
H -7.150600 -14.467900 -17.793300
H -7.148900 -14.936500 -16.322700
N -7.079400 -14.269100 -16.911300
H -6.968500 -8.364200 -15.046500
N -6.857800 -12.734900 -19.884700
C -6.773000 -13.812600 -14.197800
C -6.657900 -13.066200 -16.532900
C -6.599600 -12.374000 -18.822100
N -6.495200 -12.817700 -15.213300
C -6.361900 -12.034800 -17.453400
H -6.154200 -6.432800 -13.970600
C -6.077900 -8.339500 -14.716600
N -6.047000 -11.625700 -14.725500
C -5.981300 -15.277700 -12.482500
C -5.828100 -10.797300 -17.017100
C -5.742000 -10.679500 -15.561400
C -5.717100 -14.318600 -13.449200
C -5.603500 -7.200400 -14.075900
C -5.459500 -9.848100 -19.289200
N -5.444200 -9.814900 -20.440600
C -5.400700 -9.773000 -17.863800
H -5.273600 -15.631600 -11.957300
C -5.246400 -9.442600 -14.873700
H -4.829800 -14.012900 -13.596600
C -4.772800 -8.556100 -17.457400
O -4.535300 -5.043400 -12.832100
C -4.303500 -7.218200 -13.596200
N -4.231200 -7.558000 -17.269400
C -3.945500 -9.435100 -14.376700
N -3.797500 -6.019900 -12.902500
C -3.459500 -8.310400 -13.720300
H -3.390300 -10.197700 -14.486700
O -2.668200 -6.059700 -12.422100
H -2.577600 -8.290800 -13.368300
40
Fragment
H -6.779200 -19.026900 -10.917800
O -6.688500 -21.258000 -11.864000
H -5.966500 -17.120000 -9.799500
C -5.897300 -19.007300 -10.565800
N -5.559300 -21.297700 -11.383600
C -5.411200 -17.882600 -9.909500
N -5.125600 -19.759700 -7.016800
C -5.053200 -20.099500 -10.689900
O -4.821500 -22.274300 -11.454100
C -4.584000 -18.761600 -6.828800
H -4.526900 -13.304800 -10.689600
C -4.110400 -17.875000 -9.412500
H -4.083200 -11.686100 -12.328900
C -3.956000 -17.544600 -6.422400
N -3.912600 -17.502800 -3.845600
C -3.897200 -17.469500 -4.997000
C -3.753300 -20.117300 -10.210300
C -3.639700 -12.999100 -10.837000
C -3.614700 -16.638100 -8.724800
C -3.528700 -16.520300 -7.269100
C -3.375400 -12.040000 -11.803700
N -3.309800 -15.692000 -9.560600
C -3.278900 -18.978100 -9.569600
H -3.202600 -20.884800 -10.315500
C -2.994800 -15.282800 -6.832800
N -2.861600 -14.500000 -9.072800
C -2.757200 -14.943700 -5.464000
C -2.698900 -14.251500 -7.753200
C -2.583700 -13.505000 -10.088300
N -2.498900 -14.582800 -4.401500
H -2.388300 -18.953500 -9.239700
N -2.277300 -13.048600 -7.374900
H -2.207900 -12.381100 -7.963400
H -2.206100 -12.849700 -6.492900
C -2.073200 -11.596300 -12.003900
H -1.896900 -10.934100 -12.662800
C -1.273800 -13.081000 -10.284900
C -1.027900 -12.113100 -11.248900
H -0.563200 -13.446200 -9.770300
H -0.141400 -11.803300 -11.392600
80
Fragment
H -9.215300 -15.514300 -12.893500
H -8.793600 -13.871500 -14.515800
C -8.328800 -15.204500 -13.037300
C -8.082900 -14.236700 -14.001200
H -7.459800 -16.383600 -11.623400
C -7.283600 -15.721300 -12.282200
H -7.150600 -14.467900 -17.793300
H -7.148900 -14.936500 -16.322700
N -7.079400 -14.269100 -16.911300
H -6.968500 -8.364200 -15.046500
N -6.857800 -12.734900 -19.884700
C -6.773000 -13.812600 -14.197800
C -6.657900 -13.066200 -16.532900
C -6.599600 -12.374000 -18.822100
N -6.495200 -12.817700 -15.213300
C -6.361900 -12.034800 -17.453400
H -6.154200 -6.432800 -13.970600
C -6.077900 -8.339500 -14.716600
N -6.047000 -11.625700 -14.725500
C -5.981300 -15.277700 -12.482500
C -5.828100 -10.797300 -17.017100
C -5.742000 -10.679500 -15.561400
C -5.717100 -14.318600 -13.449200
C -5.603500 -7.200400 -14.075900
C -5.459500 -9.848100 -19.289200
N -5.444200 -9.814900 -20.440600
C -5.400700 -9.773000 -17.863800
H -5.273600 -15.631600 -11.957300
C -5.246400 -9.442600 -14.873700
H -4.829800 -14.012900 -13.596600
C -4.772800 -8.556100 -17.457400
O -4.535300 -5.043400 -12.832100
C -4.303500 -7.218200 -13.596200
N -4.231200 -7.558000 -17.269400
C -3.945500 -9.435100 -14.376700
N -3.797500 -6.019900 -12.902500
C -3.459500 -8.310400 -13.720300
H -3.390300 -10.197700 -14.486700
O -2.668200 -6.059700 -12.422100
H -2.577600 -8.290800 -13.368300
H -6.779200 -19.026900 -10.917800
O -6.688500 -21.258000 -11.864000
H -5.966500 -17.120000 -9.799500
C -5.897300 -19.007300 -10.565800
N -5.559300 -21.297700 -11.383600
C -5.411200 -17.882600 -9.909500
N -5.125600 -19.759700 -7.016800
C -5.053200 -20.099500 -10.689900
O -4.821500 -22.274300 -11.454100
C -4.584000 -18.761600 -6.828800
H -4.526900 -13.304800 -10.689600
C -4.110400 -17.875000 -9.412500
H -4.083200 -11.686100 -12.328900
C -3.956000 -17.544600 -6.422400
N -3.912600 -17.502800 -3.845600
C -3.897200 -17.469500 -4.997000
C -3.753300 -20.117300 -10.210300
C -3.639700 -12.999100 -10.837000
C -3.614700 -16.638100 -8.724800
C -3.528700 -16.520300 -7.269100
C -3.375400 -12.040000 -11.803700
N -3.309800 -15.692000 -9.560600
C -3.278900 -18.978100 -9.569600
H -3.202600 -20.884800 -10.315500
C -2.994800 -15.282800 -6.832800
N -2.861600 -14.500000 -9.072800
C -2.757200 -14.943700 -5.464000
C -2.698900 -14.251500 -7.753200
C -2.583700 -13.505000 -10.088300
N -2.498900 -14.582800 -4.401500
H -2.388300 -18.953500 -9.239700
N -2.277300 -13.048600 -7.374900
H -2.207900 -12.381100 -7.963400
H -2.206100 -12.849700 -6.492900
C -2.073200 -11.596300 -12.003900
H -1.896900 -10.934100 -12.662800
C -1.273800 -13.081000 -10.284900
C -1.027900 -12.113100 -11.248900
H -0.563200 -13.446200 -9.770300
H -0.141400 -11.803300 -11.392600
