40
Fragment
H -9.215300 -15.514300 -12.893500
H -8.793600 -13.871500 -14.515800
C -8.328800 -15.204500 -13.037300
C -8.082900 -14.236700 -14.001200
H -7.459800 -16.383600 -11.623400
C -7.283600 -15.721300 -12.282200
H -7.150600 -14.467900 -17.793300
H -7.148900 -14.936500 -16.322700
N -7.079400 -14.269100 -16.911300
H -6.968500 -8.364200 -15.046500
N -6.857800 -12.734900 -19.884700
C -6.773000 -13.812600 -14.197800
C -6.657900 -13.066200 -16.532900
C -6.599600 -12.374000 -18.822100
N -6.495200 -12.817700 -15.213300
C -6.361900 -12.034800 -17.453400
H -6.154200 -6.432800 -13.970600
C -6.077900 -8.339500 -14.716600
N -6.047000 -11.625700 -14.725500
C -5.981300 -15.277700 -12.482500
C -5.828100 -10.797300 -17.017100
C -5.742000 -10.679500 -15.561400
C -5.717100 -14.318600 -13.449200
C -5.603500 -7.200400 -14.075900
C -5.459500 -9.848100 -19.289200
N -5.444200 -9.814900 -20.440600
C -5.400700 -9.773000 -17.863800
H -5.273600 -15.631600 -11.957300
C -5.246400 -9.442600 -14.873700
H -4.829800 -14.012900 -13.596600
C -4.772800 -8.556100 -17.457400
O -4.535300 -5.043400 -12.832100
C -4.303500 -7.218200 -13.596200
N -4.231200 -7.558000 -17.269400
C -3.945500 -9.435100 -14.376700
N -3.797500 -6.019900 -12.902500
C -3.459500 -8.310400 -13.720300
H -3.390300 -10.197700 -14.486700
O -2.668200 -6.059700 -12.422100
H -2.577600 -8.290800 -13.368300
40
Fragment
H -8.198100 -28.078300 -12.893500
H -7.776300 -26.435500 -14.515800
C -7.311500 -27.768500 -13.037300
C -7.065700 -26.800700 -14.001200
H -6.442600 -28.947600 -11.623400
C -6.266300 -28.285300 -12.282200
H -6.133400 -27.031900 -17.793300
H -6.131600 -27.500500 -16.322700
N -6.062200 -26.833100 -16.911300
H -5.951200 -20.928200 -15.046500
N -5.840500 -25.298900 -19.884700
C -5.755800 -26.376600 -14.197800
C -5.640600 -25.630100 -16.532900
C -5.582300 -24.938000 -18.822100
N -5.477900 -25.381700 -15.213300
C -5.344600 -24.598800 -17.453400
H -5.136900 -18.996800 -13.970600
C -5.060600 -20.903500 -14.716600
N -5.029700 -24.189700 -14.725500
C -4.964100 -27.841700 -12.482500
C -4.810800 -23.361300 -17.017100
C -4.724800 -23.243500 -15.561400
C -4.699800 -26.882600 -13.449200
C -4.586200 -19.764400 -14.075900
C -4.442300 -22.412100 -19.289200
N -4.426900 -22.378900 -20.440600
C -4.383500 -22.337000 -17.863800
H -4.256300 -28.195600 -11.957300
C -4.229100 -22.006600 -14.873700
H -3.812600 -26.576900 -13.596600
C -3.755500 -21.120000 -17.457400
O -3.518000 -17.607400 -12.832100
C -3.286300 -19.782200 -13.596200
N -3.213900 -20.122000 -17.269400
C -2.928200 -21.999000 -14.376700
N -2.780200 -18.583900 -12.902500
C -2.442200 -20.874400 -13.720300
H -2.373000 -22.761700 -14.486700
O -1.651000 -18.623600 -12.422100
H -1.560300 -20.854800 -13.368300
80
Fragment
H -9.215300 -15.514300 -12.893500
H -8.793600 -13.871500 -14.515800
C -8.328800 -15.204500 -13.037300
C -8.082900 -14.236700 -14.001200
H -7.459800 -16.383600 -11.623400
C -7.283600 -15.721300 -12.282200
H -7.150600 -14.467900 -17.793300
H -7.148900 -14.936500 -16.322700
N -7.079400 -14.269100 -16.911300
H -6.968500 -8.364200 -15.046500
N -6.857800 -12.734900 -19.884700
C -6.773000 -13.812600 -14.197800
C -6.657900 -13.066200 -16.532900
C -6.599600 -12.374000 -18.822100
N -6.495200 -12.817700 -15.213300
C -6.361900 -12.034800 -17.453400
H -6.154200 -6.432800 -13.970600
C -6.077900 -8.339500 -14.716600
N -6.047000 -11.625700 -14.725500
C -5.981300 -15.277700 -12.482500
C -5.828100 -10.797300 -17.017100
C -5.742000 -10.679500 -15.561400
C -5.717100 -14.318600 -13.449200
C -5.603500 -7.200400 -14.075900
C -5.459500 -9.848100 -19.289200
N -5.444200 -9.814900 -20.440600
C -5.400700 -9.773000 -17.863800
H -5.273600 -15.631600 -11.957300
C -5.246400 -9.442600 -14.873700
H -4.829800 -14.012900 -13.596600
C -4.772800 -8.556100 -17.457400
O -4.535300 -5.043400 -12.832100
C -4.303500 -7.218200 -13.596200
N -4.231200 -7.558000 -17.269400
C -3.945500 -9.435100 -14.376700
N -3.797500 -6.019900 -12.902500
C -3.459500 -8.310400 -13.720300
H -3.390300 -10.197700 -14.486700
O -2.668200 -6.059700 -12.422100
H -2.577600 -8.290800 -13.368300
H -8.198100 -28.078300 -12.893500
H -7.776300 -26.435500 -14.515800
C -7.311500 -27.768500 -13.037300
C -7.065700 -26.800700 -14.001200
H -6.442600 -28.947600 -11.623400
C -6.266300 -28.285300 -12.282200
H -6.133400 -27.031900 -17.793300
H -6.131600 -27.500500 -16.322700
N -6.062200 -26.833100 -16.911300
H -5.951200 -20.928200 -15.046500
N -5.840500 -25.298900 -19.884700
C -5.755800 -26.376600 -14.197800
C -5.640600 -25.630100 -16.532900
C -5.582300 -24.938000 -18.822100
N -5.477900 -25.381700 -15.213300
C -5.344600 -24.598800 -17.453400
H -5.136900 -18.996800 -13.970600
C -5.060600 -20.903500 -14.716600
N -5.029700 -24.189700 -14.725500
C -4.964100 -27.841700 -12.482500
C -4.810800 -23.361300 -17.017100
C -4.724800 -23.243500 -15.561400
C -4.699800 -26.882600 -13.449200
C -4.586200 -19.764400 -14.075900
C -4.442300 -22.412100 -19.289200
N -4.426900 -22.378900 -20.440600
C -4.383500 -22.337000 -17.863800
H -4.256300 -28.195600 -11.957300
C -4.229100 -22.006600 -14.873700
H -3.812600 -26.576900 -13.596600
C -3.755500 -21.120000 -17.457400
O -3.518000 -17.607400 -12.832100
C -3.286300 -19.782200 -13.596200
N -3.213900 -20.122000 -17.269400
C -2.928200 -21.999000 -14.376700
N -2.780200 -18.583900 -12.902500
C -2.442200 -20.874400 -13.720300
H -2.373000 -22.761700 -14.486700
O -1.651000 -18.623600 -12.422100
H -1.560300 -20.854800 -13.368300
