24
Fragment
N -11.256800 -5.039800 -20.703600
H -10.583300 -7.621600 -22.318700
H -10.363500 -8.505700 -20.998400
H -10.352400 -9.943900 -22.861000
C -10.201100 -5.441700 -20.827100
C -9.935900 -8.192300 -21.834100
N -9.901300 -5.545500 -24.371100
C -9.551200 -9.385700 -22.696800
H -9.217400 -9.064700 -23.571500
C -9.207300 -5.844300 -23.518500
C -8.862000 -5.985500 -20.970200
C -8.691000 -7.397400 -21.508200
O -8.541200 -10.177800 -22.063900
C -8.328700 -6.217900 -22.425200
C -7.905300 -5.480400 -20.006100
H -7.799600 -8.565200 -20.055500
C -7.567700 -8.242800 -20.961900
C -7.336900 -9.425100 -21.885500
N -7.128900 -5.092300 -19.263100
H -7.018200 -9.099900 -22.763800
C -6.934600 -5.879600 -22.654600
H -6.741000 -7.701100 -20.896200
H -6.635700 -10.010300 -21.502800
N -5.839000 -5.593200 -22.798900
24
Fragment
N -5.497900 -9.052200 -18.410000
H -4.701200 -13.469300 -19.706100
H -4.595900 -11.160100 -20.312700
C -4.402300 -9.338600 -18.554200
H -4.318700 -12.558900 -18.445100
N -4.208000 -8.551300 -21.945700
C -4.000000 -12.884100 -19.323300
C -3.769200 -11.701800 -20.246900
H -3.537300 -12.024200 -21.153300
C -3.431500 -8.939400 -21.202800
C -3.008100 -9.676900 -18.783600
O -2.795700 -13.636800 -19.145000
C -2.645900 -10.856400 -19.700600
C -2.474800 -9.444500 -20.238600
C -2.129600 -9.303300 -17.690300
H -2.119500 -12.523700 -17.637400
C -1.785600 -12.844700 -18.512000
N -1.435500 -9.004500 -16.837800
C -1.401000 -11.651300 -19.374700
C -1.135800 -8.900700 -20.381700
H -0.984500 -13.402900 -18.347800
H -0.973300 -11.964700 -20.210500
H -0.753600 -11.080600 -18.890100
N -0.080100 -8.498800 -20.505200
48
Fragment
N -11.256800 -5.039800 -20.703600
H -10.583300 -7.621600 -22.318700
H -10.363500 -8.505700 -20.998400
H -10.352400 -9.943900 -22.861000
C -10.201100 -5.441700 -20.827100
C -9.935900 -8.192300 -21.834100
N -9.901300 -5.545500 -24.371100
C -9.551200 -9.385700 -22.696800
H -9.217400 -9.064700 -23.571500
C -9.207300 -5.844300 -23.518500
C -8.862000 -5.985500 -20.970200
C -8.691000 -7.397400 -21.508200
O -8.541200 -10.177800 -22.063900
C -8.328700 -6.217900 -22.425200
C -7.905300 -5.480400 -20.006100
H -7.799600 -8.565200 -20.055500
C -7.567700 -8.242800 -20.961900
C -7.336900 -9.425100 -21.885500
N -7.128900 -5.092300 -19.263100
H -7.018200 -9.099900 -22.763800
C -6.934600 -5.879600 -22.654600
H -6.741000 -7.701100 -20.896200
H -6.635700 -10.010300 -21.502800
N -5.839000 -5.593200 -22.798900
N -5.497900 -9.052200 -18.410000
H -4.701200 -13.469300 -19.706100
H -4.595900 -11.160100 -20.312700
C -4.402300 -9.338600 -18.554200
H -4.318700 -12.558900 -18.445100
N -4.208000 -8.551300 -21.945700
C -4.000000 -12.884100 -19.323300
C -3.769200 -11.701800 -20.246900
H -3.537300 -12.024200 -21.153300
C -3.431500 -8.939400 -21.202800
C -3.008100 -9.676900 -18.783600
O -2.795700 -13.636800 -19.145000
C -2.645900 -10.856400 -19.700600
C -2.474800 -9.444500 -20.238600
C -2.129600 -9.303300 -17.690300
H -2.119500 -12.523700 -17.637400
C -1.785600 -12.844700 -18.512000
N -1.435500 -9.004500 -16.837800
C -1.401000 -11.651300 -19.374700
C -1.135800 -8.900700 -20.381700
H -0.984500 -13.402900 -18.347800
H -0.973300 -11.964700 -20.210500
H -0.753600 -11.080600 -18.890100
N -0.080100 -8.498800 -20.505200
