24
Fragment
N -11.256800 -5.039800 -20.703600
H -10.583300 -7.621600 -22.318700
H -10.363500 -8.505700 -20.998400
H -10.352400 -9.943900 -22.861000
C -10.201100 -5.441700 -20.827100
C -9.935900 -8.192300 -21.834100
N -9.901300 -5.545500 -24.371100
C -9.551200 -9.385700 -22.696800
H -9.217400 -9.064700 -23.571500
C -9.207300 -5.844300 -23.518500
C -8.862000 -5.985500 -20.970200
C -8.691000 -7.397400 -21.508200
O -8.541200 -10.177800 -22.063900
C -8.328700 -6.217900 -22.425200
C -7.905300 -5.480400 -20.006100
H -7.799600 -8.565200 -20.055500
C -7.567700 -8.242800 -20.961900
C -7.336900 -9.425100 -21.885500
N -7.128900 -5.092300 -19.263100
H -7.018200 -9.099900 -22.763800
C -6.934600 -5.879600 -22.654600
H -6.741000 -7.701100 -20.896200
H -6.635700 -10.010300 -21.502800
N -5.839000 -5.593200 -22.798900
14
Fragment
H -6.560200 -6.291200 -15.364300
H -6.041800 -4.395700 -16.679700
H -5.763900 -4.101000 -15.128600
C -5.618200 -6.099600 -15.603500
C -5.466900 -4.633000 -15.909400
H -5.392700 -6.628800 -16.409400
O -4.765100 -6.488400 -14.523300
O -4.103900 -4.311300 -16.214900
H -3.502700 -4.187500 -14.320900
C -3.408900 -6.178500 -14.845400
C -3.262700 -4.704900 -15.129200
H -3.128300 -6.698700 -15.639600
H -2.822600 -6.430300 -14.088500
H -2.319000 -4.503600 -15.352800
38
Fragment
N -11.256800 -5.039800 -20.703600
H -10.583300 -7.621600 -22.318700
H -10.363500 -8.505700 -20.998400
H -10.352400 -9.943900 -22.861000
C -10.201100 -5.441700 -20.827100
C -9.935900 -8.192300 -21.834100
N -9.901300 -5.545500 -24.371100
C -9.551200 -9.385700 -22.696800
H -9.217400 -9.064700 -23.571500
C -9.207300 -5.844300 -23.518500
C -8.862000 -5.985500 -20.970200
C -8.691000 -7.397400 -21.508200
O -8.541200 -10.177800 -22.063900
C -8.328700 -6.217900 -22.425200
C -7.905300 -5.480400 -20.006100
H -7.799600 -8.565200 -20.055500
C -7.567700 -8.242800 -20.961900
C -7.336900 -9.425100 -21.885500
N -7.128900 -5.092300 -19.263100
H -7.018200 -9.099900 -22.763800
C -6.934600 -5.879600 -22.654600
H -6.741000 -7.701100 -20.896200
H -6.635700 -10.010300 -21.502800
N -5.839000 -5.593200 -22.798900
H -6.560200 -6.291200 -15.364300
H -6.041800 -4.395700 -16.679700
H -5.763900 -4.101000 -15.128600
C -5.618200 -6.099600 -15.603500
C -5.466900 -4.633000 -15.909400
H -5.392700 -6.628800 -16.409400
O -4.765100 -6.488400 -14.523300
O -4.103900 -4.311300 -16.214900
H -3.502700 -4.187500 -14.320900
C -3.408900 -6.178500 -14.845400
C -3.262700 -4.704900 -15.129200
H -3.128300 -6.698700 -15.639600
H -2.822600 -6.430300 -14.088500
H -2.319000 -4.503600 -15.352800
