24
Fragment
N -11.256800 -5.039800 -20.703600
H -10.583300 -7.621600 -22.318700
H -10.363500 -8.505700 -20.998400
H -10.352400 -9.943900 -22.861000
C -10.201100 -5.441700 -20.827100
C -9.935900 -8.192300 -21.834100
N -9.901300 -5.545500 -24.371100
C -9.551200 -9.385700 -22.696800
H -9.217400 -9.064700 -23.571500
C -9.207300 -5.844300 -23.518500
C -8.862000 -5.985500 -20.970200
C -8.691000 -7.397400 -21.508200
O -8.541200 -10.177800 -22.063900
C -8.328700 -6.217900 -22.425200
C -7.905300 -5.480400 -20.006100
H -7.799600 -8.565200 -20.055500
C -7.567700 -8.242800 -20.961900
C -7.336900 -9.425100 -21.885500
N -7.128900 -5.092300 -19.263100
H -7.018200 -9.099900 -22.763800
C -6.934600 -5.879600 -22.654600
H -6.741000 -7.701100 -20.896200
H -6.635700 -10.010300 -21.502800
N -5.839000 -5.593200 -22.798900
24
Fragment
N -18.686500 -2.134200 -18.410000
H -17.889800 -6.551300 -19.706100
H -17.784500 -4.242100 -20.312700
C -17.590900 -2.420600 -18.554200
H -17.507300 -5.640900 -18.445100
N -17.396600 -1.633300 -21.945700
C -17.188600 -5.966100 -19.323300
C -16.957800 -4.783800 -20.246900
H -16.725900 -5.106200 -21.153300
C -16.620100 -2.021400 -21.202800
C -16.196700 -2.758900 -18.783600
O -15.984300 -6.718800 -19.145000
C -15.834500 -3.938400 -19.700600
C -15.663400 -2.526500 -20.238600
C -15.318200 -2.385300 -17.690300
H -15.308100 -5.605700 -17.637400
C -14.974200 -5.926700 -18.512000
N -14.624100 -2.086500 -16.837800
C -14.589600 -4.733300 -19.374700
C -14.324400 -1.982700 -20.381700
H -14.173100 -6.484900 -18.347800
H -14.161900 -5.046700 -20.210500
H -13.942200 -4.162600 -18.890100
N -13.268700 -1.580800 -20.505200
48
Fragment
N -11.256800 -5.039800 -20.703600
H -10.583300 -7.621600 -22.318700
H -10.363500 -8.505700 -20.998400
H -10.352400 -9.943900 -22.861000
C -10.201100 -5.441700 -20.827100
C -9.935900 -8.192300 -21.834100
N -9.901300 -5.545500 -24.371100
C -9.551200 -9.385700 -22.696800
H -9.217400 -9.064700 -23.571500
C -9.207300 -5.844300 -23.518500
C -8.862000 -5.985500 -20.970200
C -8.691000 -7.397400 -21.508200
O -8.541200 -10.177800 -22.063900
C -8.328700 -6.217900 -22.425200
C -7.905300 -5.480400 -20.006100
H -7.799600 -8.565200 -20.055500
C -7.567700 -8.242800 -20.961900
C -7.336900 -9.425100 -21.885500
N -7.128900 -5.092300 -19.263100
H -7.018200 -9.099900 -22.763800
C -6.934600 -5.879600 -22.654600
H -6.741000 -7.701100 -20.896200
H -6.635700 -10.010300 -21.502800
N -5.839000 -5.593200 -22.798900
N -18.686500 -2.134200 -18.410000
H -17.889800 -6.551300 -19.706100
H -17.784500 -4.242100 -20.312700
C -17.590900 -2.420600 -18.554200
H -17.507300 -5.640900 -18.445100
N -17.396600 -1.633300 -21.945700
C -17.188600 -5.966100 -19.323300
C -16.957800 -4.783800 -20.246900
H -16.725900 -5.106200 -21.153300
C -16.620100 -2.021400 -21.202800
C -16.196700 -2.758900 -18.783600
O -15.984300 -6.718800 -19.145000
C -15.834500 -3.938400 -19.700600
C -15.663400 -2.526500 -20.238600
C -15.318200 -2.385300 -17.690300
H -15.308100 -5.605700 -17.637400
C -14.974200 -5.926700 -18.512000
N -14.624100 -2.086500 -16.837800
C -14.589600 -4.733300 -19.374700
C -14.324400 -1.982700 -20.381700
H -14.173100 -6.484900 -18.347800
H -14.161900 -5.046700 -20.210500
H -13.942200 -4.162600 -18.890100
N -13.268700 -1.580800 -20.505200
