12
Fragment
N -13.293200 -15.399000 -9.675000
H -13.020400 -13.439700 -9.664600
N -12.661600 -14.214200 -9.770400
N -12.399500 -16.312900 -9.902400
C -11.380900 -14.452700 -10.058100
N -11.179800 -15.753100 -10.137300
N -10.571900 -12.122000 -10.171200
C -10.370900 -13.422400 -10.250400
N -9.352300 -11.562200 -10.406100
N -9.090200 -13.660900 -10.538100
H -8.731300 -14.435400 -10.643900
N -8.458500 -12.476100 -10.633500
12
Fragment
N -13.521600 -17.121900 -6.290200
H -13.248800 -19.081200 -6.279900
N -12.890000 -18.306800 -6.385700
N -12.627900 -16.208100 -6.517700
C -11.609200 -18.068300 -6.673400
N -11.408200 -16.767800 -6.752600
N -10.800300 -20.399000 -6.786400
C -10.599300 -19.098500 -6.865600
N -9.580600 -20.958700 -7.021300
N -9.318500 -18.860000 -7.153300
H -8.959700 -18.085600 -7.259100
N -8.686900 -20.044900 -7.248800
24
Fragment
N -13.293200 -15.399000 -9.675000
H -13.020400 -13.439700 -9.664600
N -12.661600 -14.214200 -9.770400
N -12.399500 -16.312900 -9.902400
C -11.380900 -14.452700 -10.058100
N -11.179800 -15.753100 -10.137300
N -10.571900 -12.122000 -10.171200
C -10.370900 -13.422400 -10.250400
N -9.352300 -11.562200 -10.406100
N -9.090200 -13.660900 -10.538100
H -8.731300 -14.435400 -10.643900
N -8.458500 -12.476100 -10.633500
N -13.521600 -17.121900 -6.290200
H -13.248800 -19.081200 -6.279900
N -12.890000 -18.306800 -6.385700
N -12.627900 -16.208100 -6.517700
C -11.609200 -18.068300 -6.673400
N -11.408200 -16.767800 -6.752600
N -10.800300 -20.399000 -6.786400
C -10.599300 -19.098500 -6.865600
N -9.580600 -20.958700 -7.021300
N -9.318500 -18.860000 -7.153300
H -8.959700 -18.085600 -7.259100
N -8.686900 -20.044900 -7.248800
