12
Fragment
N -13.293200 -15.399000 -9.675000
H -13.020400 -13.439700 -9.664600
N -12.661600 -14.214200 -9.770400
N -12.399500 -16.312900 -9.902400
C -11.380900 -14.452700 -10.058100
N -11.179800 -15.753100 -10.137300
N -10.571900 -12.122000 -10.171200
C -10.370900 -13.422400 -10.250400
N -9.352300 -11.562200 -10.406100
N -9.090200 -13.660900 -10.538100
H -8.731300 -14.435400 -10.643900
N -8.458500 -12.476100 -10.633500
12
Fragment
H -9.455000 -15.134800 -13.897500
H -8.829100 -13.798500 -14.101600
N -8.764500 -14.655900 -14.079900
C -7.581900 -15.246400 -14.333800
N -7.403600 -16.587500 -14.339900
N -6.443600 -14.591800 -14.630300
N -6.126100 -16.801200 -14.649200
N -5.594600 -15.616600 -14.803600
C -4.183900 -15.437200 -15.131200
H -4.104000 -14.925300 -15.962500
H -3.761400 -16.314400 -15.245600
H -3.739000 -14.952900 -14.404600
24
Fragment
N -13.293200 -15.399000 -9.675000
H -13.020400 -13.439700 -9.664600
N -12.661600 -14.214200 -9.770400
N -12.399500 -16.312900 -9.902400
C -11.380900 -14.452700 -10.058100
N -11.179800 -15.753100 -10.137300
N -10.571900 -12.122000 -10.171200
C -10.370900 -13.422400 -10.250400
N -9.352300 -11.562200 -10.406100
N -9.090200 -13.660900 -10.538100
H -8.731300 -14.435400 -10.643900
N -8.458500 -12.476100 -10.633500
H -9.455000 -15.134800 -13.897500
H -8.829100 -13.798500 -14.101600
N -8.764500 -14.655900 -14.079900
C -7.581900 -15.246400 -14.333800
N -7.403600 -16.587500 -14.339900
N -6.443600 -14.591800 -14.630300
N -6.126100 -16.801200 -14.649200
N -5.594600 -15.616600 -14.803600
C -4.183900 -15.437200 -15.131200
H -4.104000 -14.925300 -15.962500
H -3.761400 -16.314400 -15.245600
H -3.739000 -14.952900 -14.404600
