12
Fragment
N -13.293200 -15.399000 -9.675000
H -13.020400 -13.439700 -9.664600
N -12.661600 -14.214200 -9.770400
N -12.399500 -16.312900 -9.902400
C -11.380900 -14.452700 -10.058100
N -11.179800 -15.753100 -10.137300
N -10.571900 -12.122000 -10.171200
C -10.370900 -13.422400 -10.250400
N -9.352300 -11.562200 -10.406100
N -9.090200 -13.660900 -10.538100
H -8.731300 -14.435400 -10.643900
N -8.458500 -12.476100 -10.633500
12
Fragment
N -13.064900 -7.830200 -13.059700
H -12.792000 -9.789500 -13.049400
N -12.433200 -9.015100 -13.155200
N -12.171100 -6.916400 -13.287200
C -11.152500 -8.776600 -13.442900
N -10.951400 -7.476100 -13.522100
N -10.343600 -11.107300 -13.555900
C -10.142500 -9.806800 -13.635100
N -9.123900 -11.667000 -13.790800
N -8.861800 -9.568300 -13.922800
H -8.503000 -8.793900 -14.028700
N -8.230100 -10.753200 -14.018300
24
Fragment
N -13.293200 -15.399000 -9.675000
H -13.020400 -13.439700 -9.664600
N -12.661600 -14.214200 -9.770400
N -12.399500 -16.312900 -9.902400
C -11.380900 -14.452700 -10.058100
N -11.179800 -15.753100 -10.137300
N -10.571900 -12.122000 -10.171200
C -10.370900 -13.422400 -10.250400
N -9.352300 -11.562200 -10.406100
N -9.090200 -13.660900 -10.538100
H -8.731300 -14.435400 -10.643900
N -8.458500 -12.476100 -10.633500
N -13.064900 -7.830200 -13.059700
H -12.792000 -9.789500 -13.049400
N -12.433200 -9.015100 -13.155200
N -12.171100 -6.916400 -13.287200
C -11.152500 -8.776600 -13.442900
N -10.951400 -7.476100 -13.522100
N -10.343600 -11.107300 -13.555900
C -10.142500 -9.806800 -13.635100
N -9.123900 -11.667000 -13.790800
N -8.861800 -9.568300 -13.922800
H -8.503000 -8.793900 -14.028700
N -8.230100 -10.753200 -14.018300
