21
Fragment
H -5.914000 -13.715300 -16.274200
H -5.447500 -13.532200 -14.754500
C -5.139400 -13.647700 -15.678200
H -4.592500 -12.877500 -15.938800
C -4.324300 -14.892400 -15.778400
N -4.298100 -15.589000 -16.916900
O -3.605100 -17.615000 -18.703000
C -3.515000 -15.455800 -14.763900
N -3.451400 -16.632700 -16.642100
H -3.378100 -15.134700 -13.880500
C -3.120800 -17.630000 -17.572100
C -2.972300 -16.574700 -15.351700
C -2.200400 -18.594300 -17.051400
N -2.115800 -17.544100 -14.928800
H -1.900700 -19.294600 -17.618900
H -1.804400 -17.523400 -14.105500
C -1.737100 -18.544300 -15.766600
H -1.281500 -20.043500 -14.454500
C -0.820900 -19.570500 -15.178800
H -0.560000 -20.210900 -15.873200
H -0.021000 -19.129200 -14.824200
8
Fragment
O -3.683800 -11.586400 -17.999400
C -2.507800 -11.687100 -18.244200
H -2.418800 -10.420700 -19.496900
H -2.097200 -13.465700 -17.309500
O -1.875100 -10.947700 -19.134000
C -1.594600 -12.659400 -17.548200
H -1.234700 -12.246000 -16.735600
H -0.856500 -12.899700 -18.146000
29
Fragment
H -5.914000 -13.715300 -16.274200
H -5.447500 -13.532200 -14.754500
C -5.139400 -13.647700 -15.678200
H -4.592500 -12.877500 -15.938800
C -4.324300 -14.892400 -15.778400
N -4.298100 -15.589000 -16.916900
O -3.605100 -17.615000 -18.703000
C -3.515000 -15.455800 -14.763900
N -3.451400 -16.632700 -16.642100
H -3.378100 -15.134700 -13.880500
C -3.120800 -17.630000 -17.572100
C -2.972300 -16.574700 -15.351700
C -2.200400 -18.594300 -17.051400
N -2.115800 -17.544100 -14.928800
H -1.900700 -19.294600 -17.618900
H -1.804400 -17.523400 -14.105500
C -1.737100 -18.544300 -15.766600
H -1.281500 -20.043500 -14.454500
C -0.820900 -19.570500 -15.178800
H -0.560000 -20.210900 -15.873200
H -0.021000 -19.129200 -14.824200
O -3.683800 -11.586400 -17.999400
C -2.507800 -11.687100 -18.244200
H -2.418800 -10.420700 -19.496900
H -2.097200 -13.465700 -17.309500
O -1.875100 -10.947700 -19.134000
C -1.594600 -12.659400 -17.548200
H -1.234700 -12.246000 -16.735600
H -0.856500 -12.899700 -18.146000
