21
Fragment
H -5.914000 -13.715300 -16.274200
H -5.447500 -13.532200 -14.754500
C -5.139400 -13.647700 -15.678200
H -4.592500 -12.877500 -15.938800
C -4.324300 -14.892400 -15.778400
N -4.298100 -15.589000 -16.916900
O -3.605100 -17.615000 -18.703000
C -3.515000 -15.455800 -14.763900
N -3.451400 -16.632700 -16.642100
H -3.378100 -15.134700 -13.880500
C -3.120800 -17.630000 -17.572100
C -2.972300 -16.574700 -15.351700
C -2.200400 -18.594300 -17.051400
N -2.115800 -17.544100 -14.928800
H -1.900700 -19.294600 -17.618900
H -1.804400 -17.523400 -14.105500
C -1.737100 -18.544300 -15.766600
H -1.281500 -20.043500 -14.454500
C -0.820900 -19.570500 -15.178800
H -0.560000 -20.210900 -15.873200
H -0.021000 -19.129200 -14.824200
21
Fragment
H -2.791400 -23.772900 -16.274200
H -2.324900 -23.589900 -14.754500
C -2.016800 -23.705300 -15.678200
H -1.469900 -22.935200 -15.938800
C -1.201700 -24.950100 -15.778400
N -1.175600 -25.646600 -16.916900
O -0.482500 -27.672600 -18.703000
C -0.392400 -25.513400 -14.763900
N -0.328800 -26.690400 -16.642100
H -0.255500 -25.192300 -13.880500
C 0.001700 -27.687600 -17.572100
C 0.150300 -26.632300 -15.351700
C 0.922100 -28.652000 -17.051400
N 1.006800 -27.601800 -14.928800
H 1.221900 -29.352200 -17.618900
H 1.318200 -27.581000 -14.105500
C 1.385500 -28.601900 -15.766600
H 1.841100 -30.101100 -14.454500
C 2.301700 -29.628100 -15.178800
H 2.562600 -30.268500 -15.873200
H 3.101600 -29.186800 -14.824200
42
Fragment
H -5.914000 -13.715300 -16.274200
H -5.447500 -13.532200 -14.754500
C -5.139400 -13.647700 -15.678200
H -4.592500 -12.877500 -15.938800
C -4.324300 -14.892400 -15.778400
N -4.298100 -15.589000 -16.916900
O -3.605100 -17.615000 -18.703000
C -3.515000 -15.455800 -14.763900
N -3.451400 -16.632700 -16.642100
H -3.378100 -15.134700 -13.880500
C -3.120800 -17.630000 -17.572100
C -2.972300 -16.574700 -15.351700
C -2.200400 -18.594300 -17.051400
N -2.115800 -17.544100 -14.928800
H -1.900700 -19.294600 -17.618900
H -1.804400 -17.523400 -14.105500
C -1.737100 -18.544300 -15.766600
H -1.281500 -20.043500 -14.454500
C -0.820900 -19.570500 -15.178800
H -0.560000 -20.210900 -15.873200
H -0.021000 -19.129200 -14.824200
H -2.791400 -23.772900 -16.274200
H -2.324900 -23.589900 -14.754500
C -2.016800 -23.705300 -15.678200
H -1.469900 -22.935200 -15.938800
C -1.201700 -24.950100 -15.778400
N -1.175600 -25.646600 -16.916900
O -0.482500 -27.672600 -18.703000
C -0.392400 -25.513400 -14.763900
N -0.328800 -26.690400 -16.642100
H -0.255500 -25.192300 -13.880500
C 0.001700 -27.687600 -17.572100
C 0.150300 -26.632300 -15.351700
C 0.922100 -28.652000 -17.051400
N 1.006800 -27.601800 -14.928800
H 1.221900 -29.352200 -17.618900
H 1.318200 -27.581000 -14.105500
C 1.385500 -28.601900 -15.766600
H 1.841100 -30.101100 -14.454500
C 2.301700 -29.628100 -15.178800
H 2.562600 -30.268500 -15.873200
H 3.101600 -29.186800 -14.824200
