21
Fragment
H -5.914000 -13.715300 -16.274200
H -5.447500 -13.532200 -14.754500
C -5.139400 -13.647700 -15.678200
H -4.592500 -12.877500 -15.938800
C -4.324300 -14.892400 -15.778400
N -4.298100 -15.589000 -16.916900
O -3.605100 -17.615000 -18.703000
C -3.515000 -15.455800 -14.763900
N -3.451400 -16.632700 -16.642100
H -3.378100 -15.134700 -13.880500
C -3.120800 -17.630000 -17.572100
C -2.972300 -16.574700 -15.351700
C -2.200400 -18.594300 -17.051400
N -2.115800 -17.544100 -14.928800
H -1.900700 -19.294600 -17.618900
H -1.804400 -17.523400 -14.105500
C -1.737100 -18.544300 -15.766600
H -1.281500 -20.043500 -14.454500
C -0.820900 -19.570500 -15.178800
H -0.560000 -20.210900 -15.873200
H -0.021000 -19.129200 -14.824200
21
Fragment
H -12.465000 -5.604900 -16.424200
H -11.926000 -4.523200 -15.375300
C -11.665100 -5.163600 -16.069600
H -11.204500 -4.690700 -16.793900
C -10.748900 -6.189800 -15.481800
H -10.681600 -7.210700 -17.142900
H -10.585300 -5.439600 -13.629500
N -10.370200 -7.190000 -16.319600
C -10.285600 -6.139800 -14.197000
C -9.513800 -8.159400 -15.896700
C -9.365200 -7.104100 -13.676300
H -9.107900 -9.599500 -17.367900
N -9.034600 -8.101400 -14.606300
C -8.971000 -9.278300 -16.484500
O -8.880900 -7.119100 -12.545400
N -8.187900 -9.145100 -14.331600
C -8.161700 -9.841700 -15.470000
H -7.893500 -11.856600 -15.309600
C -7.346600 -11.086500 -15.570300
H -7.038500 -11.201900 -16.494000
H -6.572000 -11.018800 -14.974200
42
Fragment
H -5.914000 -13.715300 -16.274200
H -5.447500 -13.532200 -14.754500
C -5.139400 -13.647700 -15.678200
H -4.592500 -12.877500 -15.938800
C -4.324300 -14.892400 -15.778400
N -4.298100 -15.589000 -16.916900
O -3.605100 -17.615000 -18.703000
C -3.515000 -15.455800 -14.763900
N -3.451400 -16.632700 -16.642100
H -3.378100 -15.134700 -13.880500
C -3.120800 -17.630000 -17.572100
C -2.972300 -16.574700 -15.351700
C -2.200400 -18.594300 -17.051400
N -2.115800 -17.544100 -14.928800
H -1.900700 -19.294600 -17.618900
H -1.804400 -17.523400 -14.105500
C -1.737100 -18.544300 -15.766600
H -1.281500 -20.043500 -14.454500
C -0.820900 -19.570500 -15.178800
H -0.560000 -20.210900 -15.873200
H -0.021000 -19.129200 -14.824200
H -12.465000 -5.604900 -16.424200
H -11.926000 -4.523200 -15.375300
C -11.665100 -5.163600 -16.069600
H -11.204500 -4.690700 -16.793900
C -10.748900 -6.189800 -15.481800
H -10.681600 -7.210700 -17.142900
H -10.585300 -5.439600 -13.629500
N -10.370200 -7.190000 -16.319600
C -10.285600 -6.139800 -14.197000
C -9.513800 -8.159400 -15.896700
C -9.365200 -7.104100 -13.676300
H -9.107900 -9.599500 -17.367900
N -9.034600 -8.101400 -14.606300
C -8.971000 -9.278300 -16.484500
O -8.880900 -7.119100 -12.545400
N -8.187900 -9.145100 -14.331600
C -8.161700 -9.841700 -15.470000
H -7.893500 -11.856600 -15.309600
C -7.346600 -11.086500 -15.570300
H -7.038500 -11.201900 -16.494000
H -6.572000 -11.018800 -14.974200
