21
Fragment
H -5.914000 -13.715300 -16.274200
H -5.447500 -13.532200 -14.754500
C -5.139400 -13.647700 -15.678200
H -4.592500 -12.877500 -15.938800
C -4.324300 -14.892400 -15.778400
N -4.298100 -15.589000 -16.916900
O -3.605100 -17.615000 -18.703000
C -3.515000 -15.455800 -14.763900
N -3.451400 -16.632700 -16.642100
H -3.378100 -15.134700 -13.880500
C -3.120800 -17.630000 -17.572100
C -2.972300 -16.574700 -15.351700
C -2.200400 -18.594300 -17.051400
N -2.115800 -17.544100 -14.928800
H -1.900700 -19.294600 -17.618900
H -1.804400 -17.523400 -14.105500
C -1.737100 -18.544300 -15.766600
H -1.281500 -20.043500 -14.454500
C -0.820900 -19.570500 -15.178800
H -0.560000 -20.210900 -15.873200
H -0.021000 -19.129200 -14.824200
8
Fragment
H 0.289000 -21.892000 -13.102500
H 0.667200 -22.545700 -14.512800
C 1.027100 -22.132300 -13.700200
O 1.307600 -23.844000 -12.114400
H 1.529700 -21.326000 -13.938900
H 1.851300 -24.371000 -11.751500
C 1.940300 -23.104700 -13.004200
O 3.116300 -23.205400 -13.249000
29
Fragment
H -5.914000 -13.715300 -16.274200
H -5.447500 -13.532200 -14.754500
C -5.139400 -13.647700 -15.678200
H -4.592500 -12.877500 -15.938800
C -4.324300 -14.892400 -15.778400
N -4.298100 -15.589000 -16.916900
O -3.605100 -17.615000 -18.703000
C -3.515000 -15.455800 -14.763900
N -3.451400 -16.632700 -16.642100
H -3.378100 -15.134700 -13.880500
C -3.120800 -17.630000 -17.572100
C -2.972300 -16.574700 -15.351700
C -2.200400 -18.594300 -17.051400
N -2.115800 -17.544100 -14.928800
H -1.900700 -19.294600 -17.618900
H -1.804400 -17.523400 -14.105500
C -1.737100 -18.544300 -15.766600
H -1.281500 -20.043500 -14.454500
C -0.820900 -19.570500 -15.178800
H -0.560000 -20.210900 -15.873200
H -0.021000 -19.129200 -14.824200
H 0.289000 -21.892000 -13.102500
H 0.667200 -22.545700 -14.512800
C 1.027100 -22.132300 -13.700200
O 1.307600 -23.844000 -12.114400
H 1.529700 -21.326000 -13.938900
H 1.851300 -24.371000 -11.751500
C 1.940300 -23.104700 -13.004200
O 3.116300 -23.205400 -13.249000
