21
Fragment
H -5.914000 -13.715300 -16.274200
H -5.447500 -13.532200 -14.754500
C -5.139400 -13.647700 -15.678200
H -4.592500 -12.877500 -15.938800
C -4.324300 -14.892400 -15.778400
N -4.298100 -15.589000 -16.916900
O -3.605100 -17.615000 -18.703000
C -3.515000 -15.455800 -14.763900
N -3.451400 -16.632700 -16.642100
H -3.378100 -15.134700 -13.880500
C -3.120800 -17.630000 -17.572100
C -2.972300 -16.574700 -15.351700
C -2.200400 -18.594300 -17.051400
N -2.115800 -17.544100 -14.928800
H -1.900700 -19.294600 -17.618900
H -1.804400 -17.523400 -14.105500
C -1.737100 -18.544300 -15.766600
H -1.281500 -20.043500 -14.454500
C -0.820900 -19.570500 -15.178800
H -0.560000 -20.210900 -15.873200
H -0.021000 -19.129200 -14.824200
21
Fragment
H -4.699000 -16.089500 -9.954700
H -4.372900 -18.236600 -11.672300
H -4.111500 -20.970500 -12.543100
H -3.873800 -15.909200 -11.314000
C -3.810200 -16.140700 -10.363400
N -3.751900 -18.458800 -11.090100
C -3.510900 -20.869800 -11.814200
C -3.277200 -17.528100 -10.223500
C -3.274100 -19.734600 -11.065500
H -3.213400 -23.507700 -12.302500
H -3.207200 -15.512200 -9.914100
C -2.663900 -21.843300 -11.256400
H -2.583200 -23.846300 -10.871300
C -2.509600 -23.272500 -11.662300
C -2.341200 -17.864900 -9.280600
N -2.338300 -20.061000 -10.115600
H -2.041700 -17.196200 -8.675600
N -1.945100 -21.364000 -10.233800
C -1.799900 -19.177400 -9.172800
H -1.632300 -23.400800 -12.078600
O -0.935000 -19.586300 -8.392700
42
Fragment
H -5.914000 -13.715300 -16.274200
H -5.447500 -13.532200 -14.754500
C -5.139400 -13.647700 -15.678200
H -4.592500 -12.877500 -15.938800
C -4.324300 -14.892400 -15.778400
N -4.298100 -15.589000 -16.916900
O -3.605100 -17.615000 -18.703000
C -3.515000 -15.455800 -14.763900
N -3.451400 -16.632700 -16.642100
H -3.378100 -15.134700 -13.880500
C -3.120800 -17.630000 -17.572100
C -2.972300 -16.574700 -15.351700
C -2.200400 -18.594300 -17.051400
N -2.115800 -17.544100 -14.928800
H -1.900700 -19.294600 -17.618900
H -1.804400 -17.523400 -14.105500
C -1.737100 -18.544300 -15.766600
H -1.281500 -20.043500 -14.454500
C -0.820900 -19.570500 -15.178800
H -0.560000 -20.210900 -15.873200
H -0.021000 -19.129200 -14.824200
H -4.699000 -16.089500 -9.954700
H -4.372900 -18.236600 -11.672300
H -4.111500 -20.970500 -12.543100
H -3.873800 -15.909200 -11.314000
C -3.810200 -16.140700 -10.363400
N -3.751900 -18.458800 -11.090100
C -3.510900 -20.869800 -11.814200
C -3.277200 -17.528100 -10.223500
C -3.274100 -19.734600 -11.065500
H -3.213400 -23.507700 -12.302500
H -3.207200 -15.512200 -9.914100
C -2.663900 -21.843300 -11.256400
H -2.583200 -23.846300 -10.871300
C -2.509600 -23.272500 -11.662300
C -2.341200 -17.864900 -9.280600
N -2.338300 -20.061000 -10.115600
H -2.041700 -17.196200 -8.675600
N -1.945100 -21.364000 -10.233800
C -1.799900 -19.177400 -9.172800
H -1.632300 -23.400800 -12.078600
O -0.935000 -19.586300 -8.392700
