3
Fragment
H -13.993100 -17.739700 -19.072100
O -13.014500 -18.181700 -18.666600
H -12.437300 -17.946400 -18.930300
39
Fragment
H -12.382100 -20.587200 -23.198500
C -11.656600 -20.657300 -23.324700
H -11.590400 -21.540200 -23.694800
H -11.525900 -20.105000 -23.950000
H -11.415400 -21.391000 -20.660300
H -11.305000 -18.428600 -22.135000
N -10.795000 -19.133600 -21.685500
C -10.593300 -21.454100 -21.156600
C -10.575900 -20.464400 -22.282500
O -10.507700 -17.624900 -20.008000
H -10.458000 -22.298000 -21.553600
C -10.303400 -18.778800 -20.484400
H -9.979300 -22.125800 -18.660900
H -9.620300 -21.241700 -24.729900
N -9.604600 -19.711100 -19.819400
H -9.445400 -22.435800 -23.666400
C -9.338600 -21.028100 -20.371000
H -9.233600 -19.507900 -19.185500
C -9.088200 -20.587200 -22.798600
H -9.067900 -19.025700 -24.020900
C -9.022800 -21.976500 -19.232300
C -8.961100 -21.612600 -23.903200
H -8.745700 -22.837700 -19.596800
N -8.632500 -19.296600 -23.363000
C -8.297400 -20.998300 -21.532300
H -8.257800 -21.769900 -18.901900
H -8.082900 -21.689500 -24.077600
H -8.027600 -21.988000 -21.766300
C -7.929100 -18.390700 -22.690800
O -7.841700 -17.212700 -23.072300
N -7.266300 -18.813300 -21.593300
C -7.000200 -20.192200 -21.356500
H -6.932100 -19.806400 -19.341500
H -6.849300 -18.221900 -21.227500
C -6.304300 -20.358700 -20.060400
O -6.121100 -20.743400 -22.393100
H -6.057500 -21.482800 -19.993800
H -5.652500 -19.852400 -23.014100
H -5.385500 -19.737600 -20.178100
42
Fragment
H -13.993100 -17.739700 -19.072100
O -13.014500 -18.181700 -18.666600
H -12.437300 -17.946400 -18.930300
H -12.382100 -20.587200 -23.198500
C -11.656600 -20.657300 -23.324700
H -11.590400 -21.540200 -23.694800
H -11.525900 -20.105000 -23.950000
H -11.415400 -21.391000 -20.660300
H -11.305000 -18.428600 -22.135000
N -10.795000 -19.133600 -21.685500
C -10.593300 -21.454100 -21.156600
C -10.575900 -20.464400 -22.282500
O -10.507700 -17.624900 -20.008000
H -10.458000 -22.298000 -21.553600
C -10.303400 -18.778800 -20.484400
H -9.979300 -22.125800 -18.660900
H -9.620300 -21.241700 -24.729900
N -9.604600 -19.711100 -19.819400
H -9.445400 -22.435800 -23.666400
C -9.338600 -21.028100 -20.371000
H -9.233600 -19.507900 -19.185500
C -9.088200 -20.587200 -22.798600
H -9.067900 -19.025700 -24.020900
C -9.022800 -21.976500 -19.232300
C -8.961100 -21.612600 -23.903200
H -8.745700 -22.837700 -19.596800
N -8.632500 -19.296600 -23.363000
C -8.297400 -20.998300 -21.532300
H -8.257800 -21.769900 -18.901900
H -8.082900 -21.689500 -24.077600
H -8.027600 -21.988000 -21.766300
C -7.929100 -18.390700 -22.690800
O -7.841700 -17.212700 -23.072300
N -7.266300 -18.813300 -21.593300
C -7.000200 -20.192200 -21.356500
H -6.932100 -19.806400 -19.341500
H -6.849300 -18.221900 -21.227500
C -6.304300 -20.358700 -20.060400
O -6.121100 -20.743400 -22.393100
H -6.057500 -21.482800 -19.993800
H -5.652500 -19.852400 -23.014100
H -5.385500 -19.737600 -20.178100
