3
Fragment
H -13.993100 -17.739700 -19.072100
O -13.014500 -18.181700 -18.666600
H -12.437300 -17.946400 -18.930300
39
Fragment
H -17.629500 -19.737600 -13.088100
H -17.362500 -19.852400 -15.924100
H -16.957500 -21.482800 -12.903800
O -16.893900 -20.743400 -15.303100
C -16.710700 -20.358700 -12.970400
H -16.165700 -18.221900 -14.137500
H -16.082900 -19.806400 -12.251500
C -16.014800 -20.192200 -14.266500
N -15.748700 -18.813300 -14.503300
O -15.173300 -17.212700 -15.982300
C -15.085900 -18.390700 -15.600800
H -14.987400 -21.988000 -14.676300
H -14.932100 -21.689500 -16.987600
H -14.757200 -21.769900 -11.811900
C -14.717600 -20.998300 -14.442300
N -14.382500 -19.296600 -16.273000
H -14.269300 -22.837700 -12.506800
C -14.053900 -21.612600 -16.813200
C -13.992200 -21.976500 -12.142300
H -13.947100 -19.025700 -16.930900
C -13.926800 -20.587200 -15.708600
H -13.781400 -19.507900 -12.095500
C -13.676400 -21.028100 -13.281000
H -13.569600 -22.435800 -16.576400
N -13.410400 -19.711100 -12.729400
H -13.394700 -21.241700 -17.639900
H -13.035700 -22.125800 -11.570900
C -12.711600 -18.778800 -13.394400
H -12.557000 -22.298000 -14.463600
O -12.507300 -17.624900 -12.918000
C -12.439100 -20.464400 -15.192500
C -12.421700 -21.454100 -14.066600
N -12.220000 -19.133600 -14.595500
H -11.710000 -18.428600 -15.045000
H -11.599600 -21.391000 -13.570300
H -11.489100 -20.105000 -16.860000
H -11.424600 -21.540200 -16.604800
C -11.358400 -20.657300 -16.234700
H -10.632900 -20.587200 -16.108500
42
Fragment
H -13.993100 -17.739700 -19.072100
O -13.014500 -18.181700 -18.666600
H -12.437300 -17.946400 -18.930300
H -17.629500 -19.737600 -13.088100
H -17.362500 -19.852400 -15.924100
H -16.957500 -21.482800 -12.903800
O -16.893900 -20.743400 -15.303100
C -16.710700 -20.358700 -12.970400
H -16.165700 -18.221900 -14.137500
H -16.082900 -19.806400 -12.251500
C -16.014800 -20.192200 -14.266500
N -15.748700 -18.813300 -14.503300
O -15.173300 -17.212700 -15.982300
C -15.085900 -18.390700 -15.600800
H -14.987400 -21.988000 -14.676300
H -14.932100 -21.689500 -16.987600
H -14.757200 -21.769900 -11.811900
C -14.717600 -20.998300 -14.442300
N -14.382500 -19.296600 -16.273000
H -14.269300 -22.837700 -12.506800
C -14.053900 -21.612600 -16.813200
C -13.992200 -21.976500 -12.142300
H -13.947100 -19.025700 -16.930900
C -13.926800 -20.587200 -15.708600
H -13.781400 -19.507900 -12.095500
C -13.676400 -21.028100 -13.281000
H -13.569600 -22.435800 -16.576400
N -13.410400 -19.711100 -12.729400
H -13.394700 -21.241700 -17.639900
H -13.035700 -22.125800 -11.570900
C -12.711600 -18.778800 -13.394400
H -12.557000 -22.298000 -14.463600
O -12.507300 -17.624900 -12.918000
C -12.439100 -20.464400 -15.192500
C -12.421700 -21.454100 -14.066600
N -12.220000 -19.133600 -14.595500
H -11.710000 -18.428600 -15.045000
H -11.599600 -21.391000 -13.570300
H -11.489100 -20.105000 -16.860000
H -11.424600 -21.540200 -16.604800
C -11.358400 -20.657300 -16.234700
H -10.632900 -20.587200 -16.108500
