14
Fragment
H -16.353900 -22.784400 -15.798300
O -16.135600 -20.428400 -16.971300
H -15.851000 -19.409900 -17.060100
C -15.353300 -22.383600 -15.879600
C -15.095700 -21.133700 -16.397000
H -14.488500 -24.095900 -14.886000
C -14.333400 -23.128000 -15.323200
C -13.797900 -20.619600 -16.353700
H -13.642800 -19.651700 -16.790900
C -13.035600 -22.613900 -15.279900
C -12.777900 -21.364000 -15.797300
H -12.280200 -24.337700 -14.616800
O -11.995600 -23.319200 -14.705600
H -11.777300 -20.963200 -15.878600
14
Fragment
H -23.173900 -22.784400 -15.798300
O -22.955600 -20.428400 -16.971300
H -22.671000 -19.409900 -17.060100
C -22.173300 -22.383600 -15.879600
C -21.915700 -21.133700 -16.397000
H -21.308500 -24.095900 -14.886000
C -21.153400 -23.128000 -15.323200
C -20.617900 -20.619600 -16.353700
H -20.462800 -19.651700 -16.790900
C -19.855600 -22.613900 -15.279900
C -19.597900 -21.364000 -15.797300
H -19.100200 -24.337700 -14.616800
O -18.815600 -23.319200 -14.705600
H -18.597300 -20.963200 -15.878600
28
Fragment
H -16.353900 -22.784400 -15.798300
O -16.135600 -20.428400 -16.971300
H -15.851000 -19.409900 -17.060100
C -15.353300 -22.383600 -15.879600
C -15.095700 -21.133700 -16.397000
H -14.488500 -24.095900 -14.886000
C -14.333400 -23.128000 -15.323200
C -13.797900 -20.619600 -16.353700
H -13.642800 -19.651700 -16.790900
C -13.035600 -22.613900 -15.279900
C -12.777900 -21.364000 -15.797300
H -12.280200 -24.337700 -14.616800
O -11.995600 -23.319200 -14.705600
H -11.777300 -20.963200 -15.878600
H -23.173900 -22.784400 -15.798300
O -22.955600 -20.428400 -16.971300
H -22.671000 -19.409900 -17.060100
C -22.173300 -22.383600 -15.879600
C -21.915700 -21.133700 -16.397000
H -21.308500 -24.095900 -14.886000
C -21.153400 -23.128000 -15.323200
C -20.617900 -20.619600 -16.353700
H -20.462800 -19.651700 -16.790900
C -19.855600 -22.613900 -15.279900
C -19.597900 -21.364000 -15.797300
H -19.100200 -24.337700 -14.616800
O -18.815600 -23.319200 -14.705600
H -18.597300 -20.963200 -15.878600
