14
Fragment
H -35.384300 -7.767000 -21.264600
N -34.524800 -7.425500 -21.520600
N -34.175600 -7.551900 -22.813800
H -34.081900 -6.624200 -18.858800
C -33.553900 -6.792800 -20.821200
C -33.422300 -6.436800 -19.486800
N -33.001800 -7.005500 -22.971600
C -32.574100 -6.525800 -21.763100
C -32.272000 -5.799100 -19.153700
H -32.144100 -5.540300 -18.269400
C -31.397300 -5.862700 -21.407700
C -31.268900 -5.515300 -20.093600
H -30.737200 -5.668300 -22.032500
H -30.496700 -5.079000 -19.812900
14
Fragment
H -40.424000 -9.990500 -22.259600
H -39.641200 -9.971400 -20.083400
C -39.593100 -9.621300 -22.060600
C -39.130600 -9.607200 -20.770900
H -39.117000 -9.087000 -23.925500
C -38.824300 -9.089700 -23.042800
O -38.031700 -9.426500 -18.182200
C -37.904900 -9.048300 -20.505000
C -37.599700 -8.553000 -22.705500
C -37.385900 -9.015900 -19.107000
N -37.132200 -8.530000 -21.467900
H -37.074800 -8.189300 -23.382100
O -36.188300 -8.500700 -19.008000
H -35.951600 -8.508100 -18.223500
28
Fragment
H -35.384300 -7.767000 -21.264600
N -34.524800 -7.425500 -21.520600
N -34.175600 -7.551900 -22.813800
H -34.081900 -6.624200 -18.858800
C -33.553900 -6.792800 -20.821200
C -33.422300 -6.436800 -19.486800
N -33.001800 -7.005500 -22.971600
C -32.574100 -6.525800 -21.763100
C -32.272000 -5.799100 -19.153700
H -32.144100 -5.540300 -18.269400
C -31.397300 -5.862700 -21.407700
C -31.268900 -5.515300 -20.093600
H -30.737200 -5.668300 -22.032500
H -30.496700 -5.079000 -19.812900
H -40.424000 -9.990500 -22.259600
H -39.641200 -9.971400 -20.083400
C -39.593100 -9.621300 -22.060600
C -39.130600 -9.607200 -20.770900
H -39.117000 -9.087000 -23.925500
C -38.824300 -9.089700 -23.042800
O -38.031700 -9.426500 -18.182200
C -37.904900 -9.048300 -20.505000
C -37.599700 -8.553000 -22.705500
C -37.385900 -9.015900 -19.107000
N -37.132200 -8.530000 -21.467900
H -37.074800 -8.189300 -23.382100
O -36.188300 -8.500700 -19.008000
H -35.951600 -8.508100 -18.223500
