14
Fragment
H -35.384300 -7.767000 -21.264600
N -34.524800 -7.425500 -21.520600
N -34.175600 -7.551900 -22.813800
H -34.081900 -6.624200 -18.858800
C -33.553900 -6.792800 -20.821200
C -33.422300 -6.436800 -19.486800
N -33.001800 -7.005500 -22.971600
C -32.574100 -6.525800 -21.763100
C -32.272000 -5.799100 -19.153700
H -32.144100 -5.540300 -18.269400
C -31.397300 -5.862700 -21.407700
C -31.268900 -5.515300 -20.093600
H -30.737200 -5.668300 -22.032500
H -30.496700 -5.079000 -19.812900
14
Fragment
H -37.576300 -10.533000 -26.191000
H -37.335800 -9.943700 -28.410600
C -36.804100 -10.096700 -26.471700
C -36.675700 -9.749300 -27.785800
H -35.928900 -10.071700 -24.647500
C -35.801000 -9.812900 -25.531800
C -35.498900 -9.086200 -28.141200
N -35.071200 -8.606500 -29.349700
C -34.650700 -9.175200 -25.864900
C -34.519100 -8.819200 -27.199300
H -33.991100 -8.987800 -25.236900
N -33.897400 -8.060100 -29.191900
N -33.548200 -8.186500 -27.898700
H -32.688700 -7.845000 -27.642700
28
Fragment
H -35.384300 -7.767000 -21.264600
N -34.524800 -7.425500 -21.520600
N -34.175600 -7.551900 -22.813800
H -34.081900 -6.624200 -18.858800
C -33.553900 -6.792800 -20.821200
C -33.422300 -6.436800 -19.486800
N -33.001800 -7.005500 -22.971600
C -32.574100 -6.525800 -21.763100
C -32.272000 -5.799100 -19.153700
H -32.144100 -5.540300 -18.269400
C -31.397300 -5.862700 -21.407700
C -31.268900 -5.515300 -20.093600
H -30.737200 -5.668300 -22.032500
H -30.496700 -5.079000 -19.812900
H -37.576300 -10.533000 -26.191000
H -37.335800 -9.943700 -28.410600
C -36.804100 -10.096700 -26.471700
C -36.675700 -9.749300 -27.785800
H -35.928900 -10.071700 -24.647500
C -35.801000 -9.812900 -25.531800
C -35.498900 -9.086200 -28.141200
N -35.071200 -8.606500 -29.349700
C -34.650700 -9.175200 -25.864900
C -34.519100 -8.819200 -27.199300
H -33.991100 -8.987800 -25.236900
N -33.897400 -8.060100 -29.191900
N -33.548200 -8.186500 -27.898700
H -32.688700 -7.845000 -27.642700
