18
Fragment
H -1.885000 -5.881300 -16.966300
H -1.493500 -6.354400 -9.689300
H -1.469300 -7.726000 -11.566400
C -1.396900 -6.855800 -11.699300
N -1.385200 -6.051800 -10.627000
C -1.315500 -6.315000 -12.950700
C -1.305600 -4.681000 -10.764300
H -1.292700 -4.221200 -9.967400
N -1.292200 -6.898100 -14.154200
C -1.222400 -4.107100 -11.973000
N -1.221600 -4.917600 -13.085400
C -1.183100 -5.915500 -15.050200
H -1.165800 -3.171400 -12.131200
C -1.134800 -4.620600 -14.416700
C -1.126900 -6.125700 -16.509200
O -1.032100 -3.451400 -14.893700
H -0.989500 -7.012500 -16.740400
H -0.412600 -5.602700 -16.921100
18
Fragment
H 1.138400 -6.476300 -9.148800
H 1.715300 -5.066400 -9.329600
O 1.757900 -8.627500 -11.176200
C 1.852800 -5.953300 -9.560700
C 1.860600 -7.458400 -11.653300
H 1.891600 -8.907600 -13.938700
C 1.908900 -6.163400 -11.019800
N 1.947400 -7.161400 -12.984600
C 1.948200 -7.971900 -14.096900
N 2.018100 -5.180800 -11.915700
H 2.018600 -7.857800 -16.102500
C 2.031400 -7.397900 -15.305700
C 2.041300 -5.763900 -13.119300
N 2.111000 -6.027100 -15.443000
C 2.122700 -5.223200 -14.370600
H 2.195100 -4.353000 -14.503600
H 2.219300 -5.724500 -16.380600
H 2.610800 -6.197700 -9.103600
36
Fragment
H -1.885000 -5.881300 -16.966300
H -1.493500 -6.354400 -9.689300
H -1.469300 -7.726000 -11.566400
C -1.396900 -6.855800 -11.699300
N -1.385200 -6.051800 -10.627000
C -1.315500 -6.315000 -12.950700
C -1.305600 -4.681000 -10.764300
H -1.292700 -4.221200 -9.967400
N -1.292200 -6.898100 -14.154200
C -1.222400 -4.107100 -11.973000
N -1.221600 -4.917600 -13.085400
C -1.183100 -5.915500 -15.050200
H -1.165800 -3.171400 -12.131200
C -1.134800 -4.620600 -14.416700
C -1.126900 -6.125700 -16.509200
O -1.032100 -3.451400 -14.893700
H -0.989500 -7.012500 -16.740400
H -0.412600 -5.602700 -16.921100
H 1.138400 -6.476300 -9.148800
H 1.715300 -5.066400 -9.329600
O 1.757900 -8.627500 -11.176200
C 1.852800 -5.953300 -9.560700
C 1.860600 -7.458400 -11.653300
H 1.891600 -8.907600 -13.938700
C 1.908900 -6.163400 -11.019800
N 1.947400 -7.161400 -12.984600
C 1.948200 -7.971900 -14.096900
N 2.018100 -5.180800 -11.915700
H 2.018600 -7.857800 -16.102500
C 2.031400 -7.397900 -15.305700
C 2.041300 -5.763900 -13.119300
N 2.111000 -6.027100 -15.443000
C 2.122700 -5.223200 -14.370600
H 2.195100 -4.353000 -14.503600
H 2.219300 -5.724500 -16.380600
H 2.610800 -6.197700 -9.103600
