25
Fragment
H -13.930800 -8.734200 -32.313800
H -13.850700 -8.004000 -30.195300
C -13.665100 -9.308800 -31.661800
C -13.621000 -8.843800 -30.359400
H -13.379400 -10.963400 -32.850800
C -13.314500 -10.623300 -31.940800
H -13.262500 -9.358800 -28.375200
C -13.224200 -9.677800 -29.313600
C -12.922800 -11.465900 -30.906900
C -12.867100 -11.004700 -29.582200
H -12.728000 -12.356700 -31.060600
C -12.485200 -11.899300 -28.490100
N -12.465300 -11.488000 -27.204100
H -12.127300 -11.981900 -24.556100
C -12.118500 -12.565200 -26.485100
C -12.115500 -13.301200 -28.630300
O -12.004500 -14.083300 -29.594100
C -11.980500 -12.730400 -25.126000
N -11.908200 -13.683600 -27.316000
H -11.679300 -14.076600 -23.795200
N -11.639800 -13.929600 -24.635100
C -11.518900 -14.907700 -26.796800
C -11.404000 -15.022100 -25.464600
H -11.360000 -15.642800 -27.375700
H -11.219700 -15.883000 -25.018500
20
Fragment
N -10.358200 -17.091800 -29.820900
C -10.153500 -17.911400 -29.049600
N -10.113000 -18.126600 -25.601900
C -10.002900 -18.486000 -26.690900
C -9.879000 -18.916500 -28.057500
H -9.659000 -19.937800 -30.434000
C -9.500700 -20.196300 -28.396100
C -9.437600 -20.605600 -29.780600
H -9.172900 -20.841100 -26.420900
C -9.159000 -21.166800 -27.372700
C -9.027600 -21.846100 -30.113300
H -8.926500 -22.099800 -31.015800
C -8.753800 -22.407300 -27.708400
C -8.660100 -22.807900 -29.098800
H -8.549200 -22.983800 -27.047500
C -8.212800 -24.071500 -29.436000
C -8.070100 -24.486600 -30.807000
N -7.958800 -24.825700 -31.890100
C -7.858000 -25.042900 -28.431900
N -7.586200 -25.832700 -27.645700
45
Fragment
H -13.930800 -8.734200 -32.313800
H -13.850700 -8.004000 -30.195300
C -13.665100 -9.308800 -31.661800
C -13.621000 -8.843800 -30.359400
H -13.379400 -10.963400 -32.850800
C -13.314500 -10.623300 -31.940800
H -13.262500 -9.358800 -28.375200
C -13.224200 -9.677800 -29.313600
C -12.922800 -11.465900 -30.906900
C -12.867100 -11.004700 -29.582200
H -12.728000 -12.356700 -31.060600
C -12.485200 -11.899300 -28.490100
N -12.465300 -11.488000 -27.204100
H -12.127300 -11.981900 -24.556100
C -12.118500 -12.565200 -26.485100
C -12.115500 -13.301200 -28.630300
O -12.004500 -14.083300 -29.594100
C -11.980500 -12.730400 -25.126000
N -11.908200 -13.683600 -27.316000
H -11.679300 -14.076600 -23.795200
N -11.639800 -13.929600 -24.635100
C -11.518900 -14.907700 -26.796800
C -11.404000 -15.022100 -25.464600
H -11.360000 -15.642800 -27.375700
H -11.219700 -15.883000 -25.018500
N -10.358200 -17.091800 -29.820900
C -10.153500 -17.911400 -29.049600
N -10.113000 -18.126600 -25.601900
C -10.002900 -18.486000 -26.690900
C -9.879000 -18.916500 -28.057500
H -9.659000 -19.937800 -30.434000
C -9.500700 -20.196300 -28.396100
C -9.437600 -20.605600 -29.780600
H -9.172900 -20.841100 -26.420900
C -9.159000 -21.166800 -27.372700
C -9.027600 -21.846100 -30.113300
H -8.926500 -22.099800 -31.015800
C -8.753800 -22.407300 -27.708400
C -8.660100 -22.807900 -29.098800
H -8.549200 -22.983800 -27.047500
C -8.212800 -24.071500 -29.436000
C -8.070100 -24.486600 -30.807000
N -7.958800 -24.825700 -31.890100
C -7.858000 -25.042900 -28.431900
N -7.586200 -25.832700 -27.645700
