25
Fragment
H -13.930800 -8.734200 -32.313800
H -13.850700 -8.004000 -30.195300
C -13.665100 -9.308800 -31.661800
C -13.621000 -8.843800 -30.359400
H -13.379400 -10.963400 -32.850800
C -13.314500 -10.623300 -31.940800
H -13.262500 -9.358800 -28.375200
C -13.224200 -9.677800 -29.313600
C -12.922800 -11.465900 -30.906900
C -12.867100 -11.004700 -29.582200
H -12.728000 -12.356700 -31.060600
C -12.485200 -11.899300 -28.490100
N -12.465300 -11.488000 -27.204100
H -12.127300 -11.981900 -24.556100
C -12.118500 -12.565200 -26.485100
C -12.115500 -13.301200 -28.630300
O -12.004500 -14.083300 -29.594100
C -11.980500 -12.730400 -25.126000
N -11.908200 -13.683600 -27.316000
H -11.679300 -14.076600 -23.795200
N -11.639800 -13.929600 -24.635100
C -11.518900 -14.907700 -26.796800
C -11.404000 -15.022100 -25.464600
H -11.360000 -15.642800 -27.375700
H -11.219700 -15.883000 -25.018500
20
Fragment
N -10.081400 -11.734000 -37.280200
C -9.876800 -10.914400 -36.508900
N -9.836300 -10.699200 -33.061200
C -9.726100 -10.339800 -34.150200
C -9.602300 -9.909300 -35.516800
H -9.382300 -8.888000 -37.893300
C -9.223900 -8.629500 -35.855400
C -9.160800 -8.220200 -37.239900
H -8.896100 -7.984700 -33.880200
C -8.882200 -7.659000 -34.832000
C -8.750900 -6.979700 -37.572600
H -8.649700 -6.726000 -38.475200
C -8.477000 -6.418500 -35.167700
C -8.383300 -6.017900 -36.558100
H -8.272400 -5.842000 -34.506800
C -7.936000 -4.754300 -36.895300
C -7.793300 -4.339200 -38.266300
N -7.682000 -4.000100 -39.349400
C -7.581200 -3.782900 -35.891200
N -7.309400 -2.993100 -35.105000
45
Fragment
H -13.930800 -8.734200 -32.313800
H -13.850700 -8.004000 -30.195300
C -13.665100 -9.308800 -31.661800
C -13.621000 -8.843800 -30.359400
H -13.379400 -10.963400 -32.850800
C -13.314500 -10.623300 -31.940800
H -13.262500 -9.358800 -28.375200
C -13.224200 -9.677800 -29.313600
C -12.922800 -11.465900 -30.906900
C -12.867100 -11.004700 -29.582200
H -12.728000 -12.356700 -31.060600
C -12.485200 -11.899300 -28.490100
N -12.465300 -11.488000 -27.204100
H -12.127300 -11.981900 -24.556100
C -12.118500 -12.565200 -26.485100
C -12.115500 -13.301200 -28.630300
O -12.004500 -14.083300 -29.594100
C -11.980500 -12.730400 -25.126000
N -11.908200 -13.683600 -27.316000
H -11.679300 -14.076600 -23.795200
N -11.639800 -13.929600 -24.635100
C -11.518900 -14.907700 -26.796800
C -11.404000 -15.022100 -25.464600
H -11.360000 -15.642800 -27.375700
H -11.219700 -15.883000 -25.018500
N -10.081400 -11.734000 -37.280200
C -9.876800 -10.914400 -36.508900
N -9.836300 -10.699200 -33.061200
C -9.726100 -10.339800 -34.150200
C -9.602300 -9.909300 -35.516800
H -9.382300 -8.888000 -37.893300
C -9.223900 -8.629500 -35.855400
C -9.160800 -8.220200 -37.239900
H -8.896100 -7.984700 -33.880200
C -8.882200 -7.659000 -34.832000
C -8.750900 -6.979700 -37.572600
H -8.649700 -6.726000 -38.475200
C -8.477000 -6.418500 -35.167700
C -8.383300 -6.017900 -36.558100
H -8.272400 -5.842000 -34.506800
C -7.936000 -4.754300 -36.895300
C -7.793300 -4.339200 -38.266300
N -7.682000 -4.000100 -39.349400
C -7.581200 -3.782900 -35.891200
N -7.309400 -2.993100 -35.105000
