18
Fragment
H -1.885000 -5.881300 -16.966300
H -1.493500 -6.354400 -9.689300
H -1.469300 -7.726000 -11.566400
C -1.396900 -6.855800 -11.699300
N -1.385200 -6.051800 -10.627000
C -1.315500 -6.315000 -12.950700
C -1.305600 -4.681000 -10.764300
H -1.292700 -4.221200 -9.967400
N -1.292200 -6.898100 -14.154200
C -1.222400 -4.107100 -11.973000
N -1.221600 -4.917600 -13.085400
C -1.183100 -5.915500 -15.050200
H -1.165800 -3.171400 -12.131200
C -1.134800 -4.620600 -14.416700
C -1.126900 -6.125700 -16.509200
O -1.032100 -3.451400 -14.893700
H -0.989500 -7.012500 -16.740400
H -0.412600 -5.602700 -16.921100
18
Fragment
H -2.930200 -3.012200 -17.838800
H -2.353200 -1.602400 -18.019500
O -2.310700 -5.163500 -19.866200
C -2.215800 -2.489300 -18.250700
C -2.208000 -3.994400 -20.343200
H -2.177000 -5.443500 -22.628700
C -2.159700 -2.699400 -19.709700
N -2.121200 -3.697400 -21.674500
C -2.120300 -4.507900 -22.786900
N -2.050500 -1.716800 -20.605700
H -2.050000 -4.393700 -24.792500
C -2.037200 -3.933900 -23.995600
C -2.027300 -2.299900 -21.809200
N -1.957600 -2.563100 -24.132900
C -1.945800 -1.759100 -23.060600
H -1.873500 -0.888900 -23.193500
H -1.849300 -2.260500 -25.070600
H -1.457700 -2.733600 -17.793600
36
Fragment
H -1.885000 -5.881300 -16.966300
H -1.493500 -6.354400 -9.689300
H -1.469300 -7.726000 -11.566400
C -1.396900 -6.855800 -11.699300
N -1.385200 -6.051800 -10.627000
C -1.315500 -6.315000 -12.950700
C -1.305600 -4.681000 -10.764300
H -1.292700 -4.221200 -9.967400
N -1.292200 -6.898100 -14.154200
C -1.222400 -4.107100 -11.973000
N -1.221600 -4.917600 -13.085400
C -1.183100 -5.915500 -15.050200
H -1.165800 -3.171400 -12.131200
C -1.134800 -4.620600 -14.416700
C -1.126900 -6.125700 -16.509200
O -1.032100 -3.451400 -14.893700
H -0.989500 -7.012500 -16.740400
H -0.412600 -5.602700 -16.921100
H -2.930200 -3.012200 -17.838800
H -2.353200 -1.602400 -18.019500
O -2.310700 -5.163500 -19.866200
C -2.215800 -2.489300 -18.250700
C -2.208000 -3.994400 -20.343200
H -2.177000 -5.443500 -22.628700
C -2.159700 -2.699400 -19.709700
N -2.121200 -3.697400 -21.674500
C -2.120300 -4.507900 -22.786900
N -2.050500 -1.716800 -20.605700
H -2.050000 -4.393700 -24.792500
C -2.037200 -3.933900 -23.995600
C -2.027300 -2.299900 -21.809200
N -1.957600 -2.563100 -24.132900
C -1.945800 -1.759100 -23.060600
H -1.873500 -0.888900 -23.193500
H -1.849300 -2.260500 -25.070600
H -1.457700 -2.733600 -17.793600
