18
Fragment
H -1.885000 -5.881300 -16.966300
H -1.493500 -6.354400 -9.689300
H -1.469300 -7.726000 -11.566400
C -1.396900 -6.855800 -11.699300
N -1.385200 -6.051800 -10.627000
C -1.315500 -6.315000 -12.950700
C -1.305600 -4.681000 -10.764300
H -1.292700 -4.221200 -9.967400
N -1.292200 -6.898100 -14.154200
C -1.222400 -4.107100 -11.973000
N -1.221600 -4.917600 -13.085400
C -1.183100 -5.915500 -15.050200
H -1.165800 -3.171400 -12.131200
C -1.134800 -4.620600 -14.416700
C -1.126900 -6.125700 -16.509200
O -1.032100 -3.451400 -14.893700
H -0.989500 -7.012500 -16.740400
H -0.412600 -5.602700 -16.921100
18
Fragment
H -0.805000 -10.502600 -17.838800
H -0.228000 -9.092800 -18.019500
O -0.185500 -12.653900 -19.866200
C -0.090600 -9.979600 -18.250700
C -0.082800 -11.484700 -20.343200
H -0.051800 -12.933900 -22.628700
C -0.034500 -10.189700 -19.709700
N 0.004000 -11.187700 -21.674500
C 0.004900 -11.998200 -22.786900
N 0.074700 -9.207100 -20.605700
H 0.075200 -11.884100 -24.792500
C 0.088100 -11.424200 -23.995600
C 0.097900 -9.790300 -21.809200
N 0.167600 -10.053400 -24.132900
C 0.179400 -9.249500 -23.060600
H 0.251700 -8.379300 -23.193500
H 0.275900 -9.750800 -25.070600
H 0.667500 -10.224000 -17.793600
36
Fragment
H -1.885000 -5.881300 -16.966300
H -1.493500 -6.354400 -9.689300
H -1.469300 -7.726000 -11.566400
C -1.396900 -6.855800 -11.699300
N -1.385200 -6.051800 -10.627000
C -1.315500 -6.315000 -12.950700
C -1.305600 -4.681000 -10.764300
H -1.292700 -4.221200 -9.967400
N -1.292200 -6.898100 -14.154200
C -1.222400 -4.107100 -11.973000
N -1.221600 -4.917600 -13.085400
C -1.183100 -5.915500 -15.050200
H -1.165800 -3.171400 -12.131200
C -1.134800 -4.620600 -14.416700
C -1.126900 -6.125700 -16.509200
O -1.032100 -3.451400 -14.893700
H -0.989500 -7.012500 -16.740400
H -0.412600 -5.602700 -16.921100
H -0.805000 -10.502600 -17.838800
H -0.228000 -9.092800 -18.019500
O -0.185500 -12.653900 -19.866200
C -0.090600 -9.979600 -18.250700
C -0.082800 -11.484700 -20.343200
H -0.051800 -12.933900 -22.628700
C -0.034500 -10.189700 -19.709700
N 0.004000 -11.187700 -21.674500
C 0.004900 -11.998200 -22.786900
N 0.074700 -9.207100 -20.605700
H 0.075200 -11.884100 -24.792500
C 0.088100 -11.424200 -23.995600
C 0.097900 -9.790300 -21.809200
N 0.167600 -10.053400 -24.132900
C 0.179400 -9.249500 -23.060600
H 0.251700 -8.379300 -23.193500
H 0.275900 -9.750800 -25.070600
H 0.667500 -10.224000 -17.793600
