14
Fragment
H -14.196800 -10.316900 -22.206100
C -13.323300 -10.567800 -21.932400
H -13.204100 -12.128000 -23.267100
N -12.741200 -9.836600 -20.952900
C -12.734100 -11.675300 -22.577600
C -11.506100 -10.270500 -20.597600
C -11.461300 -12.104000 -22.206100
H -11.035300 -12.843000 -22.625400
C -10.848200 -11.381600 -21.178800
N -10.716000 -9.684300 -19.618100
N -9.641200 -11.463400 -20.521900
C -9.613200 -10.454300 -19.594800
H -8.947700 -12.127500 -20.556900
H -8.889400 -10.314600 -18.996200
33
Fragment
H -17.086800 -6.776500 -21.765800
H -16.531200 -4.858300 -23.029500
C -16.224000 -6.383700 -21.691300
C -15.893300 -5.241100 -22.437900
H -15.476400 -7.711100 -20.328600
C -15.261800 -6.937000 -20.836400
C -14.629000 -4.665500 -22.312100
H -14.425900 -3.881300 -22.809400
C -13.996700 -6.367500 -20.718800
C -13.640800 -5.218700 -21.464200
N -13.016600 -7.022800 -19.881400
H -12.868800 -7.949500 -20.079400
O -12.806600 -5.281600 -18.396400
C -12.447000 -6.411100 -18.799400
C -12.259400 -4.610700 -21.412900
H -12.161500 -3.961300 -22.139700
H -12.133500 -4.159700 -20.552200
H -11.808500 -5.193000 -16.332500
H -11.588500 -5.317900 -21.513100
N -11.461700 -7.150600 -18.183200
H -11.240000 -7.926600 -18.635100
C -10.998400 -5.673900 -16.213700
C -10.675300 -6.735500 -17.098900
H -10.367300 -4.617000 -14.598300
C -10.144500 -5.334900 -15.179500
C -9.477500 -7.460900 -16.860100
H -9.257200 -8.198200 -17.416900
C -8.965100 -6.040500 -14.986100
C -8.629400 -7.110000 -15.831700
O -8.456000 -4.831800 -13.058600
N -8.065500 -5.679200 -13.891300
H -7.820400 -7.588400 -15.696600
O -6.965000 -6.247800 -13.806300
47
Fragment
H -14.196800 -10.316900 -22.206100
C -13.323300 -10.567800 -21.932400
H -13.204100 -12.128000 -23.267100
N -12.741200 -9.836600 -20.952900
C -12.734100 -11.675300 -22.577600
C -11.506100 -10.270500 -20.597600
C -11.461300 -12.104000 -22.206100
H -11.035300 -12.843000 -22.625400
C -10.848200 -11.381600 -21.178800
N -10.716000 -9.684300 -19.618100
N -9.641200 -11.463400 -20.521900
C -9.613200 -10.454300 -19.594800
H -8.947700 -12.127500 -20.556900
H -8.889400 -10.314600 -18.996200
H -17.086800 -6.776500 -21.765800
H -16.531200 -4.858300 -23.029500
C -16.224000 -6.383700 -21.691300
C -15.893300 -5.241100 -22.437900
H -15.476400 -7.711100 -20.328600
C -15.261800 -6.937000 -20.836400
C -14.629000 -4.665500 -22.312100
H -14.425900 -3.881300 -22.809400
C -13.996700 -6.367500 -20.718800
C -13.640800 -5.218700 -21.464200
N -13.016600 -7.022800 -19.881400
H -12.868800 -7.949500 -20.079400
O -12.806600 -5.281600 -18.396400
C -12.447000 -6.411100 -18.799400
C -12.259400 -4.610700 -21.412900
H -12.161500 -3.961300 -22.139700
H -12.133500 -4.159700 -20.552200
H -11.808500 -5.193000 -16.332500
H -11.588500 -5.317900 -21.513100
N -11.461700 -7.150600 -18.183200
H -11.240000 -7.926600 -18.635100
C -10.998400 -5.673900 -16.213700
C -10.675300 -6.735500 -17.098900
H -10.367300 -4.617000 -14.598300
C -10.144500 -5.334900 -15.179500
C -9.477500 -7.460900 -16.860100
H -9.257200 -8.198200 -17.416900
C -8.965100 -6.040500 -14.986100
C -8.629400 -7.110000 -15.831700
O -8.456000 -4.831800 -13.058600
N -8.065500 -5.679200 -13.891300
H -7.820400 -7.588400 -15.696600
O -6.965000 -6.247800 -13.806300
