14
Fragment
H -14.196800 -10.316900 -22.206100
C -13.323300 -10.567800 -21.932400
H -13.204100 -12.128000 -23.267100
N -12.741200 -9.836600 -20.952900
C -12.734100 -11.675300 -22.577600
C -11.506100 -10.270500 -20.597600
C -11.461300 -12.104000 -22.206100
H -11.035300 -12.843000 -22.625400
C -10.848200 -11.381600 -21.178800
N -10.716000 -9.684300 -19.618100
N -9.641200 -11.463400 -20.521900
C -9.613200 -10.454300 -19.594800
H -8.947700 -12.127500 -20.556900
H -8.889400 -10.314600 -18.996200
33
Fragment
H -17.158900 -8.302600 -13.772500
H -16.620800 -9.747400 -13.342800
C -16.369900 -8.881300 -13.729400
H -16.336000 -2.569200 -13.465000
H -16.210700 -6.064600 -16.224200
H -16.163200 -4.440700 -14.686800
H -15.855400 -11.143700 -15.109600
C -15.820400 -9.092800 -15.130600
N -15.701600 -6.646400 -15.559200
H -15.684600 -8.459100 -13.170400
C -15.657500 -10.395300 -15.659300
H -15.547900 -1.052300 -11.851900
C -15.514700 -2.736900 -13.017800
C -15.503300 -8.019700 -15.976100
N -15.352000 -4.762000 -14.288500
C -15.214500 -10.612400 -16.963800
H -15.117400 -11.499100 -17.291100
C -15.046500 -1.830100 -12.067400
C -15.037700 -8.229200 -17.279400
C -14.979500 -6.076100 -14.554000
C -14.915100 -9.532900 -17.783700
H -14.803700 -7.485700 -17.823300
C -14.777200 -3.905800 -13.319500
H -14.630900 -9.676400 -18.679400
O -14.076400 -6.668500 -13.923900
O -14.069500 -0.174700 -10.110700
C -13.838000 -2.084000 -11.445500
C -13.546200 -4.130300 -12.673100
N -13.328100 -1.111300 -10.448500
C -13.082800 -3.214900 -11.734300
H -13.033500 -4.903500 -12.878000
H -12.253800 -3.360800 -11.292900
O -12.174100 -1.259300 -10.008200
47
Fragment
H -14.196800 -10.316900 -22.206100
C -13.323300 -10.567800 -21.932400
H -13.204100 -12.128000 -23.267100
N -12.741200 -9.836600 -20.952900
C -12.734100 -11.675300 -22.577600
C -11.506100 -10.270500 -20.597600
C -11.461300 -12.104000 -22.206100
H -11.035300 -12.843000 -22.625400
C -10.848200 -11.381600 -21.178800
N -10.716000 -9.684300 -19.618100
N -9.641200 -11.463400 -20.521900
C -9.613200 -10.454300 -19.594800
H -8.947700 -12.127500 -20.556900
H -8.889400 -10.314600 -18.996200
H -17.158900 -8.302600 -13.772500
H -16.620800 -9.747400 -13.342800
C -16.369900 -8.881300 -13.729400
H -16.336000 -2.569200 -13.465000
H -16.210700 -6.064600 -16.224200
H -16.163200 -4.440700 -14.686800
H -15.855400 -11.143700 -15.109600
C -15.820400 -9.092800 -15.130600
N -15.701600 -6.646400 -15.559200
H -15.684600 -8.459100 -13.170400
C -15.657500 -10.395300 -15.659300
H -15.547900 -1.052300 -11.851900
C -15.514700 -2.736900 -13.017800
C -15.503300 -8.019700 -15.976100
N -15.352000 -4.762000 -14.288500
C -15.214500 -10.612400 -16.963800
H -15.117400 -11.499100 -17.291100
C -15.046500 -1.830100 -12.067400
C -15.037700 -8.229200 -17.279400
C -14.979500 -6.076100 -14.554000
C -14.915100 -9.532900 -17.783700
H -14.803700 -7.485700 -17.823300
C -14.777200 -3.905800 -13.319500
H -14.630900 -9.676400 -18.679400
O -14.076400 -6.668500 -13.923900
O -14.069500 -0.174700 -10.110700
C -13.838000 -2.084000 -11.445500
C -13.546200 -4.130300 -12.673100
N -13.328100 -1.111300 -10.448500
C -13.082800 -3.214900 -11.734300
H -13.033500 -4.903500 -12.878000
H -12.253800 -3.360800 -11.292900
O -12.174100 -1.259300 -10.008200
