28
Fragment
Br -25.819800 -24.572800 -7.416900
C -23.968400 -24.760400 -7.718000
H -23.780200 -26.582500 -6.803900
H -23.729000 -22.984600 -8.683800
C -23.303000 -25.902200 -7.262300
C -23.276600 -23.766900 -8.389700
C -21.952300 -26.030100 -7.483200
C -21.933000 -23.915100 -8.630000
H -21.496400 -26.797500 -7.157400
H -21.466900 -23.238600 -9.107700
C -21.238600 -25.047700 -8.182600
N -19.871800 -25.103300 -8.423600
H -19.614000 -24.467500 -8.471200
O -19.605000 -27.362800 -8.578200
C -19.114100 -26.222900 -8.574100
H -17.957800 -28.387900 -9.884400
N -17.789600 -25.983800 -8.718400
H -17.498100 -25.171900 -8.692100
C -17.066400 -28.158000 -9.651100
C -16.803800 -26.951300 -9.011800
H -16.221400 -29.846700 -10.390500
C -16.030000 -29.027400 -9.949300
C -15.489300 -26.649200 -8.658300
H -15.298800 -25.837300 -8.202600
C -14.726500 -28.725200 -9.618600
C -14.462000 -27.520400 -8.964800
H -14.020700 -29.324000 -9.832000
H -13.569400 -27.296100 -8.728700
14
Fragment
H -20.105700 -25.309100 -11.931500
C -19.173500 -25.133000 -11.978400
N -18.674000 -23.911400 -12.006000
H -18.410700 -26.914300 -12.123400
N -18.245500 -26.108000 -12.024000
C -17.313100 -24.113500 -12.076500
C -17.022700 -25.487000 -12.077800
N -16.401100 -23.134800 -12.126200
C -15.704200 -25.907800 -12.094400
H -15.466700 -26.827200 -12.072300
C -15.149800 -23.563000 -12.178600
C -14.757000 -24.908700 -12.144100
H -14.466200 -22.908600 -12.244900
H -13.833800 -25.133000 -12.155200
42
Fragment
Br -25.819800 -24.572800 -7.416900
C -23.968400 -24.760400 -7.718000
H -23.780200 -26.582500 -6.803900
H -23.729000 -22.984600 -8.683800
C -23.303000 -25.902200 -7.262300
C -23.276600 -23.766900 -8.389700
C -21.952300 -26.030100 -7.483200
C -21.933000 -23.915100 -8.630000
H -21.496400 -26.797500 -7.157400
H -21.466900 -23.238600 -9.107700
C -21.238600 -25.047700 -8.182600
N -19.871800 -25.103300 -8.423600
H -19.614000 -24.467500 -8.471200
O -19.605000 -27.362800 -8.578200
C -19.114100 -26.222900 -8.574100
H -17.957800 -28.387900 -9.884400
N -17.789600 -25.983800 -8.718400
H -17.498100 -25.171900 -8.692100
C -17.066400 -28.158000 -9.651100
C -16.803800 -26.951300 -9.011800
H -16.221400 -29.846700 -10.390500
C -16.030000 -29.027400 -9.949300
C -15.489300 -26.649200 -8.658300
H -15.298800 -25.837300 -8.202600
C -14.726500 -28.725200 -9.618600
C -14.462000 -27.520400 -8.964800
H -14.020700 -29.324000 -9.832000
H -13.569400 -27.296100 -8.728700
H -20.105700 -25.309100 -11.931500
C -19.173500 -25.133000 -11.978400
N -18.674000 -23.911400 -12.006000
H -18.410700 -26.914300 -12.123400
N -18.245500 -26.108000 -12.024000
C -17.313100 -24.113500 -12.076500
C -17.022700 -25.487000 -12.077800
N -16.401100 -23.134800 -12.126200
C -15.704200 -25.907800 -12.094400
H -15.466700 -26.827200 -12.072300
C -15.149800 -23.563000 -12.178600
C -14.757000 -24.908700 -12.144100
H -14.466200 -22.908600 -12.244900
H -13.833800 -25.133000 -12.155200
