28
Fragment
H -34.280300 -27.742400 -10.212400
H -33.744400 -26.002100 -8.762000
C -33.400700 -27.666500 -9.863600
C -33.078700 -26.633800 -9.003500
H -32.646300 -29.305600 -10.792600
C -32.430200 -28.586300 -10.212400
C -31.800900 -26.506300 -8.489400
H -31.595200 -25.801600 -7.886300
C -31.148100 -28.463100 -9.720600
C -30.818800 -27.417500 -8.859800
H -30.485500 -29.095400 -9.970200
N -29.504500 -27.367900 -8.363000
O -29.231300 -25.116900 -8.519400
H -29.065800 -28.176500 -8.291100
C -28.770900 -26.227900 -8.265400
N -27.487800 -26.436200 -7.862200
H -27.265300 -27.257700 -7.636700
H -27.217300 -24.055400 -9.033800
C -26.479100 -24.271800 -8.476600
C -26.470800 -25.464200 -7.758800
H -25.418600 -22.581700 -8.853700
C -25.404500 -23.402100 -8.374100
C -25.382200 -25.762600 -6.956700
H -25.377100 -26.568600 -6.452700
C -24.319000 -23.709600 -7.588100
C -24.305500 -24.903200 -6.879800
H -23.585400 -23.109300 -7.530100
H -23.555700 -25.128000 -6.342800
28
Fragment
H -33.291600 -23.539500 -13.895800
H -33.261800 -25.558200 -12.708500
C -32.541800 -23.764300 -13.358800
C -32.528300 -24.957900 -12.650500
H -31.470100 -22.098900 -13.785900
C -31.465100 -22.904900 -13.281900
C -31.442700 -25.265400 -11.864500
H -31.428700 -26.085800 -11.384900
C -30.376500 -23.203300 -12.479800
C -30.368200 -24.395700 -11.762000
H -29.630000 -24.612100 -11.204800
H -29.582000 -21.409800 -12.601900
N -29.359500 -22.231300 -12.376400
C -28.076400 -22.439600 -11.973100
H -27.781500 -20.491000 -11.947500
O -27.616000 -23.550600 -11.719200
N -27.342800 -21.299600 -11.875600
H -26.361800 -19.572100 -10.268400
C -26.028500 -21.250000 -11.378800
C -25.699200 -20.204400 -10.518000
H -25.252000 -22.865900 -12.352300
C -25.046400 -22.161200 -11.749200
C -24.417100 -20.081200 -10.026200
H -24.201000 -19.361900 -9.446000
C -23.768600 -22.033700 -11.235100
C -23.446600 -21.001000 -10.375000
H -23.102900 -22.665400 -11.476600
H -22.567000 -20.925100 -10.026200
56
Fragment
H -34.280300 -27.742400 -10.212400
H -33.744400 -26.002100 -8.762000
C -33.400700 -27.666500 -9.863600
C -33.078700 -26.633800 -9.003500
H -32.646300 -29.305600 -10.792600
C -32.430200 -28.586300 -10.212400
C -31.800900 -26.506300 -8.489400
H -31.595200 -25.801600 -7.886300
C -31.148100 -28.463100 -9.720600
C -30.818800 -27.417500 -8.859800
H -30.485500 -29.095400 -9.970200
N -29.504500 -27.367900 -8.363000
O -29.231300 -25.116900 -8.519400
H -29.065800 -28.176500 -8.291100
C -28.770900 -26.227900 -8.265400
N -27.487800 -26.436200 -7.862200
H -27.265300 -27.257700 -7.636700
H -27.217300 -24.055400 -9.033800
C -26.479100 -24.271800 -8.476600
C -26.470800 -25.464200 -7.758800
H -25.418600 -22.581700 -8.853700
C -25.404500 -23.402100 -8.374100
C -25.382200 -25.762600 -6.956700
H -25.377100 -26.568600 -6.452700
C -24.319000 -23.709600 -7.588100
C -24.305500 -24.903200 -6.879800
H -23.585400 -23.109300 -7.530100
H -23.555700 -25.128000 -6.342800
H -33.291600 -23.539500 -13.895800
H -33.261800 -25.558200 -12.708500
C -32.541800 -23.764300 -13.358800
C -32.528300 -24.957900 -12.650500
H -31.470100 -22.098900 -13.785900
C -31.465100 -22.904900 -13.281900
C -31.442700 -25.265400 -11.864500
H -31.428700 -26.085800 -11.384900
C -30.376500 -23.203300 -12.479800
C -30.368200 -24.395700 -11.762000
H -29.630000 -24.612100 -11.204800
H -29.582000 -21.409800 -12.601900
N -29.359500 -22.231300 -12.376400
C -28.076400 -22.439600 -11.973100
H -27.781500 -20.491000 -11.947500
O -27.616000 -23.550600 -11.719200
N -27.342800 -21.299600 -11.875600
H -26.361800 -19.572100 -10.268400
C -26.028500 -21.250000 -11.378800
C -25.699200 -20.204400 -10.518000
H -25.252000 -22.865900 -12.352300
C -25.046400 -22.161200 -11.749200
C -24.417100 -20.081200 -10.026200
H -24.201000 -19.361900 -9.446000
C -23.768600 -22.033700 -11.235100
C -23.446600 -21.001000 -10.375000
H -23.102900 -22.665400 -11.476600
H -22.567000 -20.925100 -10.026200
