28
Fragment
H -34.280300 -27.742400 -10.212400
H -33.744400 -26.002100 -8.762000
C -33.400700 -27.666500 -9.863600
C -33.078700 -26.633800 -9.003500
H -32.646300 -29.305600 -10.792600
C -32.430200 -28.586300 -10.212400
C -31.800900 -26.506300 -8.489400
H -31.595200 -25.801600 -7.886300
C -31.148100 -28.463100 -9.720600
C -30.818800 -27.417500 -8.859800
H -30.485500 -29.095400 -9.970200
N -29.504500 -27.367900 -8.363000
O -29.231300 -25.116900 -8.519400
H -29.065800 -28.176500 -8.291100
C -28.770900 -26.227900 -8.265400
N -27.487800 -26.436200 -7.862200
H -27.265300 -27.257700 -7.636700
H -27.217300 -24.055400 -9.033800
C -26.479100 -24.271800 -8.476600
C -26.470800 -25.464200 -7.758800
H -25.418600 -22.581700 -8.853700
C -25.404500 -23.402100 -8.374100
C -25.382200 -25.762600 -6.956700
H -25.377100 -26.568600 -6.452700
C -24.319000 -23.709600 -7.588100
C -24.305500 -24.903200 -6.879800
H -23.585400 -23.109300 -7.530100
H -23.555700 -25.128000 -6.342800
14
Fragment
H -30.310000 -26.961800 -5.322700
C -29.458000 -27.168300 -4.957800
N -29.061300 -28.404500 -4.719600
H -28.703100 -25.307100 -4.803300
N -28.550800 -26.227100 -4.638700
C -27.788000 -28.243100 -4.206300
C -27.447400 -26.884500 -4.148900
N -26.992600 -29.244100 -3.820000
C -26.219000 -26.494000 -3.667900
H -25.963300 -25.581600 -3.613300
C -25.801900 -28.847400 -3.363000
C -25.382600 -27.521100 -3.270600
H -25.195400 -29.519800 -3.079000
H -24.516500 -27.321900 -2.933200
42
Fragment
H -34.280300 -27.742400 -10.212400
H -33.744400 -26.002100 -8.762000
C -33.400700 -27.666500 -9.863600
C -33.078700 -26.633800 -9.003500
H -32.646300 -29.305600 -10.792600
C -32.430200 -28.586300 -10.212400
C -31.800900 -26.506300 -8.489400
H -31.595200 -25.801600 -7.886300
C -31.148100 -28.463100 -9.720600
C -30.818800 -27.417500 -8.859800
H -30.485500 -29.095400 -9.970200
N -29.504500 -27.367900 -8.363000
O -29.231300 -25.116900 -8.519400
H -29.065800 -28.176500 -8.291100
C -28.770900 -26.227900 -8.265400
N -27.487800 -26.436200 -7.862200
H -27.265300 -27.257700 -7.636700
H -27.217300 -24.055400 -9.033800
C -26.479100 -24.271800 -8.476600
C -26.470800 -25.464200 -7.758800
H -25.418600 -22.581700 -8.853700
C -25.404500 -23.402100 -8.374100
C -25.382200 -25.762600 -6.956700
H -25.377100 -26.568600 -6.452700
C -24.319000 -23.709600 -7.588100
C -24.305500 -24.903200 -6.879800
H -23.585400 -23.109300 -7.530100
H -23.555700 -25.128000 -6.342800
H -30.310000 -26.961800 -5.322700
C -29.458000 -27.168300 -4.957800
N -29.061300 -28.404500 -4.719600
H -28.703100 -25.307100 -4.803300
N -28.550800 -26.227100 -4.638700
C -27.788000 -28.243100 -4.206300
C -27.447400 -26.884500 -4.148900
N -26.992600 -29.244100 -3.820000
C -26.219000 -26.494000 -3.667900
H -25.963300 -25.581600 -3.613300
C -25.801900 -28.847400 -3.363000
C -25.382600 -27.521100 -3.270600
H -25.195400 -29.519800 -3.079000
H -24.516500 -27.321900 -2.933200
