29
Fragment
H -21.004300 -16.560700 -20.639800
H -20.806700 -18.747000 -19.789300
C -20.564300 -16.717100 -19.812400
C -20.445400 -18.015300 -19.303500
H -20.103700 -14.771000 -19.422800
C -20.024100 -15.655100 -19.084900
N -19.898800 -15.301900 -12.503800
C -19.802200 -18.242500 -18.090000
H -19.735100 -19.128800 -17.753200
C -19.367800 -15.866700 -17.867600
C -19.250700 -17.174000 -17.355800
H -19.002400 -15.132800 -17.388700
C -18.759900 -15.502800 -12.449100
N -18.596800 -17.515400 -16.143600
H -18.510800 -18.410300 -15.983100
O -18.079000 -15.416000 -15.291000
C -17.993900 -16.660800 -15.237800
C -17.338900 -15.778500 -12.288100
N -17.308300 -17.317600 -14.238000
H -17.131800 -14.582800 -10.623700
H -17.046500 -18.207700 -14.317800
C -16.671400 -15.191300 -11.189700
C -16.661800 -16.660000 -13.159700
C -15.330900 -15.507600 -10.935200
C -15.314800 -16.965700 -12.883500
H -14.878800 -15.121500 -10.194200
H -14.843000 -17.563600 -13.450600
C -14.664900 -16.398600 -11.783300
H -13.758700 -16.622100 -11.609200
29
Fragment
H -17.900700 -17.870200 -9.338500
C -16.994500 -18.093800 -9.164400
H -16.816500 -16.928700 -7.497200
H -16.780600 -19.370800 -10.753500
C -16.344700 -17.526700 -8.064300
C -16.328600 -18.984700 -10.012500
C -14.997700 -17.832300 -7.788100
C -14.988000 -19.301100 -9.758100
H -14.612900 -16.284600 -6.630000
H -14.527700 -19.909500 -10.324100
N -14.351200 -17.174700 -6.709800
C -14.320500 -18.713800 -8.659700
C -13.665600 -17.831500 -5.709900
O -13.580500 -19.076400 -5.656700
H -13.148700 -16.082000 -4.964600
N -13.062700 -16.976900 -4.804200
C -12.899600 -18.989500 -8.498600
H -12.657100 -19.359500 -3.559000
C -12.408800 -17.318300 -3.591900
C -12.291700 -18.625600 -3.080200
H -11.924400 -15.363500 -3.194500
C -11.857300 -16.249800 -2.857800
N -11.760700 -19.190400 -8.443900
C -11.635300 -18.837200 -1.862900
H -11.555800 -19.721300 -1.525000
C -11.214100 -16.477000 -1.644300
C -11.095200 -17.775200 -1.135400
H -10.852800 -15.745300 -1.158400
H -10.655200 -17.931600 -0.307900
58
Fragment
H -21.004300 -16.560700 -20.639800
H -20.806700 -18.747000 -19.789300
C -20.564300 -16.717100 -19.812400
C -20.445400 -18.015300 -19.303500
H -20.103700 -14.771000 -19.422800
C -20.024100 -15.655100 -19.084900
N -19.898800 -15.301900 -12.503800
C -19.802200 -18.242500 -18.090000
H -19.735100 -19.128800 -17.753200
C -19.367800 -15.866700 -17.867600
C -19.250700 -17.174000 -17.355800
H -19.002400 -15.132800 -17.388700
C -18.759900 -15.502800 -12.449100
N -18.596800 -17.515400 -16.143600
H -18.510800 -18.410300 -15.983100
O -18.079000 -15.416000 -15.291000
C -17.993900 -16.660800 -15.237800
C -17.338900 -15.778500 -12.288100
N -17.308300 -17.317600 -14.238000
H -17.131800 -14.582800 -10.623700
H -17.046500 -18.207700 -14.317800
C -16.671400 -15.191300 -11.189700
C -16.661800 -16.660000 -13.159700
C -15.330900 -15.507600 -10.935200
C -15.314800 -16.965700 -12.883500
H -14.878800 -15.121500 -10.194200
H -14.843000 -17.563600 -13.450600
C -14.664900 -16.398600 -11.783300
H -13.758700 -16.622100 -11.609200
H -17.900700 -17.870200 -9.338500
C -16.994500 -18.093800 -9.164400
H -16.816500 -16.928700 -7.497200
H -16.780600 -19.370800 -10.753500
C -16.344700 -17.526700 -8.064300
C -16.328600 -18.984700 -10.012500
C -14.997700 -17.832300 -7.788100
C -14.988000 -19.301100 -9.758100
H -14.612900 -16.284600 -6.630000
H -14.527700 -19.909500 -10.324100
N -14.351200 -17.174700 -6.709800
C -14.320500 -18.713800 -8.659700
C -13.665600 -17.831500 -5.709900
O -13.580500 -19.076400 -5.656700
H -13.148700 -16.082000 -4.964600
N -13.062700 -16.976900 -4.804200
C -12.899600 -18.989500 -8.498600
H -12.657100 -19.359500 -3.559000
C -12.408800 -17.318300 -3.591900
C -12.291700 -18.625600 -3.080200
H -11.924400 -15.363500 -3.194500
C -11.857300 -16.249800 -2.857800
N -11.760700 -19.190400 -8.443900
C -11.635300 -18.837200 -1.862900
H -11.555800 -19.721300 -1.525000
C -11.214100 -16.477000 -1.644300
C -11.095200 -17.775200 -1.135400
H -10.852800 -15.745300 -1.158400
H -10.655200 -17.931600 -0.307900
