28
Fragment
Br -25.819800 -24.572800 -7.416900
C -23.968400 -24.760400 -7.718000
H -23.780200 -26.582500 -6.803900
H -23.729000 -22.984600 -8.683800
C -23.303000 -25.902200 -7.262300
C -23.276600 -23.766900 -8.389700
C -21.952300 -26.030100 -7.483200
C -21.933000 -23.915100 -8.630000
H -21.496400 -26.797500 -7.157400
H -21.466900 -23.238600 -9.107700
C -21.238600 -25.047700 -8.182600
N -19.871800 -25.103300 -8.423600
H -19.614000 -24.467500 -8.471200
O -19.605000 -27.362800 -8.578200
C -19.114100 -26.222900 -8.574100
H -17.957800 -28.387900 -9.884400
N -17.789600 -25.983800 -8.718400
H -17.498100 -25.171900 -8.692100
C -17.066400 -28.158000 -9.651100
C -16.803800 -26.951300 -9.011800
H -16.221400 -29.846700 -10.390500
C -16.030000 -29.027400 -9.949300
C -15.489300 -26.649200 -8.658300
H -15.298800 -25.837300 -8.202600
C -14.726500 -28.725200 -9.618600
C -14.462000 -27.520400 -8.964800
H -14.020700 -29.324000 -9.832000
H -13.569400 -27.296100 -8.728700
28
Fragment
H -26.329700 -28.311900 -5.079300
H -25.878400 -26.284000 -3.976000
C -25.437100 -28.087600 -4.843100
C -25.172600 -26.882800 -4.189300
H -24.600300 -29.770700 -5.605300
C -24.409800 -28.958800 -5.149700
C -23.869000 -26.580600 -3.858600
H -23.677600 -25.761300 -3.417500
C -23.095300 -28.656700 -4.796200
C -22.832700 -27.450000 -4.156900
H -22.401000 -30.436100 -5.115900
N -22.109400 -29.624200 -5.089600
H -21.941300 -27.220100 -3.923500
C -20.785000 -29.385100 -5.233900
O -20.294000 -28.245200 -5.229800
H -20.285100 -31.140500 -5.336800
N -20.027200 -30.504700 -5.384400
C -18.660500 -30.560300 -5.625400
H -18.432200 -32.369400 -4.700200
H -18.402600 -28.810500 -6.650600
C -17.966100 -31.692900 -5.178000
C -17.946700 -29.577900 -6.324700
C -16.622400 -31.841100 -5.418200
C -16.596100 -29.705800 -6.545700
H -16.170100 -32.623400 -5.124100
H -16.118900 -29.025500 -7.004100
C -15.930700 -30.847600 -6.090000
Br -14.079300 -31.035200 -6.391100
56
Fragment
Br -25.819800 -24.572800 -7.416900
C -23.968400 -24.760400 -7.718000
H -23.780200 -26.582500 -6.803900
H -23.729000 -22.984600 -8.683800
C -23.303000 -25.902200 -7.262300
C -23.276600 -23.766900 -8.389700
C -21.952300 -26.030100 -7.483200
C -21.933000 -23.915100 -8.630000
H -21.496400 -26.797500 -7.157400
H -21.466900 -23.238600 -9.107700
C -21.238600 -25.047700 -8.182600
N -19.871800 -25.103300 -8.423600
H -19.614000 -24.467500 -8.471200
O -19.605000 -27.362800 -8.578200
C -19.114100 -26.222900 -8.574100
H -17.957800 -28.387900 -9.884400
N -17.789600 -25.983800 -8.718400
H -17.498100 -25.171900 -8.692100
C -17.066400 -28.158000 -9.651100
C -16.803800 -26.951300 -9.011800
H -16.221400 -29.846700 -10.390500
C -16.030000 -29.027400 -9.949300
C -15.489300 -26.649200 -8.658300
H -15.298800 -25.837300 -8.202600
C -14.726500 -28.725200 -9.618600
C -14.462000 -27.520400 -8.964800
H -14.020700 -29.324000 -9.832000
H -13.569400 -27.296100 -8.728700
H -26.329700 -28.311900 -5.079300
H -25.878400 -26.284000 -3.976000
C -25.437100 -28.087600 -4.843100
C -25.172600 -26.882800 -4.189300
H -24.600300 -29.770700 -5.605300
C -24.409800 -28.958800 -5.149700
C -23.869000 -26.580600 -3.858600
H -23.677600 -25.761300 -3.417500
C -23.095300 -28.656700 -4.796200
C -22.832700 -27.450000 -4.156900
H -22.401000 -30.436100 -5.115900
N -22.109400 -29.624200 -5.089600
H -21.941300 -27.220100 -3.923500
C -20.785000 -29.385100 -5.233900
O -20.294000 -28.245200 -5.229800
H -20.285100 -31.140500 -5.336800
N -20.027200 -30.504700 -5.384400
C -18.660500 -30.560300 -5.625400
H -18.432200 -32.369400 -4.700200
H -18.402600 -28.810500 -6.650600
C -17.966100 -31.692900 -5.178000
C -17.946700 -29.577900 -6.324700
C -16.622400 -31.841100 -5.418200
C -16.596100 -29.705800 -6.545700
H -16.170100 -32.623400 -5.124100
H -16.118900 -29.025500 -7.004100
C -15.930700 -30.847600 -6.090000
Br -14.079300 -31.035200 -6.391100
