28
Fragment
H -34.280300 -27.742400 -10.212400
H -33.744400 -26.002100 -8.762000
C -33.400700 -27.666500 -9.863600
C -33.078700 -26.633800 -9.003500
H -32.646300 -29.305600 -10.792600
C -32.430200 -28.586300 -10.212400
C -31.800900 -26.506300 -8.489400
H -31.595200 -25.801600 -7.886300
C -31.148100 -28.463100 -9.720600
C -30.818800 -27.417500 -8.859800
H -30.485500 -29.095400 -9.970200
N -29.504500 -27.367900 -8.363000
O -29.231300 -25.116900 -8.519400
H -29.065800 -28.176500 -8.291100
C -28.770900 -26.227900 -8.265400
N -27.487800 -26.436200 -7.862200
H -27.265300 -27.257700 -7.636700
H -27.217300 -24.055400 -9.033800
C -26.479100 -24.271800 -8.476600
C -26.470800 -25.464200 -7.758800
H -25.418600 -22.581700 -8.853700
C -25.404500 -23.402100 -8.374100
C -25.382200 -25.762600 -6.956700
H -25.377100 -26.568600 -6.452700
C -24.319000 -23.709600 -7.588100
C -24.305500 -24.903200 -6.879800
H -23.585400 -23.109300 -7.530100
H -23.555700 -25.128000 -6.342800
28
Fragment
H -45.797200 -20.925100 -13.585500
H -45.261300 -22.665400 -12.135100
C -44.917600 -21.001000 -13.236700
C -44.595600 -22.033700 -12.376600
H -44.163200 -19.361900 -14.165700
C -43.947100 -20.081200 -13.585500
C -43.317800 -22.161200 -11.862500
H -43.112100 -22.865900 -11.259400
C -42.665000 -20.204400 -13.093700
C -42.335700 -21.250000 -12.232900
H -42.002400 -19.572100 -13.343300
N -41.021300 -21.299600 -11.736100
O -40.748200 -23.550600 -11.892500
H -40.582700 -20.491000 -11.664200
C -40.287800 -22.439600 -11.638500
N -39.004700 -22.231300 -11.235300
H -38.782200 -21.409800 -11.009800
H -38.734200 -24.612100 -12.406900
C -37.996000 -24.395700 -11.849700
C -37.987700 -23.203300 -11.131900
H -36.935500 -26.085800 -12.226800
C -36.921400 -25.265400 -11.747200
C -36.899100 -22.904900 -10.329800
H -36.894000 -22.098900 -9.825800
C -35.835900 -24.957900 -10.961200
C -35.822300 -23.764300 -10.252900
H -35.102300 -25.558200 -10.903200
H -35.072600 -23.539500 -9.715900
56
Fragment
H -34.280300 -27.742400 -10.212400
H -33.744400 -26.002100 -8.762000
C -33.400700 -27.666500 -9.863600
C -33.078700 -26.633800 -9.003500
H -32.646300 -29.305600 -10.792600
C -32.430200 -28.586300 -10.212400
C -31.800900 -26.506300 -8.489400
H -31.595200 -25.801600 -7.886300
C -31.148100 -28.463100 -9.720600
C -30.818800 -27.417500 -8.859800
H -30.485500 -29.095400 -9.970200
N -29.504500 -27.367900 -8.363000
O -29.231300 -25.116900 -8.519400
H -29.065800 -28.176500 -8.291100
C -28.770900 -26.227900 -8.265400
N -27.487800 -26.436200 -7.862200
H -27.265300 -27.257700 -7.636700
H -27.217300 -24.055400 -9.033800
C -26.479100 -24.271800 -8.476600
C -26.470800 -25.464200 -7.758800
H -25.418600 -22.581700 -8.853700
C -25.404500 -23.402100 -8.374100
C -25.382200 -25.762600 -6.956700
H -25.377100 -26.568600 -6.452700
C -24.319000 -23.709600 -7.588100
C -24.305500 -24.903200 -6.879800
H -23.585400 -23.109300 -7.530100
H -23.555700 -25.128000 -6.342800
H -45.797200 -20.925100 -13.585500
H -45.261300 -22.665400 -12.135100
C -44.917600 -21.001000 -13.236700
C -44.595600 -22.033700 -12.376600
H -44.163200 -19.361900 -14.165700
C -43.947100 -20.081200 -13.585500
C -43.317800 -22.161200 -11.862500
H -43.112100 -22.865900 -11.259400
C -42.665000 -20.204400 -13.093700
C -42.335700 -21.250000 -12.232900
H -42.002400 -19.572100 -13.343300
N -41.021300 -21.299600 -11.736100
O -40.748200 -23.550600 -11.892500
H -40.582700 -20.491000 -11.664200
C -40.287800 -22.439600 -11.638500
N -39.004700 -22.231300 -11.235300
H -38.782200 -21.409800 -11.009800
H -38.734200 -24.612100 -12.406900
C -37.996000 -24.395700 -11.849700
C -37.987700 -23.203300 -11.131900
H -36.935500 -26.085800 -12.226800
C -36.921400 -25.265400 -11.747200
C -36.899100 -22.904900 -10.329800
H -36.894000 -22.098900 -9.825800
C -35.835900 -24.957900 -10.961200
C -35.822300 -23.764300 -10.252900
H -35.102300 -25.558200 -10.903200
H -35.072600 -23.539500 -9.715900
