28
Fragment
H -34.280300 -27.742400 -10.212400
H -33.744400 -26.002100 -8.762000
C -33.400700 -27.666500 -9.863600
C -33.078700 -26.633800 -9.003500
H -32.646300 -29.305600 -10.792600
C -32.430200 -28.586300 -10.212400
C -31.800900 -26.506300 -8.489400
H -31.595200 -25.801600 -7.886300
C -31.148100 -28.463100 -9.720600
C -30.818800 -27.417500 -8.859800
H -30.485500 -29.095400 -9.970200
N -29.504500 -27.367900 -8.363000
O -29.231300 -25.116900 -8.519400
H -29.065800 -28.176500 -8.291100
C -28.770900 -26.227900 -8.265400
N -27.487800 -26.436200 -7.862200
H -27.265300 -27.257700 -7.636700
H -27.217300 -24.055400 -9.033800
C -26.479100 -24.271800 -8.476600
C -26.470800 -25.464200 -7.758800
H -25.418600 -22.581700 -8.853700
C -25.404500 -23.402100 -8.374100
C -25.382200 -25.762600 -6.956700
H -25.377100 -26.568600 -6.452700
C -24.319000 -23.709600 -7.588100
C -24.305500 -24.903200 -6.879800
H -23.585400 -23.109300 -7.530100
H -23.555700 -25.128000 -6.342800
14
Fragment
H -33.805100 -21.345600 -10.559100
H -33.126200 -19.147700 -10.413400
C -32.938900 -21.146400 -10.221800
C -32.519700 -19.820100 -10.129400
H -32.358200 -23.085900 -9.879100
C -32.102500 -22.173500 -9.824500
N -31.328900 -19.423400 -9.672400
C -30.874100 -21.783000 -9.343500
C -30.533500 -20.424400 -9.286100
N -29.770700 -22.440400 -8.853700
H -29.618500 -23.360400 -8.689100
N -29.260300 -20.263000 -8.772800
C -28.863600 -21.499200 -8.534600
H -28.011500 -21.705700 -8.169600
42
Fragment
H -34.280300 -27.742400 -10.212400
H -33.744400 -26.002100 -8.762000
C -33.400700 -27.666500 -9.863600
C -33.078700 -26.633800 -9.003500
H -32.646300 -29.305600 -10.792600
C -32.430200 -28.586300 -10.212400
C -31.800900 -26.506300 -8.489400
H -31.595200 -25.801600 -7.886300
C -31.148100 -28.463100 -9.720600
C -30.818800 -27.417500 -8.859800
H -30.485500 -29.095400 -9.970200
N -29.504500 -27.367900 -8.363000
O -29.231300 -25.116900 -8.519400
H -29.065800 -28.176500 -8.291100
C -28.770900 -26.227900 -8.265400
N -27.487800 -26.436200 -7.862200
H -27.265300 -27.257700 -7.636700
H -27.217300 -24.055400 -9.033800
C -26.479100 -24.271800 -8.476600
C -26.470800 -25.464200 -7.758800
H -25.418600 -22.581700 -8.853700
C -25.404500 -23.402100 -8.374100
C -25.382200 -25.762600 -6.956700
H -25.377100 -26.568600 -6.452700
C -24.319000 -23.709600 -7.588100
C -24.305500 -24.903200 -6.879800
H -23.585400 -23.109300 -7.530100
H -23.555700 -25.128000 -6.342800
H -33.805100 -21.345600 -10.559100
H -33.126200 -19.147700 -10.413400
C -32.938900 -21.146400 -10.221800
C -32.519700 -19.820100 -10.129400
H -32.358200 -23.085900 -9.879100
C -32.102500 -22.173500 -9.824500
N -31.328900 -19.423400 -9.672400
C -30.874100 -21.783000 -9.343500
C -30.533500 -20.424400 -9.286100
N -29.770700 -22.440400 -8.853700
H -29.618500 -23.360400 -8.689100
N -29.260300 -20.263000 -8.772800
C -28.863600 -21.499200 -8.534600
H -28.011500 -21.705700 -8.169600
