28
Fragment
H -34.280300 -27.742400 -10.212400
H -33.744400 -26.002100 -8.762000
C -33.400700 -27.666500 -9.863600
C -33.078700 -26.633800 -9.003500
H -32.646300 -29.305600 -10.792600
C -32.430200 -28.586300 -10.212400
C -31.800900 -26.506300 -8.489400
H -31.595200 -25.801600 -7.886300
C -31.148100 -28.463100 -9.720600
C -30.818800 -27.417500 -8.859800
H -30.485500 -29.095400 -9.970200
N -29.504500 -27.367900 -8.363000
O -29.231300 -25.116900 -8.519400
H -29.065800 -28.176500 -8.291100
C -28.770900 -26.227900 -8.265400
N -27.487800 -26.436200 -7.862200
H -27.265300 -27.257700 -7.636700
H -27.217300 -24.055400 -9.033800
C -26.479100 -24.271800 -8.476600
C -26.470800 -25.464200 -7.758800
H -25.418600 -22.581700 -8.853700
C -25.404500 -23.402100 -8.374100
C -25.382200 -25.762600 -6.956700
H -25.377100 -26.568600 -6.452700
C -24.319000 -23.709600 -7.588100
C -24.305500 -24.903200 -6.879800
H -23.585400 -23.109300 -7.530100
H -23.555700 -25.128000 -6.342800
14
Fragment
H -29.572900 -31.439200 -8.695800
C -28.720800 -31.232700 -8.330900
N -28.324100 -29.996500 -8.092700
H -27.965900 -33.093900 -8.176400
N -27.813700 -32.173900 -8.011800
C -27.050900 -30.157900 -7.579400
C -26.710300 -31.516500 -7.522000
N -26.255500 -29.156900 -7.193100
C -25.481900 -31.907000 -7.041000
H -25.226200 -32.819400 -6.986400
C -25.064700 -29.553600 -6.736100
C -24.645500 -30.879900 -6.643700
H -24.458200 -28.881200 -6.452100
H -23.779300 -31.079100 -6.306300
42
Fragment
H -34.280300 -27.742400 -10.212400
H -33.744400 -26.002100 -8.762000
C -33.400700 -27.666500 -9.863600
C -33.078700 -26.633800 -9.003500
H -32.646300 -29.305600 -10.792600
C -32.430200 -28.586300 -10.212400
C -31.800900 -26.506300 -8.489400
H -31.595200 -25.801600 -7.886300
C -31.148100 -28.463100 -9.720600
C -30.818800 -27.417500 -8.859800
H -30.485500 -29.095400 -9.970200
N -29.504500 -27.367900 -8.363000
O -29.231300 -25.116900 -8.519400
H -29.065800 -28.176500 -8.291100
C -28.770900 -26.227900 -8.265400
N -27.487800 -26.436200 -7.862200
H -27.265300 -27.257700 -7.636700
H -27.217300 -24.055400 -9.033800
C -26.479100 -24.271800 -8.476600
C -26.470800 -25.464200 -7.758800
H -25.418600 -22.581700 -8.853700
C -25.404500 -23.402100 -8.374100
C -25.382200 -25.762600 -6.956700
H -25.377100 -26.568600 -6.452700
C -24.319000 -23.709600 -7.588100
C -24.305500 -24.903200 -6.879800
H -23.585400 -23.109300 -7.530100
H -23.555700 -25.128000 -6.342800
H -29.572900 -31.439200 -8.695800
C -28.720800 -31.232700 -8.330900
N -28.324100 -29.996500 -8.092700
H -27.965900 -33.093900 -8.176400
N -27.813700 -32.173900 -8.011800
C -27.050900 -30.157900 -7.579400
C -26.710300 -31.516500 -7.522000
N -26.255500 -29.156900 -7.193100
C -25.481900 -31.907000 -7.041000
H -25.226200 -32.819400 -6.986400
C -25.064700 -29.553600 -6.736100
C -24.645500 -30.879900 -6.643700
H -24.458200 -28.881200 -6.452100
H -23.779300 -31.079100 -6.306300
