29
Fragment
H -21.004300 -16.560700 -20.639800
H -20.806700 -18.747000 -19.789300
C -20.564300 -16.717100 -19.812400
C -20.445400 -18.015300 -19.303500
H -20.103700 -14.771000 -19.422800
C -20.024100 -15.655100 -19.084900
N -19.898800 -15.301900 -12.503800
C -19.802200 -18.242500 -18.090000
H -19.735100 -19.128800 -17.753200
C -19.367800 -15.866700 -17.867600
C -19.250700 -17.174000 -17.355800
H -19.002400 -15.132800 -17.388700
C -18.759900 -15.502800 -12.449100
N -18.596800 -17.515400 -16.143600
H -18.510800 -18.410300 -15.983100
O -18.079000 -15.416000 -15.291000
C -17.993900 -16.660800 -15.237800
C -17.338900 -15.778500 -12.288100
N -17.308300 -17.317600 -14.238000
H -17.131800 -14.582800 -10.623700
H -17.046500 -18.207700 -14.317800
C -16.671400 -15.191300 -11.189700
C -16.661800 -16.660000 -13.159700
C -15.330900 -15.507600 -10.935200
C -15.314800 -16.965700 -12.883500
H -14.878800 -15.121500 -10.194200
H -14.843000 -17.563600 -13.450600
C -14.664900 -16.398600 -11.783300
H -13.758700 -16.622100 -11.609200
14
Fragment
H -26.679700 -14.429500 -27.102200
C -25.981500 -14.402800 -26.458200
H -25.882300 -16.394900 -25.849500
N -25.569800 -15.506000 -25.761100
N -25.317500 -13.288300 -26.156200
C -24.548400 -15.078500 -24.918700
C -24.410600 -13.698200 -25.184300
H -23.789100 -16.642800 -23.810300
C -23.729300 -15.712900 -23.993200
N -23.516400 -12.889000 -24.562200
C -22.804400 -14.875700 -23.348200
C -22.742300 -13.509400 -23.655100
H -22.215500 -15.238900 -22.697900
H -22.106100 -12.982700 -23.187100
43
Fragment
H -21.004300 -16.560700 -20.639800
H -20.806700 -18.747000 -19.789300
C -20.564300 -16.717100 -19.812400
C -20.445400 -18.015300 -19.303500
H -20.103700 -14.771000 -19.422800
C -20.024100 -15.655100 -19.084900
N -19.898800 -15.301900 -12.503800
C -19.802200 -18.242500 -18.090000
H -19.735100 -19.128800 -17.753200
C -19.367800 -15.866700 -17.867600
C -19.250700 -17.174000 -17.355800
H -19.002400 -15.132800 -17.388700
C -18.759900 -15.502800 -12.449100
N -18.596800 -17.515400 -16.143600
H -18.510800 -18.410300 -15.983100
O -18.079000 -15.416000 -15.291000
C -17.993900 -16.660800 -15.237800
C -17.338900 -15.778500 -12.288100
N -17.308300 -17.317600 -14.238000
H -17.131800 -14.582800 -10.623700
H -17.046500 -18.207700 -14.317800
C -16.671400 -15.191300 -11.189700
C -16.661800 -16.660000 -13.159700
C -15.330900 -15.507600 -10.935200
C -15.314800 -16.965700 -12.883500
H -14.878800 -15.121500 -10.194200
H -14.843000 -17.563600 -13.450600
C -14.664900 -16.398600 -11.783300
H -13.758700 -16.622100 -11.609200
H -26.679700 -14.429500 -27.102200
C -25.981500 -14.402800 -26.458200
H -25.882300 -16.394900 -25.849500
N -25.569800 -15.506000 -25.761100
N -25.317500 -13.288300 -26.156200
C -24.548400 -15.078500 -24.918700
C -24.410600 -13.698200 -25.184300
H -23.789100 -16.642800 -23.810300
C -23.729300 -15.712900 -23.993200
N -23.516400 -12.889000 -24.562200
C -22.804400 -14.875700 -23.348200
C -22.742300 -13.509400 -23.655100
H -22.215500 -15.238900 -22.697900
H -22.106100 -12.982700 -23.187100
