29
Fragment
H -21.004300 -16.560700 -20.639800
H -20.806700 -18.747000 -19.789300
C -20.564300 -16.717100 -19.812400
C -20.445400 -18.015300 -19.303500
H -20.103700 -14.771000 -19.422800
C -20.024100 -15.655100 -19.084900
N -19.898800 -15.301900 -12.503800
C -19.802200 -18.242500 -18.090000
H -19.735100 -19.128800 -17.753200
C -19.367800 -15.866700 -17.867600
C -19.250700 -17.174000 -17.355800
H -19.002400 -15.132800 -17.388700
C -18.759900 -15.502800 -12.449100
N -18.596800 -17.515400 -16.143600
H -18.510800 -18.410300 -15.983100
O -18.079000 -15.416000 -15.291000
C -17.993900 -16.660800 -15.237800
C -17.338900 -15.778500 -12.288100
N -17.308300 -17.317600 -14.238000
H -17.131800 -14.582800 -10.623700
H -17.046500 -18.207700 -14.317800
C -16.671400 -15.191300 -11.189700
C -16.661800 -16.660000 -13.159700
C -15.330900 -15.507600 -10.935200
C -15.314800 -16.965700 -12.883500
H -14.878800 -15.121500 -10.194200
H -14.843000 -17.563600 -13.450600
C -14.664900 -16.398600 -11.783300
H -13.758700 -16.622100 -11.609200
14
Fragment
H -16.541500 -14.290000 -8.234600
H -16.432100 -12.033700 -8.723700
C -15.905400 -13.763300 -7.766500
C -15.843300 -12.397000 -8.073500
N -15.131200 -14.383700 -6.859400
C -14.918400 -11.559700 -7.428400
H -14.858500 -10.629800 -7.611400
C -14.237100 -13.574500 -6.237300
C -14.099300 -12.194100 -6.502900
N -13.330100 -13.984400 -5.265400
N -13.077800 -11.766700 -5.660500
H -12.765300 -10.877800 -5.572100
C -12.666200 -12.869900 -4.963500
H -11.967900 -12.843200 -4.319400
43
Fragment
H -21.004300 -16.560700 -20.639800
H -20.806700 -18.747000 -19.789300
C -20.564300 -16.717100 -19.812400
C -20.445400 -18.015300 -19.303500
H -20.103700 -14.771000 -19.422800
C -20.024100 -15.655100 -19.084900
N -19.898800 -15.301900 -12.503800
C -19.802200 -18.242500 -18.090000
H -19.735100 -19.128800 -17.753200
C -19.367800 -15.866700 -17.867600
C -19.250700 -17.174000 -17.355800
H -19.002400 -15.132800 -17.388700
C -18.759900 -15.502800 -12.449100
N -18.596800 -17.515400 -16.143600
H -18.510800 -18.410300 -15.983100
O -18.079000 -15.416000 -15.291000
C -17.993900 -16.660800 -15.237800
C -17.338900 -15.778500 -12.288100
N -17.308300 -17.317600 -14.238000
H -17.131800 -14.582800 -10.623700
H -17.046500 -18.207700 -14.317800
C -16.671400 -15.191300 -11.189700
C -16.661800 -16.660000 -13.159700
C -15.330900 -15.507600 -10.935200
C -15.314800 -16.965700 -12.883500
H -14.878800 -15.121500 -10.194200
H -14.843000 -17.563600 -13.450600
C -14.664900 -16.398600 -11.783300
H -13.758700 -16.622100 -11.609200
H -16.541500 -14.290000 -8.234600
H -16.432100 -12.033700 -8.723700
C -15.905400 -13.763300 -7.766500
C -15.843300 -12.397000 -8.073500
N -15.131200 -14.383700 -6.859400
C -14.918400 -11.559700 -7.428400
H -14.858500 -10.629800 -7.611400
C -14.237100 -13.574500 -6.237300
C -14.099300 -12.194100 -6.502900
N -13.330100 -13.984400 -5.265400
N -13.077800 -11.766700 -5.660500
H -12.765300 -10.877800 -5.572100
C -12.666200 -12.869900 -4.963500
H -11.967900 -12.843200 -4.319400
