28
Fragment
Br -25.819800 -24.572800 -7.416900
C -23.968400 -24.760400 -7.718000
H -23.780200 -26.582500 -6.803900
H -23.729000 -22.984600 -8.683800
C -23.303000 -25.902200 -7.262300
C -23.276600 -23.766900 -8.389700
C -21.952300 -26.030100 -7.483200
C -21.933000 -23.915100 -8.630000
H -21.496400 -26.797500 -7.157400
H -21.466900 -23.238600 -9.107700
C -21.238600 -25.047700 -8.182600
N -19.871800 -25.103300 -8.423600
H -19.614000 -24.467500 -8.471200
O -19.605000 -27.362800 -8.578200
C -19.114100 -26.222900 -8.574100
H -17.957800 -28.387900 -9.884400
N -17.789600 -25.983800 -8.718400
H -17.498100 -25.171900 -8.692100
C -17.066400 -28.158000 -9.651100
C -16.803800 -26.951300 -9.011800
H -16.221400 -29.846700 -10.390500
C -16.030000 -29.027400 -9.949300
C -15.489300 -26.649200 -8.658300
H -15.298800 -25.837300 -8.202600
C -14.726500 -28.725200 -9.618600
C -14.462000 -27.520400 -8.964800
H -14.020700 -29.324000 -9.832000
H -13.569400 -27.296100 -8.728700
28
Fragment
H -12.359500 -28.311900 -11.983300
H -11.908200 -26.284000 -10.880000
C -11.466900 -28.087600 -11.747100
C -11.202400 -26.882800 -11.093300
H -10.630100 -29.770700 -12.509300
C -10.439600 -28.958800 -12.053700
C -9.898800 -26.580600 -10.762600
H -9.707400 -25.761300 -10.321500
C -9.125100 -28.656700 -11.700200
C -8.862500 -27.450000 -11.060900
H -8.430800 -30.436100 -12.019800
N -8.139200 -29.624200 -11.993600
H -7.971100 -27.220100 -10.827500
C -6.814700 -29.385100 -12.137900
O -6.323800 -28.245200 -12.133800
H -6.314900 -31.140500 -12.240800
N -6.057000 -30.504700 -12.288400
C -4.690300 -30.560300 -12.529400
H -4.462000 -32.369400 -11.604200
H -4.432400 -28.810500 -13.554600
C -3.995900 -31.692900 -12.082000
C -3.976500 -29.577900 -13.228700
C -2.652200 -31.841100 -12.322200
C -2.625900 -29.705800 -13.449700
H -2.199900 -32.623400 -12.028100
H -2.148700 -29.025500 -13.908100
C -1.960500 -30.847600 -12.994000
Br -0.109100 -31.035200 -13.295100
56
Fragment
Br -25.819800 -24.572800 -7.416900
C -23.968400 -24.760400 -7.718000
H -23.780200 -26.582500 -6.803900
H -23.729000 -22.984600 -8.683800
C -23.303000 -25.902200 -7.262300
C -23.276600 -23.766900 -8.389700
C -21.952300 -26.030100 -7.483200
C -21.933000 -23.915100 -8.630000
H -21.496400 -26.797500 -7.157400
H -21.466900 -23.238600 -9.107700
C -21.238600 -25.047700 -8.182600
N -19.871800 -25.103300 -8.423600
H -19.614000 -24.467500 -8.471200
O -19.605000 -27.362800 -8.578200
C -19.114100 -26.222900 -8.574100
H -17.957800 -28.387900 -9.884400
N -17.789600 -25.983800 -8.718400
H -17.498100 -25.171900 -8.692100
C -17.066400 -28.158000 -9.651100
C -16.803800 -26.951300 -9.011800
H -16.221400 -29.846700 -10.390500
C -16.030000 -29.027400 -9.949300
C -15.489300 -26.649200 -8.658300
H -15.298800 -25.837300 -8.202600
C -14.726500 -28.725200 -9.618600
C -14.462000 -27.520400 -8.964800
H -14.020700 -29.324000 -9.832000
H -13.569400 -27.296100 -8.728700
H -12.359500 -28.311900 -11.983300
H -11.908200 -26.284000 -10.880000
C -11.466900 -28.087600 -11.747100
C -11.202400 -26.882800 -11.093300
H -10.630100 -29.770700 -12.509300
C -10.439600 -28.958800 -12.053700
C -9.898800 -26.580600 -10.762600
H -9.707400 -25.761300 -10.321500
C -9.125100 -28.656700 -11.700200
C -8.862500 -27.450000 -11.060900
H -8.430800 -30.436100 -12.019800
N -8.139200 -29.624200 -11.993600
H -7.971100 -27.220100 -10.827500
C -6.814700 -29.385100 -12.137900
O -6.323800 -28.245200 -12.133800
H -6.314900 -31.140500 -12.240800
N -6.057000 -30.504700 -12.288400
C -4.690300 -30.560300 -12.529400
H -4.462000 -32.369400 -11.604200
H -4.432400 -28.810500 -13.554600
C -3.995900 -31.692900 -12.082000
C -3.976500 -29.577900 -13.228700
C -2.652200 -31.841100 -12.322200
C -2.625900 -29.705800 -13.449700
H -2.199900 -32.623400 -12.028100
H -2.148700 -29.025500 -13.908100
C -1.960500 -30.847600 -12.994000
Br -0.109100 -31.035200 -13.295100
