36
Fragment
H -23.179600 -24.576300 -21.293800
H -23.151100 -22.396800 -22.138700
C -23.074800 -23.807900 -20.662000
H -23.067900 -26.143800 -19.335600
C -23.057300 -22.541000 -21.153400
H -23.017600 -19.924800 -21.750800
C -22.955300 -25.357600 -18.726000
C -22.947400 -24.066000 -19.272800
C -22.911800 -20.092800 -20.770400
C -22.910300 -21.424700 -20.300000
H -22.824300 -26.508100 -17.046200
C -22.817100 -25.569900 -17.392200
C -22.792400 -22.974100 -18.394700
H -22.782600 -18.114000 -20.309800
C -22.781100 -21.653000 -18.913200
C -22.775000 -19.041000 -19.936700
C -22.664400 -24.513200 -16.487000
C -22.638900 -23.194900 -17.004300
C -22.620300 -19.228300 -18.543700
C -22.619900 -20.549000 -18.030200
H -22.566700 -25.606800 -14.712300
C -22.522000 -24.684700 -15.094100
H -22.520300 -17.216700 -17.972300
C -22.487700 -18.156500 -17.631200
C -22.461900 -22.083400 -16.121200
C -22.456900 -20.771200 -16.641000
C -22.325800 -23.633800 -14.256700
C -22.314100 -18.371700 -16.299800
C -22.286400 -22.305100 -14.743100
C -22.285600 -19.669500 -15.771500
H -22.206600 -23.802600 -13.278800
H -22.205700 -17.590200 -15.685300
C -22.087200 -21.181600 -13.899500
C -22.079800 -19.917200 -14.392100
H -21.949300 -21.324700 -12.920400
H -21.927800 -19.148300 -13.771400
36
Fragment
H -24.478600 -29.657500 -10.050800
H -24.108900 -31.976200 -9.793400
H -23.779000 -27.460200 -10.917900
C -23.665900 -30.068200 -10.463400
C -23.448600 -31.430900 -10.309500
C -22.971100 -27.890000 -11.321800
C -22.791000 -29.259000 -11.174000
H -22.730700 -33.974300 -10.194900
C -22.326900 -32.054300 -10.857500
H -22.223600 -26.116100 -12.090300
C -22.091900 -33.412900 -10.719600
C -22.064900 -27.101100 -12.014000
C -21.634700 -29.873500 -11.739300
C -21.394800 -31.248400 -11.590300
C -20.970800 -34.005200 -11.307000
C -20.932900 -27.663700 -12.603900
H -20.835600 -34.992300 -11.214700
C -20.715500 -29.063800 -12.467200
C -20.244400 -31.845600 -12.164200
H -20.124400 -25.917100 -13.416700
C -20.027100 -33.245700 -12.027500
C -19.989100 -26.904200 -13.324400
C -19.565100 -29.661000 -13.041100
C -19.325300 -31.035900 -12.892100
C -18.895000 -33.808300 -12.617400
C -18.868100 -27.496500 -13.911800
H -18.736400 -34.793300 -12.541100
C -18.633100 -28.855100 -13.773900
H -18.229200 -26.935100 -14.436500
C -18.169000 -31.650400 -13.457400
C -17.988800 -33.019300 -13.309600
C -17.511300 -29.478500 -14.321900
C -17.294000 -30.841200 -14.168000
H -17.180900 -33.449200 -13.713500
H -16.851000 -28.933200 -14.838000
H -16.481300 -31.251900 -14.580600
72
Fragment
H -23.179600 -24.576300 -21.293800
H -23.151100 -22.396800 -22.138700
C -23.074800 -23.807900 -20.662000
H -23.067900 -26.143800 -19.335600
C -23.057300 -22.541000 -21.153400
H -23.017600 -19.924800 -21.750800
C -22.955300 -25.357600 -18.726000
C -22.947400 -24.066000 -19.272800
C -22.911800 -20.092800 -20.770400
C -22.910300 -21.424700 -20.300000
H -22.824300 -26.508100 -17.046200
C -22.817100 -25.569900 -17.392200
C -22.792400 -22.974100 -18.394700
H -22.782600 -18.114000 -20.309800
C -22.781100 -21.653000 -18.913200
C -22.775000 -19.041000 -19.936700
C -22.664400 -24.513200 -16.487000
C -22.638900 -23.194900 -17.004300
C -22.620300 -19.228300 -18.543700
C -22.619900 -20.549000 -18.030200
H -22.566700 -25.606800 -14.712300
C -22.522000 -24.684700 -15.094100
H -22.520300 -17.216700 -17.972300
C -22.487700 -18.156500 -17.631200
C -22.461900 -22.083400 -16.121200
C -22.456900 -20.771200 -16.641000
C -22.325800 -23.633800 -14.256700
C -22.314100 -18.371700 -16.299800
C -22.286400 -22.305100 -14.743100
C -22.285600 -19.669500 -15.771500
H -22.206600 -23.802600 -13.278800
H -22.205700 -17.590200 -15.685300
C -22.087200 -21.181600 -13.899500
C -22.079800 -19.917200 -14.392100
H -21.949300 -21.324700 -12.920400
H -21.927800 -19.148300 -13.771400
H -24.478600 -29.657500 -10.050800
H -24.108900 -31.976200 -9.793400
H -23.779000 -27.460200 -10.917900
C -23.665900 -30.068200 -10.463400
C -23.448600 -31.430900 -10.309500
C -22.971100 -27.890000 -11.321800
C -22.791000 -29.259000 -11.174000
H -22.730700 -33.974300 -10.194900
C -22.326900 -32.054300 -10.857500
H -22.223600 -26.116100 -12.090300
C -22.091900 -33.412900 -10.719600
C -22.064900 -27.101100 -12.014000
C -21.634700 -29.873500 -11.739300
C -21.394800 -31.248400 -11.590300
C -20.970800 -34.005200 -11.307000
C -20.932900 -27.663700 -12.603900
H -20.835600 -34.992300 -11.214700
C -20.715500 -29.063800 -12.467200
C -20.244400 -31.845600 -12.164200
H -20.124400 -25.917100 -13.416700
C -20.027100 -33.245700 -12.027500
C -19.989100 -26.904200 -13.324400
C -19.565100 -29.661000 -13.041100
C -19.325300 -31.035900 -12.892100
C -18.895000 -33.808300 -12.617400
C -18.868100 -27.496500 -13.911800
H -18.736400 -34.793300 -12.541100
C -18.633100 -28.855100 -13.773900
H -18.229200 -26.935100 -14.436500
C -18.169000 -31.650400 -13.457400
C -17.988800 -33.019300 -13.309600
C -17.511300 -29.478500 -14.321900
C -17.294000 -30.841200 -14.168000
H -17.180900 -33.449200 -13.713500
H -16.851000 -28.933200 -14.838000
H -16.481300 -31.251900 -14.580600
