36
Fragment
H -23.179600 -24.576300 -21.293800
H -23.151100 -22.396800 -22.138700
C -23.074800 -23.807900 -20.662000
H -23.067900 -26.143800 -19.335600
C -23.057300 -22.541000 -21.153400
H -23.017600 -19.924800 -21.750800
C -22.955300 -25.357600 -18.726000
C -22.947400 -24.066000 -19.272800
C -22.911800 -20.092800 -20.770400
C -22.910300 -21.424700 -20.300000
H -22.824300 -26.508100 -17.046200
C -22.817100 -25.569900 -17.392200
C -22.792400 -22.974100 -18.394700
H -22.782600 -18.114000 -20.309800
C -22.781100 -21.653000 -18.913200
C -22.775000 -19.041000 -19.936700
C -22.664400 -24.513200 -16.487000
C -22.638900 -23.194900 -17.004300
C -22.620300 -19.228300 -18.543700
C -22.619900 -20.549000 -18.030200
H -22.566700 -25.606800 -14.712300
C -22.522000 -24.684700 -15.094100
H -22.520300 -17.216700 -17.972300
C -22.487700 -18.156500 -17.631200
C -22.461900 -22.083400 -16.121200
C -22.456900 -20.771200 -16.641000
C -22.325800 -23.633800 -14.256700
C -22.314100 -18.371700 -16.299800
C -22.286400 -22.305100 -14.743100
C -22.285600 -19.669500 -15.771500
H -22.206600 -23.802600 -13.278800
H -22.205700 -17.590200 -15.685300
C -22.087200 -21.181600 -13.899500
C -22.079800 -19.917200 -14.392100
H -21.949300 -21.324700 -12.920400
H -21.927800 -19.148300 -13.771400
36
Fragment
H -25.543400 -12.694200 -22.366500
H -25.173700 -15.012900 -22.109100
H -24.843800 -10.496800 -23.233600
C -24.730700 -13.104800 -22.779100
C -24.513400 -14.467600 -22.625200
C -24.035900 -10.926700 -23.637500
C -23.855700 -12.295700 -23.489700
H -23.795500 -17.011000 -22.510600
C -23.391600 -15.091000 -23.173200
H -23.288300 -9.152700 -24.406000
C -23.156600 -16.449600 -23.035300
C -23.129700 -10.137800 -24.329700
C -22.699400 -12.910100 -24.055000
C -22.459600 -14.285000 -23.906000
C -22.035600 -17.041900 -23.622700
C -21.997600 -10.700300 -24.919600
H -21.900300 -18.028900 -23.530400
C -21.780300 -12.100400 -24.782900
C -21.309200 -14.882300 -24.479900
H -21.189100 -8.953800 -25.732400
C -21.091800 -16.282400 -24.343200
C -21.053900 -9.940900 -25.640100
C -20.629900 -12.697700 -25.356800
C -20.390000 -14.072600 -25.207800
C -19.959800 -16.845000 -24.933100
C -19.932800 -10.533200 -26.227500
H -19.801100 -17.830000 -24.856800
C -19.697800 -11.891800 -26.089600
H -19.294000 -9.971800 -26.752200
C -19.233700 -14.687000 -25.773100
C -19.053500 -16.056000 -25.625300
C -18.576100 -12.515200 -26.637600
C -18.358700 -13.877900 -26.483700
H -18.245700 -16.485900 -26.029200
H -17.915800 -11.969900 -27.153700
H -17.546100 -14.288500 -26.896300
72
Fragment
H -23.179600 -24.576300 -21.293800
H -23.151100 -22.396800 -22.138700
C -23.074800 -23.807900 -20.662000
H -23.067900 -26.143800 -19.335600
C -23.057300 -22.541000 -21.153400
H -23.017600 -19.924800 -21.750800
C -22.955300 -25.357600 -18.726000
C -22.947400 -24.066000 -19.272800
C -22.911800 -20.092800 -20.770400
C -22.910300 -21.424700 -20.300000
H -22.824300 -26.508100 -17.046200
C -22.817100 -25.569900 -17.392200
C -22.792400 -22.974100 -18.394700
H -22.782600 -18.114000 -20.309800
C -22.781100 -21.653000 -18.913200
C -22.775000 -19.041000 -19.936700
C -22.664400 -24.513200 -16.487000
C -22.638900 -23.194900 -17.004300
C -22.620300 -19.228300 -18.543700
C -22.619900 -20.549000 -18.030200
H -22.566700 -25.606800 -14.712300
C -22.522000 -24.684700 -15.094100
H -22.520300 -17.216700 -17.972300
C -22.487700 -18.156500 -17.631200
C -22.461900 -22.083400 -16.121200
C -22.456900 -20.771200 -16.641000
C -22.325800 -23.633800 -14.256700
C -22.314100 -18.371700 -16.299800
C -22.286400 -22.305100 -14.743100
C -22.285600 -19.669500 -15.771500
H -22.206600 -23.802600 -13.278800
H -22.205700 -17.590200 -15.685300
C -22.087200 -21.181600 -13.899500
C -22.079800 -19.917200 -14.392100
H -21.949300 -21.324700 -12.920400
H -21.927800 -19.148300 -13.771400
H -25.543400 -12.694200 -22.366500
H -25.173700 -15.012900 -22.109100
H -24.843800 -10.496800 -23.233600
C -24.730700 -13.104800 -22.779100
C -24.513400 -14.467600 -22.625200
C -24.035900 -10.926700 -23.637500
C -23.855700 -12.295700 -23.489700
H -23.795500 -17.011000 -22.510600
C -23.391600 -15.091000 -23.173200
H -23.288300 -9.152700 -24.406000
C -23.156600 -16.449600 -23.035300
C -23.129700 -10.137800 -24.329700
C -22.699400 -12.910100 -24.055000
C -22.459600 -14.285000 -23.906000
C -22.035600 -17.041900 -23.622700
C -21.997600 -10.700300 -24.919600
H -21.900300 -18.028900 -23.530400
C -21.780300 -12.100400 -24.782900
C -21.309200 -14.882300 -24.479900
H -21.189100 -8.953800 -25.732400
C -21.091800 -16.282400 -24.343200
C -21.053900 -9.940900 -25.640100
C -20.629900 -12.697700 -25.356800
C -20.390000 -14.072600 -25.207800
C -19.959800 -16.845000 -24.933100
C -19.932800 -10.533200 -26.227500
H -19.801100 -17.830000 -24.856800
C -19.697800 -11.891800 -26.089600
H -19.294000 -9.971800 -26.752200
C -19.233700 -14.687000 -25.773100
C -19.053500 -16.056000 -25.625300
C -18.576100 -12.515200 -26.637600
C -18.358700 -13.877900 -26.483700
H -18.245700 -16.485900 -26.029200
H -17.915800 -11.969900 -27.153700
H -17.546100 -14.288500 -26.896300
