36
Fragment
H -23.179600 -24.576300 -21.293800
H -23.151100 -22.396800 -22.138700
C -23.074800 -23.807900 -20.662000
H -23.067900 -26.143800 -19.335600
C -23.057300 -22.541000 -21.153400
H -23.017600 -19.924800 -21.750800
C -22.955300 -25.357600 -18.726000
C -22.947400 -24.066000 -19.272800
C -22.911800 -20.092800 -20.770400
C -22.910300 -21.424700 -20.300000
H -22.824300 -26.508100 -17.046200
C -22.817100 -25.569900 -17.392200
C -22.792400 -22.974100 -18.394700
H -22.782600 -18.114000 -20.309800
C -22.781100 -21.653000 -18.913200
C -22.775000 -19.041000 -19.936700
C -22.664400 -24.513200 -16.487000
C -22.638900 -23.194900 -17.004300
C -22.620300 -19.228300 -18.543700
C -22.619900 -20.549000 -18.030200
H -22.566700 -25.606800 -14.712300
C -22.522000 -24.684700 -15.094100
H -22.520300 -17.216700 -17.972300
C -22.487700 -18.156500 -17.631200
C -22.461900 -22.083400 -16.121200
C -22.456900 -20.771200 -16.641000
C -22.325800 -23.633800 -14.256700
C -22.314100 -18.371700 -16.299800
C -22.286400 -22.305100 -14.743100
C -22.285600 -19.669500 -15.771500
H -22.206600 -23.802600 -13.278800
H -22.205700 -17.590200 -15.685300
C -22.087200 -21.181600 -13.899500
C -22.079800 -19.917200 -14.392100
H -21.949300 -21.324700 -12.920400
H -21.927800 -19.148300 -13.771400
36
Fragment
H -25.219600 -35.113600 -21.293800
H -25.191200 -32.934100 -22.138700
C -25.114900 -34.345300 -20.662000
H -25.108000 -36.681200 -19.335600
C -25.097400 -33.078300 -21.153400
H -25.057700 -30.462200 -21.750800
C -24.995300 -35.895000 -18.726000
C -24.987500 -34.603300 -19.272800
C -24.951800 -30.630200 -20.770400
C -24.950400 -31.962000 -20.300000
H -24.864400 -37.045400 -17.046200
C -24.857100 -36.107200 -17.392200
C -24.832400 -33.511500 -18.394700
H -24.822600 -28.651300 -20.309800
C -24.821200 -32.190300 -18.913200
C -24.815000 -29.578400 -19.936700
C -24.704400 -35.050600 -16.487000
C -24.678900 -33.732200 -17.004300
C -24.660400 -29.765600 -18.543700
C -24.660000 -31.086300 -18.030200
H -24.606800 -36.144100 -14.712300
C -24.562000 -35.222000 -15.094100
H -24.560400 -27.754000 -17.972300
C -24.527700 -28.693900 -17.631200
C -24.502000 -32.620800 -16.121200
C -24.497000 -31.308500 -16.641000
C -24.365800 -34.171100 -14.256700
C -24.354100 -28.909100 -16.299800
C -24.326400 -32.842500 -14.743100
C -24.325700 -30.206900 -15.771500
H -24.246600 -34.339900 -13.278800
H -24.245800 -28.127500 -15.685300
C -24.127300 -31.718900 -13.899500
C -24.119900 -30.454500 -14.392100
H -23.989400 -31.862000 -12.920400
H -23.967800 -29.685700 -13.771400
72
Fragment
H -23.179600 -24.576300 -21.293800
H -23.151100 -22.396800 -22.138700
C -23.074800 -23.807900 -20.662000
H -23.067900 -26.143800 -19.335600
C -23.057300 -22.541000 -21.153400
H -23.017600 -19.924800 -21.750800
C -22.955300 -25.357600 -18.726000
C -22.947400 -24.066000 -19.272800
C -22.911800 -20.092800 -20.770400
C -22.910300 -21.424700 -20.300000
H -22.824300 -26.508100 -17.046200
C -22.817100 -25.569900 -17.392200
C -22.792400 -22.974100 -18.394700
H -22.782600 -18.114000 -20.309800
C -22.781100 -21.653000 -18.913200
C -22.775000 -19.041000 -19.936700
C -22.664400 -24.513200 -16.487000
C -22.638900 -23.194900 -17.004300
C -22.620300 -19.228300 -18.543700
C -22.619900 -20.549000 -18.030200
H -22.566700 -25.606800 -14.712300
C -22.522000 -24.684700 -15.094100
H -22.520300 -17.216700 -17.972300
C -22.487700 -18.156500 -17.631200
C -22.461900 -22.083400 -16.121200
C -22.456900 -20.771200 -16.641000
C -22.325800 -23.633800 -14.256700
C -22.314100 -18.371700 -16.299800
C -22.286400 -22.305100 -14.743100
C -22.285600 -19.669500 -15.771500
H -22.206600 -23.802600 -13.278800
H -22.205700 -17.590200 -15.685300
C -22.087200 -21.181600 -13.899500
C -22.079800 -19.917200 -14.392100
H -21.949300 -21.324700 -12.920400
H -21.927800 -19.148300 -13.771400
H -25.219600 -35.113600 -21.293800
H -25.191200 -32.934100 -22.138700
C -25.114900 -34.345300 -20.662000
H -25.108000 -36.681200 -19.335600
C -25.097400 -33.078300 -21.153400
H -25.057700 -30.462200 -21.750800
C -24.995300 -35.895000 -18.726000
C -24.987500 -34.603300 -19.272800
C -24.951800 -30.630200 -20.770400
C -24.950400 -31.962000 -20.300000
H -24.864400 -37.045400 -17.046200
C -24.857100 -36.107200 -17.392200
C -24.832400 -33.511500 -18.394700
H -24.822600 -28.651300 -20.309800
C -24.821200 -32.190300 -18.913200
C -24.815000 -29.578400 -19.936700
C -24.704400 -35.050600 -16.487000
C -24.678900 -33.732200 -17.004300
C -24.660400 -29.765600 -18.543700
C -24.660000 -31.086300 -18.030200
H -24.606800 -36.144100 -14.712300
C -24.562000 -35.222000 -15.094100
H -24.560400 -27.754000 -17.972300
C -24.527700 -28.693900 -17.631200
C -24.502000 -32.620800 -16.121200
C -24.497000 -31.308500 -16.641000
C -24.365800 -34.171100 -14.256700
C -24.354100 -28.909100 -16.299800
C -24.326400 -32.842500 -14.743100
C -24.325700 -30.206900 -15.771500
H -24.246600 -34.339900 -13.278800
H -24.245800 -28.127500 -15.685300
C -24.127300 -31.718900 -13.899500
C -24.119900 -30.454500 -14.392100
H -23.989400 -31.862000 -12.920400
H -23.967800 -29.685700 -13.771400
