36
Fragment
H -23.179600 -24.576300 -21.293800
H -23.151100 -22.396800 -22.138700
C -23.074800 -23.807900 -20.662000
H -23.067900 -26.143800 -19.335600
C -23.057300 -22.541000 -21.153400
H -23.017600 -19.924800 -21.750800
C -22.955300 -25.357600 -18.726000
C -22.947400 -24.066000 -19.272800
C -22.911800 -20.092800 -20.770400
C -22.910300 -21.424700 -20.300000
H -22.824300 -26.508100 -17.046200
C -22.817100 -25.569900 -17.392200
C -22.792400 -22.974100 -18.394700
H -22.782600 -18.114000 -20.309800
C -22.781100 -21.653000 -18.913200
C -22.775000 -19.041000 -19.936700
C -22.664400 -24.513200 -16.487000
C -22.638900 -23.194900 -17.004300
C -22.620300 -19.228300 -18.543700
C -22.619900 -20.549000 -18.030200
H -22.566700 -25.606800 -14.712300
C -22.522000 -24.684700 -15.094100
H -22.520300 -17.216700 -17.972300
C -22.487700 -18.156500 -17.631200
C -22.461900 -22.083400 -16.121200
C -22.456900 -20.771200 -16.641000
C -22.325800 -23.633800 -14.256700
C -22.314100 -18.371700 -16.299800
C -22.286400 -22.305100 -14.743100
C -22.285600 -19.669500 -15.771500
H -22.206600 -23.802600 -13.278800
H -22.205700 -17.590200 -15.685300
C -22.087200 -21.181600 -13.899500
C -22.079800 -19.917200 -14.392100
H -21.949300 -21.324700 -12.920400
H -21.927800 -19.148300 -13.771400
36
Fragment
H -21.139500 -14.038900 -21.293800
H -21.111100 -11.859500 -22.138700
C -21.034800 -13.270600 -20.662000
H -21.027900 -15.606500 -19.335600
C -21.017300 -12.003700 -21.153400
H -20.977600 -9.387500 -21.750800
C -20.915200 -14.820300 -18.726000
C -20.907400 -13.528600 -19.272800
C -20.871700 -9.555500 -20.770400
C -20.870300 -10.887400 -20.300000
H -20.784300 -15.970700 -17.046200
C -20.777000 -15.032500 -17.392200
C -20.752300 -12.436800 -18.394700
H -20.742500 -7.576700 -20.309800
C -20.741100 -11.115700 -18.913200
C -20.735000 -8.503700 -19.936700
C -20.624400 -13.975900 -16.487000
C -20.598900 -12.657500 -17.004300
C -20.580300 -8.691000 -18.543700
C -20.579900 -10.011600 -18.030200
H -20.526700 -15.069400 -14.712300
C -20.482000 -14.147300 -15.094100
H -20.480300 -6.679400 -17.972300
C -20.447600 -7.619200 -17.631200
C -20.421900 -11.546100 -16.121200
C -20.416900 -10.233800 -16.641000
C -20.285700 -13.096400 -14.256700
C -20.274000 -7.834400 -16.299800
C -20.246300 -11.767800 -14.743100
C -20.245600 -9.132200 -15.771500
H -20.166600 -13.265300 -13.278800
H -20.165700 -7.052900 -15.685300
C -20.047200 -10.644200 -13.899500
C -20.039800 -9.379800 -14.392100
H -19.909300 -10.787400 -12.920400
H -19.887700 -8.611000 -13.771400
72
Fragment
H -23.179600 -24.576300 -21.293800
H -23.151100 -22.396800 -22.138700
C -23.074800 -23.807900 -20.662000
H -23.067900 -26.143800 -19.335600
C -23.057300 -22.541000 -21.153400
H -23.017600 -19.924800 -21.750800
C -22.955300 -25.357600 -18.726000
C -22.947400 -24.066000 -19.272800
C -22.911800 -20.092800 -20.770400
C -22.910300 -21.424700 -20.300000
H -22.824300 -26.508100 -17.046200
C -22.817100 -25.569900 -17.392200
C -22.792400 -22.974100 -18.394700
H -22.782600 -18.114000 -20.309800
C -22.781100 -21.653000 -18.913200
C -22.775000 -19.041000 -19.936700
C -22.664400 -24.513200 -16.487000
C -22.638900 -23.194900 -17.004300
C -22.620300 -19.228300 -18.543700
C -22.619900 -20.549000 -18.030200
H -22.566700 -25.606800 -14.712300
C -22.522000 -24.684700 -15.094100
H -22.520300 -17.216700 -17.972300
C -22.487700 -18.156500 -17.631200
C -22.461900 -22.083400 -16.121200
C -22.456900 -20.771200 -16.641000
C -22.325800 -23.633800 -14.256700
C -22.314100 -18.371700 -16.299800
C -22.286400 -22.305100 -14.743100
C -22.285600 -19.669500 -15.771500
H -22.206600 -23.802600 -13.278800
H -22.205700 -17.590200 -15.685300
C -22.087200 -21.181600 -13.899500
C -22.079800 -19.917200 -14.392100
H -21.949300 -21.324700 -12.920400
H -21.927800 -19.148300 -13.771400
H -21.139500 -14.038900 -21.293800
H -21.111100 -11.859500 -22.138700
C -21.034800 -13.270600 -20.662000
H -21.027900 -15.606500 -19.335600
C -21.017300 -12.003700 -21.153400
H -20.977600 -9.387500 -21.750800
C -20.915200 -14.820300 -18.726000
C -20.907400 -13.528600 -19.272800
C -20.871700 -9.555500 -20.770400
C -20.870300 -10.887400 -20.300000
H -20.784300 -15.970700 -17.046200
C -20.777000 -15.032500 -17.392200
C -20.752300 -12.436800 -18.394700
H -20.742500 -7.576700 -20.309800
C -20.741100 -11.115700 -18.913200
C -20.735000 -8.503700 -19.936700
C -20.624400 -13.975900 -16.487000
C -20.598900 -12.657500 -17.004300
C -20.580300 -8.691000 -18.543700
C -20.579900 -10.011600 -18.030200
H -20.526700 -15.069400 -14.712300
C -20.482000 -14.147300 -15.094100
H -20.480300 -6.679400 -17.972300
C -20.447600 -7.619200 -17.631200
C -20.421900 -11.546100 -16.121200
C -20.416900 -10.233800 -16.641000
C -20.285700 -13.096400 -14.256700
C -20.274000 -7.834400 -16.299800
C -20.246300 -11.767800 -14.743100
C -20.245600 -9.132200 -15.771500
H -20.166600 -13.265300 -13.278800
H -20.165700 -7.052900 -15.685300
C -20.047200 -10.644200 -13.899500
C -20.039800 -9.379800 -14.392100
H -19.909300 -10.787400 -12.920400
H -19.887700 -8.611000 -13.771400
