35
Fragment
H -12.821900 -21.903100 -27.913300
H -12.820000 -22.696500 -30.491000
O -12.365200 -22.906100 -33.265800
C -12.113800 -22.060400 -30.510100
C -11.918900 -21.534000 -28.005200
H -11.881500 -20.652100 -27.579800
C -11.580300 -21.402300 -29.453300
C -11.531600 -22.071300 -32.966100
N -11.411500 -21.612000 -31.635300
H -11.275200 -22.133200 -27.571600
N -10.573500 -20.528800 -29.863900
C -10.570500 -21.422000 -33.791000
C -10.510000 -20.684400 -31.164600
N -10.361400 -21.633600 -35.144900
H -10.192600 -17.641800 -33.095400
H -9.955400 -15.557300 -33.221000
C -9.728000 -20.431000 -33.330300
N -9.679300 -20.002300 -32.025600
H -9.629600 -17.644500 -35.331200
C -9.417000 -20.792900 -35.472100
H -9.334300 -18.474000 -30.744200
C -9.283700 -17.258000 -33.260100
O -9.259500 -15.892800 -32.885000
H -9.056300 -20.724400 -36.348300
N -8.996800 -20.014200 -34.411800
C -8.845700 -17.546800 -34.717300
C -8.811700 -18.978900 -31.417200
H -8.297000 -16.092500 -35.885100
C -8.236400 -18.007500 -32.417200
C -8.091300 -18.867500 -34.537200
H -8.067700 -19.429300 -30.943900
O -7.919000 -16.601700 -35.194700
H -7.684800 -17.334100 -31.923900
H -7.458900 -19.009200 -35.298300
O -7.376700 -18.719000 -33.337500
35
Fragment
O -7.386600 -12.029400 -38.720900
H -7.304400 -12.319600 -36.760100
H -7.078500 -10.644500 -40.134400
O -6.844300 -9.912100 -36.863600
H -6.695600 -12.739700 -41.114400
C -6.672000 -12.177900 -37.521200
C -6.526900 -11.317900 -39.641200
H -6.466300 -9.402900 -36.173300
C -5.951600 -12.289300 -40.641100
C -5.917600 -10.857200 -37.341000
N -5.766500 -13.324600 -37.646600
H -5.707000 -14.034800 -35.710100
O -5.503800 -9.203200 -39.173400
C -5.479600 -10.568400 -38.798300
H -5.429000 -11.784400 -41.314100
C -5.346300 -14.103300 -36.586300
H -5.133700 -10.954900 -36.727100
N -5.084000 -13.312700 -40.032700
C -5.035300 -13.741400 -38.728100
H -4.807900 -8.867700 -38.837400
H -4.570700 -10.952200 -38.963000
N -4.401900 -14.944000 -36.913400
C -4.253300 -13.994800 -40.893700
C -4.192800 -14.732400 -38.267300
N -4.189800 -13.839200 -42.194500
H -3.488100 -15.443600 -44.486800
N -3.351800 -14.922400 -40.423100
C -3.231700 -15.381700 -39.092300
C -3.183000 -14.712700 -42.605000
H -2.881800 -13.962500 -44.478500
C -2.844400 -14.844400 -44.053200
C -2.649500 -15.370800 -41.548200
O -2.398100 -16.216500 -38.792500
H -1.943300 -16.006900 -41.567400
H -1.941400 -15.213500 -44.145000
70
Fragment
H -12.821900 -21.903100 -27.913300
H -12.820000 -22.696500 -30.491000
O -12.365200 -22.906100 -33.265800
C -12.113800 -22.060400 -30.510100
C -11.918900 -21.534000 -28.005200
H -11.881500 -20.652100 -27.579800
C -11.580300 -21.402300 -29.453300
C -11.531600 -22.071300 -32.966100
N -11.411500 -21.612000 -31.635300
H -11.275200 -22.133200 -27.571600
N -10.573500 -20.528800 -29.863900
C -10.570500 -21.422000 -33.791000
C -10.510000 -20.684400 -31.164600
N -10.361400 -21.633600 -35.144900
H -10.192600 -17.641800 -33.095400
H -9.955400 -15.557300 -33.221000
C -9.728000 -20.431000 -33.330300
N -9.679300 -20.002300 -32.025600
H -9.629600 -17.644500 -35.331200
C -9.417000 -20.792900 -35.472100
H -9.334300 -18.474000 -30.744200
C -9.283700 -17.258000 -33.260100
O -9.259500 -15.892800 -32.885000
H -9.056300 -20.724400 -36.348300
N -8.996800 -20.014200 -34.411800
C -8.845700 -17.546800 -34.717300
C -8.811700 -18.978900 -31.417200
H -8.297000 -16.092500 -35.885100
C -8.236400 -18.007500 -32.417200
C -8.091300 -18.867500 -34.537200
H -8.067700 -19.429300 -30.943900
O -7.919000 -16.601700 -35.194700
H -7.684800 -17.334100 -31.923900
H -7.458900 -19.009200 -35.298300
O -7.376700 -18.719000 -33.337500
O -7.386600 -12.029400 -38.720900
H -7.304400 -12.319600 -36.760100
H -7.078500 -10.644500 -40.134400
O -6.844300 -9.912100 -36.863600
H -6.695600 -12.739700 -41.114400
C -6.672000 -12.177900 -37.521200
C -6.526900 -11.317900 -39.641200
H -6.466300 -9.402900 -36.173300
C -5.951600 -12.289300 -40.641100
C -5.917600 -10.857200 -37.341000
N -5.766500 -13.324600 -37.646600
H -5.707000 -14.034800 -35.710100
O -5.503800 -9.203200 -39.173400
C -5.479600 -10.568400 -38.798300
H -5.429000 -11.784400 -41.314100
C -5.346300 -14.103300 -36.586300
H -5.133700 -10.954900 -36.727100
N -5.084000 -13.312700 -40.032700
C -5.035300 -13.741400 -38.728100
H -4.807900 -8.867700 -38.837400
H -4.570700 -10.952200 -38.963000
N -4.401900 -14.944000 -36.913400
C -4.253300 -13.994800 -40.893700
C -4.192800 -14.732400 -38.267300
N -4.189800 -13.839200 -42.194500
H -3.488100 -15.443600 -44.486800
N -3.351800 -14.922400 -40.423100
C -3.231700 -15.381700 -39.092300
C -3.183000 -14.712700 -42.605000
H -2.881800 -13.962500 -44.478500
C -2.844400 -14.844400 -44.053200
C -2.649500 -15.370800 -41.548200
O -2.398100 -16.216500 -38.792500
H -1.943300 -16.006900 -41.567400
H -1.941400 -15.213500 -44.145000
