35
Fragment
H -12.821900 -21.903100 -27.913300
H -12.820000 -22.696500 -30.491000
O -12.365200 -22.906100 -33.265800
C -12.113800 -22.060400 -30.510100
C -11.918900 -21.534000 -28.005200
H -11.881500 -20.652100 -27.579800
C -11.580300 -21.402300 -29.453300
C -11.531600 -22.071300 -32.966100
N -11.411500 -21.612000 -31.635300
H -11.275200 -22.133200 -27.571600
N -10.573500 -20.528800 -29.863900
C -10.570500 -21.422000 -33.791000
C -10.510000 -20.684400 -31.164600
N -10.361400 -21.633600 -35.144900
H -10.192600 -17.641800 -33.095400
H -9.955400 -15.557300 -33.221000
C -9.728000 -20.431000 -33.330300
N -9.679300 -20.002300 -32.025600
H -9.629600 -17.644500 -35.331200
C -9.417000 -20.792900 -35.472100
H -9.334300 -18.474000 -30.744200
C -9.283700 -17.258000 -33.260100
O -9.259500 -15.892800 -32.885000
H -9.056300 -20.724400 -36.348300
N -8.996800 -20.014200 -34.411800
C -8.845700 -17.546800 -34.717300
C -8.811700 -18.978900 -31.417200
H -8.297000 -16.092500 -35.885100
C -8.236400 -18.007500 -32.417200
C -8.091300 -18.867500 -34.537200
H -8.067700 -19.429300 -30.943900
O -7.919000 -16.601700 -35.194700
H -7.684800 -17.334100 -31.923900
H -7.458900 -19.009200 -35.298300
O -7.376700 -18.719000 -33.337500
35
Fragment
H -15.282500 -11.544900 -33.851000
H -15.280500 -10.751500 -31.273300
O -14.825800 -10.541900 -28.498500
C -14.574300 -11.387600 -31.254200
C -14.379500 -11.914000 -33.759100
H -14.342100 -12.795900 -34.184500
C -14.040900 -12.045700 -32.311000
C -13.992200 -11.376700 -28.798200
N -13.872100 -11.836000 -30.129000
H -13.735800 -11.314800 -34.192700
N -13.034000 -12.919200 -31.900400
C -13.031100 -12.026000 -27.973300
C -12.970500 -12.763600 -30.599700
N -12.821900 -11.814400 -26.619400
H -12.653100 -15.806200 -28.668900
H -12.415900 -17.890700 -28.543300
C -12.188600 -13.017000 -28.434000
N -12.139900 -13.445700 -29.738700
H -12.090200 -15.803500 -26.433100
C -11.877600 -12.655100 -26.292200
H -11.794900 -14.974000 -31.020100
C -11.744200 -16.190000 -28.504200
O -11.720100 -17.555200 -28.879300
H -11.516900 -12.723600 -25.416000
N -11.457300 -13.433800 -27.352500
C -11.306200 -15.901200 -27.047000
C -11.272300 -14.469100 -30.347100
H -10.757500 -17.355500 -25.879200
C -10.697000 -15.440500 -29.347100
C -10.551800 -14.580500 -27.227100
H -10.528200 -14.018700 -30.820400
O -10.379600 -16.846300 -26.569600
H -10.145300 -16.113900 -29.840400
H -9.919500 -14.438800 -26.466000
O -9.837300 -14.729000 -28.426800
70
Fragment
H -12.821900 -21.903100 -27.913300
H -12.820000 -22.696500 -30.491000
O -12.365200 -22.906100 -33.265800
C -12.113800 -22.060400 -30.510100
C -11.918900 -21.534000 -28.005200
H -11.881500 -20.652100 -27.579800
C -11.580300 -21.402300 -29.453300
C -11.531600 -22.071300 -32.966100
N -11.411500 -21.612000 -31.635300
H -11.275200 -22.133200 -27.571600
N -10.573500 -20.528800 -29.863900
C -10.570500 -21.422000 -33.791000
C -10.510000 -20.684400 -31.164600
N -10.361400 -21.633600 -35.144900
H -10.192600 -17.641800 -33.095400
H -9.955400 -15.557300 -33.221000
C -9.728000 -20.431000 -33.330300
N -9.679300 -20.002300 -32.025600
H -9.629600 -17.644500 -35.331200
C -9.417000 -20.792900 -35.472100
H -9.334300 -18.474000 -30.744200
C -9.283700 -17.258000 -33.260100
O -9.259500 -15.892800 -32.885000
H -9.056300 -20.724400 -36.348300
N -8.996800 -20.014200 -34.411800
C -8.845700 -17.546800 -34.717300
C -8.811700 -18.978900 -31.417200
H -8.297000 -16.092500 -35.885100
C -8.236400 -18.007500 -32.417200
C -8.091300 -18.867500 -34.537200
H -8.067700 -19.429300 -30.943900
O -7.919000 -16.601700 -35.194700
H -7.684800 -17.334100 -31.923900
H -7.458900 -19.009200 -35.298300
O -7.376700 -18.719000 -33.337500
H -15.282500 -11.544900 -33.851000
H -15.280500 -10.751500 -31.273300
O -14.825800 -10.541900 -28.498500
C -14.574300 -11.387600 -31.254200
C -14.379500 -11.914000 -33.759100
H -14.342100 -12.795900 -34.184500
C -14.040900 -12.045700 -32.311000
C -13.992200 -11.376700 -28.798200
N -13.872100 -11.836000 -30.129000
H -13.735800 -11.314800 -34.192700
N -13.034000 -12.919200 -31.900400
C -13.031100 -12.026000 -27.973300
C -12.970500 -12.763600 -30.599700
N -12.821900 -11.814400 -26.619400
H -12.653100 -15.806200 -28.668900
H -12.415900 -17.890700 -28.543300
C -12.188600 -13.017000 -28.434000
N -12.139900 -13.445700 -29.738700
H -12.090200 -15.803500 -26.433100
C -11.877600 -12.655100 -26.292200
H -11.794900 -14.974000 -31.020100
C -11.744200 -16.190000 -28.504200
O -11.720100 -17.555200 -28.879300
H -11.516900 -12.723600 -25.416000
N -11.457300 -13.433800 -27.352500
C -11.306200 -15.901200 -27.047000
C -11.272300 -14.469100 -30.347100
H -10.757500 -17.355500 -25.879200
C -10.697000 -15.440500 -29.347100
C -10.551800 -14.580500 -27.227100
H -10.528200 -14.018700 -30.820400
O -10.379600 -16.846300 -26.569600
H -10.145300 -16.113900 -29.840400
H -9.919500 -14.438800 -26.466000
O -9.837300 -14.729000 -28.426800
