35
Fragment
H -12.821900 -21.903100 -27.913300
H -12.820000 -22.696500 -30.491000
O -12.365200 -22.906100 -33.265800
C -12.113800 -22.060400 -30.510100
C -11.918900 -21.534000 -28.005200
H -11.881500 -20.652100 -27.579800
C -11.580300 -21.402300 -29.453300
C -11.531600 -22.071300 -32.966100
N -11.411500 -21.612000 -31.635300
H -11.275200 -22.133200 -27.571600
N -10.573500 -20.528800 -29.863900
C -10.570500 -21.422000 -33.791000
C -10.510000 -20.684400 -31.164600
N -10.361400 -21.633600 -35.144900
H -10.192600 -17.641800 -33.095400
H -9.955400 -15.557300 -33.221000
C -9.728000 -20.431000 -33.330300
N -9.679300 -20.002300 -32.025600
H -9.629600 -17.644500 -35.331200
C -9.417000 -20.792900 -35.472100
H -9.334300 -18.474000 -30.744200
C -9.283700 -17.258000 -33.260100
O -9.259500 -15.892800 -32.885000
H -9.056300 -20.724400 -36.348300
N -8.996800 -20.014200 -34.411800
C -8.845700 -17.546800 -34.717300
C -8.811700 -18.978900 -31.417200
H -8.297000 -16.092500 -35.885100
C -8.236400 -18.007500 -32.417200
C -8.091300 -18.867500 -34.537200
H -8.067700 -19.429300 -30.943900
O -7.919000 -16.601700 -35.194700
H -7.684800 -17.334100 -31.923900
H -7.458900 -19.009200 -35.298300
O -7.376700 -18.719000 -33.337500
3
Fragment
H -7.204500 -15.224200 -34.013600
H -7.076500 -14.069600 -33.138600
O -6.617400 -14.606900 -33.707700
38
Fragment
H -12.821900 -21.903100 -27.913300
H -12.820000 -22.696500 -30.491000
O -12.365200 -22.906100 -33.265800
C -12.113800 -22.060400 -30.510100
C -11.918900 -21.534000 -28.005200
H -11.881500 -20.652100 -27.579800
C -11.580300 -21.402300 -29.453300
C -11.531600 -22.071300 -32.966100
N -11.411500 -21.612000 -31.635300
H -11.275200 -22.133200 -27.571600
N -10.573500 -20.528800 -29.863900
C -10.570500 -21.422000 -33.791000
C -10.510000 -20.684400 -31.164600
N -10.361400 -21.633600 -35.144900
H -10.192600 -17.641800 -33.095400
H -9.955400 -15.557300 -33.221000
C -9.728000 -20.431000 -33.330300
N -9.679300 -20.002300 -32.025600
H -9.629600 -17.644500 -35.331200
C -9.417000 -20.792900 -35.472100
H -9.334300 -18.474000 -30.744200
C -9.283700 -17.258000 -33.260100
O -9.259500 -15.892800 -32.885000
H -9.056300 -20.724400 -36.348300
N -8.996800 -20.014200 -34.411800
C -8.845700 -17.546800 -34.717300
C -8.811700 -18.978900 -31.417200
H -8.297000 -16.092500 -35.885100
C -8.236400 -18.007500 -32.417200
C -8.091300 -18.867500 -34.537200
H -8.067700 -19.429300 -30.943900
O -7.919000 -16.601700 -35.194700
H -7.684800 -17.334100 -31.923900
H -7.458900 -19.009200 -35.298300
O -7.376700 -18.719000 -33.337500
H -7.204500 -15.224200 -34.013600
H -7.076500 -14.069600 -33.138600
O -6.617400 -14.606900 -33.707700
