35
Fragment
H -12.821900 -21.903100 -27.913300
H -12.820000 -22.696500 -30.491000
O -12.365200 -22.906100 -33.265800
C -12.113800 -22.060400 -30.510100
C -11.918900 -21.534000 -28.005200
H -11.881500 -20.652100 -27.579800
C -11.580300 -21.402300 -29.453300
C -11.531600 -22.071300 -32.966100
N -11.411500 -21.612000 -31.635300
H -11.275200 -22.133200 -27.571600
N -10.573500 -20.528800 -29.863900
C -10.570500 -21.422000 -33.791000
C -10.510000 -20.684400 -31.164600
N -10.361400 -21.633600 -35.144900
H -10.192600 -17.641800 -33.095400
H -9.955400 -15.557300 -33.221000
C -9.728000 -20.431000 -33.330300
N -9.679300 -20.002300 -32.025600
H -9.629600 -17.644500 -35.331200
C -9.417000 -20.792900 -35.472100
H -9.334300 -18.474000 -30.744200
C -9.283700 -17.258000 -33.260100
O -9.259500 -15.892800 -32.885000
H -9.056300 -20.724400 -36.348300
N -8.996800 -20.014200 -34.411800
C -8.845700 -17.546800 -34.717300
C -8.811700 -18.978900 -31.417200
H -8.297000 -16.092500 -35.885100
C -8.236400 -18.007500 -32.417200
C -8.091300 -18.867500 -34.537200
H -8.067700 -19.429300 -30.943900
O -7.919000 -16.601700 -35.194700
H -7.684800 -17.334100 -31.923900
H -7.458900 -19.009200 -35.298300
O -7.376700 -18.719000 -33.337500
35
Fragment
O -12.307700 -12.029400 -38.720900
H -12.225500 -12.319600 -36.760100
H -11.999600 -10.644500 -40.134400
O -11.765400 -9.912100 -36.863600
H -11.616700 -12.739700 -41.114400
C -11.593100 -12.177900 -37.521200
C -11.448000 -11.317900 -39.641200
H -11.387400 -9.402900 -36.173300
C -10.872700 -12.289300 -40.641100
C -10.838700 -10.857200 -37.341000
N -10.687600 -13.324600 -37.646600
H -10.628100 -14.034800 -35.710100
O -10.424900 -9.203200 -39.173400
C -10.400700 -10.568400 -38.798300
H -10.350100 -11.784400 -41.314100
C -10.267400 -14.103300 -36.586300
H -10.054800 -10.954900 -36.727100
N -10.005100 -13.312700 -40.032700
C -9.956400 -13.741400 -38.728100
H -9.729000 -8.867700 -38.837400
H -9.491800 -10.952200 -38.963000
N -9.323000 -14.944000 -36.913400
C -9.174400 -13.994800 -40.893700
C -9.113900 -14.732400 -38.267300
N -9.110900 -13.839200 -42.194500
H -8.409200 -15.443600 -44.486800
N -8.272900 -14.922400 -40.423100
C -8.152800 -15.381700 -39.092300
C -8.104100 -14.712700 -42.605000
H -7.802900 -13.962500 -44.478500
C -7.765500 -14.844400 -44.053200
C -7.570600 -15.370800 -41.548200
O -7.319200 -16.216500 -38.792500
H -6.864400 -16.006900 -41.567400
H -6.862500 -15.213500 -44.145000
70
Fragment
H -12.821900 -21.903100 -27.913300
H -12.820000 -22.696500 -30.491000
O -12.365200 -22.906100 -33.265800
C -12.113800 -22.060400 -30.510100
C -11.918900 -21.534000 -28.005200
H -11.881500 -20.652100 -27.579800
C -11.580300 -21.402300 -29.453300
C -11.531600 -22.071300 -32.966100
N -11.411500 -21.612000 -31.635300
H -11.275200 -22.133200 -27.571600
N -10.573500 -20.528800 -29.863900
C -10.570500 -21.422000 -33.791000
C -10.510000 -20.684400 -31.164600
N -10.361400 -21.633600 -35.144900
H -10.192600 -17.641800 -33.095400
H -9.955400 -15.557300 -33.221000
C -9.728000 -20.431000 -33.330300
N -9.679300 -20.002300 -32.025600
H -9.629600 -17.644500 -35.331200
C -9.417000 -20.792900 -35.472100
H -9.334300 -18.474000 -30.744200
C -9.283700 -17.258000 -33.260100
O -9.259500 -15.892800 -32.885000
H -9.056300 -20.724400 -36.348300
N -8.996800 -20.014200 -34.411800
C -8.845700 -17.546800 -34.717300
C -8.811700 -18.978900 -31.417200
H -8.297000 -16.092500 -35.885100
C -8.236400 -18.007500 -32.417200
C -8.091300 -18.867500 -34.537200
H -8.067700 -19.429300 -30.943900
O -7.919000 -16.601700 -35.194700
H -7.684800 -17.334100 -31.923900
H -7.458900 -19.009200 -35.298300
O -7.376700 -18.719000 -33.337500
O -12.307700 -12.029400 -38.720900
H -12.225500 -12.319600 -36.760100
H -11.999600 -10.644500 -40.134400
O -11.765400 -9.912100 -36.863600
H -11.616700 -12.739700 -41.114400
C -11.593100 -12.177900 -37.521200
C -11.448000 -11.317900 -39.641200
H -11.387400 -9.402900 -36.173300
C -10.872700 -12.289300 -40.641100
C -10.838700 -10.857200 -37.341000
N -10.687600 -13.324600 -37.646600
H -10.628100 -14.034800 -35.710100
O -10.424900 -9.203200 -39.173400
C -10.400700 -10.568400 -38.798300
H -10.350100 -11.784400 -41.314100
C -10.267400 -14.103300 -36.586300
H -10.054800 -10.954900 -36.727100
N -10.005100 -13.312700 -40.032700
C -9.956400 -13.741400 -38.728100
H -9.729000 -8.867700 -38.837400
H -9.491800 -10.952200 -38.963000
N -9.323000 -14.944000 -36.913400
C -9.174400 -13.994800 -40.893700
C -9.113900 -14.732400 -38.267300
N -9.110900 -13.839200 -42.194500
H -8.409200 -15.443600 -44.486800
N -8.272900 -14.922400 -40.423100
C -8.152800 -15.381700 -39.092300
C -8.104100 -14.712700 -42.605000
H -7.802900 -13.962500 -44.478500
C -7.765500 -14.844400 -44.053200
C -7.570600 -15.370800 -41.548200
O -7.319200 -16.216500 -38.792500
H -6.864400 -16.006900 -41.567400
H -6.862500 -15.213500 -44.145000
