32
Fragment
H -9.942700 -11.143800 -22.147000
N -9.280700 -11.038000 -21.520200
N -9.095900 -13.291600 -21.184900
H -9.089900 -10.185000 -21.247200
O -8.879100 -15.513300 -20.722700
C -8.753000 -12.035900 -20.825000
C -8.624400 -14.338500 -20.500800
N -7.911600 -11.693600 -19.807700
N -7.755500 -14.029600 -19.440500
C -7.448400 -12.742600 -19.157300
H -7.183300 -15.797400 -18.482400
C -7.127900 -14.869800 -18.517200
H -7.009400 -9.149400 -14.832200
H -6.988500 -11.547200 -14.591900
O -6.974200 -11.018100 -16.525700
N -6.618300 -12.749000 -18.092900
C -6.436800 -14.084300 -17.698200
C -6.381800 -11.077100 -15.201300
C -6.188200 -9.655100 -14.722800
C -6.090100 -11.522400 -17.499800
H -5.997000 -10.851900 -18.208400
H -5.918400 -14.371200 -16.981400
H -5.840800 -8.920700 -13.087800
O -5.824700 -9.713400 -13.345200
H -5.585000 -13.281700 -14.335200
H -5.488400 -9.221200 -15.237100
O -5.254400 -13.253300 -15.101300
C -5.092300 -11.864700 -15.342400
C -4.739900 -11.680800 -16.807600
H -4.391800 -11.491800 -14.767800
H -4.264500 -12.454200 -17.149100
H -4.190800 -10.891700 -16.935400
32
Fragment
H -8.564200 -14.442900 -23.964000
H -8.490500 -16.005500 -23.750300
H -8.363200 -15.043100 -26.131700
C -8.015000 -15.232000 -24.091800
C -7.662600 -15.416000 -25.557000
O -7.500500 -16.804500 -25.798100
H -7.266500 -12.772400 -25.662300
H -7.169900 -16.832900 -26.564200
O -6.930200 -13.264600 -27.554200
H -6.914200 -12.472000 -27.811600
H -6.836600 -17.922400 -23.918000
H -6.757900 -14.403200 -22.691000
C -6.664800 -15.073600 -23.399600
C -6.566800 -13.206400 -26.176600
C -6.373100 -14.628300 -25.698100
C -6.318200 -17.635500 -23.201200
N -6.136600 -16.300200 -22.806500
O -5.780700 -14.569400 -24.373700
H -5.766400 -15.098500 -26.307500
H -5.745500 -12.700700 -26.067200
C -5.627000 -18.421000 -22.382200
H -5.571700 -19.348600 -22.417000
C -5.306600 -16.293800 -21.742100
N -4.999400 -17.580800 -21.458900
N -4.843300 -15.244800 -21.091700
C -4.130500 -17.889800 -20.398600
C -4.001900 -15.587100 -20.074500
O -3.875800 -19.064500 -20.176700
H -3.665000 -13.736200 -19.652200
N -3.659100 -16.842900 -19.714500
N -3.474200 -14.589200 -19.379200
H -2.812300 -14.695100 -18.752400
64
Fragment
H -9.942700 -11.143800 -22.147000
N -9.280700 -11.038000 -21.520200
N -9.095900 -13.291600 -21.184900
H -9.089900 -10.185000 -21.247200
O -8.879100 -15.513300 -20.722700
C -8.753000 -12.035900 -20.825000
C -8.624400 -14.338500 -20.500800
N -7.911600 -11.693600 -19.807700
N -7.755500 -14.029600 -19.440500
C -7.448400 -12.742600 -19.157300
H -7.183300 -15.797400 -18.482400
C -7.127900 -14.869800 -18.517200
H -7.009400 -9.149400 -14.832200
H -6.988500 -11.547200 -14.591900
O -6.974200 -11.018100 -16.525700
N -6.618300 -12.749000 -18.092900
C -6.436800 -14.084300 -17.698200
C -6.381800 -11.077100 -15.201300
C -6.188200 -9.655100 -14.722800
C -6.090100 -11.522400 -17.499800
H -5.997000 -10.851900 -18.208400
H -5.918400 -14.371200 -16.981400
H -5.840800 -8.920700 -13.087800
O -5.824700 -9.713400 -13.345200
H -5.585000 -13.281700 -14.335200
H -5.488400 -9.221200 -15.237100
O -5.254400 -13.253300 -15.101300
C -5.092300 -11.864700 -15.342400
C -4.739900 -11.680800 -16.807600
H -4.391800 -11.491800 -14.767800
H -4.264500 -12.454200 -17.149100
H -4.190800 -10.891700 -16.935400
H -8.564200 -14.442900 -23.964000
H -8.490500 -16.005500 -23.750300
H -8.363200 -15.043100 -26.131700
C -8.015000 -15.232000 -24.091800
C -7.662600 -15.416000 -25.557000
O -7.500500 -16.804500 -25.798100
H -7.266500 -12.772400 -25.662300
H -7.169900 -16.832900 -26.564200
O -6.930200 -13.264600 -27.554200
H -6.914200 -12.472000 -27.811600
H -6.836600 -17.922400 -23.918000
H -6.757900 -14.403200 -22.691000
C -6.664800 -15.073600 -23.399600
C -6.566800 -13.206400 -26.176600
C -6.373100 -14.628300 -25.698100
C -6.318200 -17.635500 -23.201200
N -6.136600 -16.300200 -22.806500
O -5.780700 -14.569400 -24.373700
H -5.766400 -15.098500 -26.307500
H -5.745500 -12.700700 -26.067200
C -5.627000 -18.421000 -22.382200
H -5.571700 -19.348600 -22.417000
C -5.306600 -16.293800 -21.742100
N -4.999400 -17.580800 -21.458900
N -4.843300 -15.244800 -21.091700
C -4.130500 -17.889800 -20.398600
C -4.001900 -15.587100 -20.074500
O -3.875800 -19.064500 -20.176700
H -3.665000 -13.736200 -19.652200
N -3.659100 -16.842900 -19.714500
N -3.474200 -14.589200 -19.379200
H -2.812300 -14.695100 -18.752400
