32
Fragment
H -9.942700 -11.143800 -22.147000
N -9.280700 -11.038000 -21.520200
N -9.095900 -13.291600 -21.184900
H -9.089900 -10.185000 -21.247200
O -8.879100 -15.513300 -20.722700
C -8.753000 -12.035900 -20.825000
C -8.624400 -14.338500 -20.500800
N -7.911600 -11.693600 -19.807700
N -7.755500 -14.029600 -19.440500
C -7.448400 -12.742600 -19.157300
H -7.183300 -15.797400 -18.482400
C -7.127900 -14.869800 -18.517200
H -7.009400 -9.149400 -14.832200
H -6.988500 -11.547200 -14.591900
O -6.974200 -11.018100 -16.525700
N -6.618300 -12.749000 -18.092900
C -6.436800 -14.084300 -17.698200
C -6.381800 -11.077100 -15.201300
C -6.188200 -9.655100 -14.722800
C -6.090100 -11.522400 -17.499800
H -5.997000 -10.851900 -18.208400
H -5.918400 -14.371200 -16.981400
H -5.840800 -8.920700 -13.087800
O -5.824700 -9.713400 -13.345200
H -5.585000 -13.281700 -14.335200
H -5.488400 -9.221200 -15.237100
O -5.254400 -13.253300 -15.101300
C -5.092300 -11.864700 -15.342400
C -4.739900 -11.680800 -16.807600
H -4.391800 -11.491800 -14.767800
H -4.264500 -12.454200 -17.149100
H -4.190800 -10.891700 -16.935400
32
Fragment
H -3.240500 -7.340400 -13.739100
H -3.166800 -8.903000 -13.525400
H -3.039500 -7.940600 -15.906800
C -2.691300 -8.129500 -13.866900
C -2.338900 -8.313500 -15.332200
O -2.176900 -9.702000 -15.573300
H -1.942900 -5.669900 -15.437500
H -1.846200 -9.730400 -16.339300
O -1.606600 -6.162100 -17.329400
H -1.590500 -5.369500 -17.586700
H -1.512900 -10.819900 -13.693100
H -1.434300 -7.300700 -12.466100
C -1.341200 -7.971100 -13.174700
C -1.243100 -6.103900 -15.951800
C -1.049500 -7.525800 -15.473300
C -0.994500 -10.533000 -12.976400
N -0.812900 -9.197700 -12.581700
O -0.457100 -7.466900 -14.148800
H -0.442800 -7.996000 -16.082700
H -0.421800 -5.598200 -15.842400
C -0.303400 -11.318500 -12.157400
H -0.248000 -12.246100 -12.192100
C 0.017100 -9.191300 -11.517300
N 0.324200 -10.478300 -11.234000
N 0.480300 -8.142300 -10.866900
C 1.193100 -10.787300 -10.173700
C 1.321800 -8.484600 -9.849600
O 1.447800 -11.962000 -9.951800
H 1.658600 -6.633700 -9.427300
N 1.664600 -9.740400 -9.489700
N 1.849400 -7.486700 -9.154300
H 2.511400 -7.592600 -8.527500
64
Fragment
H -9.942700 -11.143800 -22.147000
N -9.280700 -11.038000 -21.520200
N -9.095900 -13.291600 -21.184900
H -9.089900 -10.185000 -21.247200
O -8.879100 -15.513300 -20.722700
C -8.753000 -12.035900 -20.825000
C -8.624400 -14.338500 -20.500800
N -7.911600 -11.693600 -19.807700
N -7.755500 -14.029600 -19.440500
C -7.448400 -12.742600 -19.157300
H -7.183300 -15.797400 -18.482400
C -7.127900 -14.869800 -18.517200
H -7.009400 -9.149400 -14.832200
H -6.988500 -11.547200 -14.591900
O -6.974200 -11.018100 -16.525700
N -6.618300 -12.749000 -18.092900
C -6.436800 -14.084300 -17.698200
C -6.381800 -11.077100 -15.201300
C -6.188200 -9.655100 -14.722800
C -6.090100 -11.522400 -17.499800
H -5.997000 -10.851900 -18.208400
H -5.918400 -14.371200 -16.981400
H -5.840800 -8.920700 -13.087800
O -5.824700 -9.713400 -13.345200
H -5.585000 -13.281700 -14.335200
H -5.488400 -9.221200 -15.237100
O -5.254400 -13.253300 -15.101300
C -5.092300 -11.864700 -15.342400
C -4.739900 -11.680800 -16.807600
H -4.391800 -11.491800 -14.767800
H -4.264500 -12.454200 -17.149100
H -4.190800 -10.891700 -16.935400
H -3.240500 -7.340400 -13.739100
H -3.166800 -8.903000 -13.525400
H -3.039500 -7.940600 -15.906800
C -2.691300 -8.129500 -13.866900
C -2.338900 -8.313500 -15.332200
O -2.176900 -9.702000 -15.573300
H -1.942900 -5.669900 -15.437500
H -1.846200 -9.730400 -16.339300
O -1.606600 -6.162100 -17.329400
H -1.590500 -5.369500 -17.586700
H -1.512900 -10.819900 -13.693100
H -1.434300 -7.300700 -12.466100
C -1.341200 -7.971100 -13.174700
C -1.243100 -6.103900 -15.951800
C -1.049500 -7.525800 -15.473300
C -0.994500 -10.533000 -12.976400
N -0.812900 -9.197700 -12.581700
O -0.457100 -7.466900 -14.148800
H -0.442800 -7.996000 -16.082700
H -0.421800 -5.598200 -15.842400
C -0.303400 -11.318500 -12.157400
H -0.248000 -12.246100 -12.192100
C 0.017100 -9.191300 -11.517300
N 0.324200 -10.478300 -11.234000
N 0.480300 -8.142300 -10.866900
C 1.193100 -10.787300 -10.173700
C 1.321800 -8.484600 -9.849600
O 1.447800 -11.962000 -9.951800
H 1.658600 -6.633700 -9.427300
N 1.664600 -9.740400 -9.489700
N 1.849400 -7.486700 -9.154300
H 2.511400 -7.592600 -8.527500
