32
Fragment
H -9.942700 -11.143800 -22.147000
N -9.280700 -11.038000 -21.520200
N -9.095900 -13.291600 -21.184900
H -9.089900 -10.185000 -21.247200
O -8.879100 -15.513300 -20.722700
C -8.753000 -12.035900 -20.825000
C -8.624400 -14.338500 -20.500800
N -7.911600 -11.693600 -19.807700
N -7.755500 -14.029600 -19.440500
C -7.448400 -12.742600 -19.157300
H -7.183300 -15.797400 -18.482400
C -7.127900 -14.869800 -18.517200
H -7.009400 -9.149400 -14.832200
H -6.988500 -11.547200 -14.591900
O -6.974200 -11.018100 -16.525700
N -6.618300 -12.749000 -18.092900
C -6.436800 -14.084300 -17.698200
C -6.381800 -11.077100 -15.201300
C -6.188200 -9.655100 -14.722800
C -6.090100 -11.522400 -17.499800
H -5.997000 -10.851900 -18.208400
H -5.918400 -14.371200 -16.981400
H -5.840800 -8.920700 -13.087800
O -5.824700 -9.713400 -13.345200
H -5.585000 -13.281700 -14.335200
H -5.488400 -9.221200 -15.237100
O -5.254400 -13.253300 -15.101300
C -5.092300 -11.864700 -15.342400
C -4.739900 -11.680800 -16.807600
H -4.391800 -11.491800 -14.767800
H -4.264500 -12.454200 -17.149100
H -4.190800 -10.891700 -16.935400
3
Fragment
H -10.615600 -17.415300 -18.650100
O -10.065100 -17.580800 -18.089800
H -9.363700 -17.514800 -18.476300
35
Fragment
H -9.942700 -11.143800 -22.147000
N -9.280700 -11.038000 -21.520200
N -9.095900 -13.291600 -21.184900
H -9.089900 -10.185000 -21.247200
O -8.879100 -15.513300 -20.722700
C -8.753000 -12.035900 -20.825000
C -8.624400 -14.338500 -20.500800
N -7.911600 -11.693600 -19.807700
N -7.755500 -14.029600 -19.440500
C -7.448400 -12.742600 -19.157300
H -7.183300 -15.797400 -18.482400
C -7.127900 -14.869800 -18.517200
H -7.009400 -9.149400 -14.832200
H -6.988500 -11.547200 -14.591900
O -6.974200 -11.018100 -16.525700
N -6.618300 -12.749000 -18.092900
C -6.436800 -14.084300 -17.698200
C -6.381800 -11.077100 -15.201300
C -6.188200 -9.655100 -14.722800
C -6.090100 -11.522400 -17.499800
H -5.997000 -10.851900 -18.208400
H -5.918400 -14.371200 -16.981400
H -5.840800 -8.920700 -13.087800
O -5.824700 -9.713400 -13.345200
H -5.585000 -13.281700 -14.335200
H -5.488400 -9.221200 -15.237100
O -5.254400 -13.253300 -15.101300
C -5.092300 -11.864700 -15.342400
C -4.739900 -11.680800 -16.807600
H -4.391800 -11.491800 -14.767800
H -4.264500 -12.454200 -17.149100
H -4.190800 -10.891700 -16.935400
H -10.615600 -17.415300 -18.650100
O -10.065100 -17.580800 -18.089800
H -9.363700 -17.514800 -18.476300
