12
Fragment
H -19.280200 -8.325900 -26.987300
O -18.471100 -8.719100 -27.285500
O -18.101800 -6.670100 -28.118300
C -17.749800 -7.820800 -27.926400
C -16.439200 -8.367700 -28.366800
H -16.312800 -9.330200 -28.342200
H -15.595800 -6.609700 -28.826200
C -15.469400 -7.572200 -28.801600
C -14.158800 -8.119100 -29.242000
O -13.806800 -9.269800 -29.050100
O -13.437500 -7.220800 -29.882900
H -12.628400 -7.614000 -30.181100
12
Fragment
H -19.280200 -3.012600 -26.987300
O -18.471100 -3.405800 -27.285500
O -18.101800 -1.356800 -28.118300
C -17.749800 -2.507500 -27.926400
C -16.439200 -3.054400 -28.366800
H -16.312800 -4.016900 -28.342200
H -15.595800 -1.296400 -28.826200
C -15.469400 -2.258900 -28.801600
C -14.158800 -2.805800 -29.242000
O -13.806800 -3.956500 -29.050100
O -13.437500 -1.907500 -29.882900
H -12.628400 -2.300700 -30.181100
24
Fragment
H -19.280200 -8.325900 -26.987300
O -18.471100 -8.719100 -27.285500
O -18.101800 -6.670100 -28.118300
C -17.749800 -7.820800 -27.926400
C -16.439200 -8.367700 -28.366800
H -16.312800 -9.330200 -28.342200
H -15.595800 -6.609700 -28.826200
C -15.469400 -7.572200 -28.801600
C -14.158800 -8.119100 -29.242000
O -13.806800 -9.269800 -29.050100
O -13.437500 -7.220800 -29.882900
H -12.628400 -7.614000 -30.181100
H -19.280200 -3.012600 -26.987300
O -18.471100 -3.405800 -27.285500
O -18.101800 -1.356800 -28.118300
C -17.749800 -2.507500 -27.926400
C -16.439200 -3.054400 -28.366800
H -16.312800 -4.016900 -28.342200
H -15.595800 -1.296400 -28.826200
C -15.469400 -2.258900 -28.801600
C -14.158800 -2.805800 -29.242000
O -13.806800 -3.956500 -29.050100
O -13.437500 -1.907500 -29.882900
H -12.628400 -2.300700 -30.181100
