12
Fragment
H -19.280200 -8.325900 -26.987300
O -18.471100 -8.719100 -27.285500
O -18.101800 -6.670100 -28.118300
C -17.749800 -7.820800 -27.926400
C -16.439200 -8.367700 -28.366800
H -16.312800 -9.330200 -28.342200
H -15.595800 -6.609700 -28.826200
C -15.469400 -7.572200 -28.801600
C -14.158800 -8.119100 -29.242000
O -13.806800 -9.269800 -29.050100
O -13.437500 -7.220800 -29.882900
H -12.628400 -7.614000 -30.181100
18
Fragment
H -12.077400 -10.068700 -29.893400
N -11.296100 -10.185600 -30.333200
O -11.182400 -7.978100 -30.776400
H -10.940500 -10.982600 -30.388800
C -10.650800 -9.111100 -30.790000
H -9.318600 -7.518300 -32.405000
C -9.277100 -9.264700 -31.324100
H -8.778900 -11.057000 -30.398300
C -8.761600 -8.258000 -32.141400
C -8.452600 -10.341000 -30.974200
C -7.444800 -8.299700 -32.574900
C -7.133000 -10.377000 -31.394200
H -7.093800 -7.544900 -33.148100
C -6.602500 -9.345400 -32.174600
H -6.575400 -11.104800 -31.133900
N -5.260900 -9.386700 -32.563500
H -4.953600 -8.570400 -32.803200
H -4.751800 -9.792400 -31.961000
30
Fragment
H -19.280200 -8.325900 -26.987300
O -18.471100 -8.719100 -27.285500
O -18.101800 -6.670100 -28.118300
C -17.749800 -7.820800 -27.926400
C -16.439200 -8.367700 -28.366800
H -16.312800 -9.330200 -28.342200
H -15.595800 -6.609700 -28.826200
C -15.469400 -7.572200 -28.801600
C -14.158800 -8.119100 -29.242000
O -13.806800 -9.269800 -29.050100
O -13.437500 -7.220800 -29.882900
H -12.628400 -7.614000 -30.181100
H -12.077400 -10.068700 -29.893400
N -11.296100 -10.185600 -30.333200
O -11.182400 -7.978100 -30.776400
H -10.940500 -10.982600 -30.388800
C -10.650800 -9.111100 -30.790000
H -9.318600 -7.518300 -32.405000
C -9.277100 -9.264700 -31.324100
H -8.778900 -11.057000 -30.398300
C -8.761600 -8.258000 -32.141400
C -8.452600 -10.341000 -30.974200
C -7.444800 -8.299700 -32.574900
C -7.133000 -10.377000 -31.394200
H -7.093800 -7.544900 -33.148100
C -6.602500 -9.345400 -32.174600
H -6.575400 -11.104800 -31.133900
N -5.260900 -9.386700 -32.563500
H -4.953600 -8.570400 -32.803200
H -4.751800 -9.792400 -31.961000
