14
Fragment
H -30.317700 -8.173800 -31.973700
O -29.696600 -8.462900 -31.379300
C -28.669300 -7.637800 -31.356900
O -28.634800 -6.599200 -31.983900
H -27.872500 -8.096700 -29.568500
C -27.565200 -8.127500 -30.461000
H -27.397500 -9.079200 -30.677500
H -26.463000 -6.352800 -30.368200
C -26.295300 -7.304500 -30.584700
H -25.987900 -7.335300 -31.477200
O -25.225700 -8.832800 -29.061800
C -25.191200 -7.794200 -29.688800
O -24.163900 -6.969100 -29.666400
H -23.542800 -7.258200 -29.072000
18
Fragment
H -23.480600 -4.377500 -28.121700
N -22.665000 -4.518000 -27.737500
H -22.400700 -5.313800 -27.529600
O -22.227200 -2.331300 -28.060100
C -21.879500 -3.447000 -27.616100
H -20.960700 -5.288000 -25.800000
C -20.561400 -3.597200 -26.952100
C -20.283800 -4.626000 -26.041900
H -19.721900 -1.975300 -27.853100
C -19.561200 -2.667700 -27.236800
C -19.051700 -4.683600 -25.410700
H -18.890100 -5.396100 -24.758100
C -18.321700 -2.738200 -26.632600
C -18.058600 -3.744300 -25.693100
H -17.593200 -2.073000 -26.845900
H -16.838500 -4.274700 -24.284000
N -16.809500 -3.833800 -25.069800
H -16.328100 -3.019500 -25.069400
32
Fragment
H -30.317700 -8.173800 -31.973700
O -29.696600 -8.462900 -31.379300
C -28.669300 -7.637800 -31.356900
O -28.634800 -6.599200 -31.983900
H -27.872500 -8.096700 -29.568500
C -27.565200 -8.127500 -30.461000
H -27.397500 -9.079200 -30.677500
H -26.463000 -6.352800 -30.368200
C -26.295300 -7.304500 -30.584700
H -25.987900 -7.335300 -31.477200
O -25.225700 -8.832800 -29.061800
C -25.191200 -7.794200 -29.688800
O -24.163900 -6.969100 -29.666400
H -23.542800 -7.258200 -29.072000
H -23.480600 -4.377500 -28.121700
N -22.665000 -4.518000 -27.737500
H -22.400700 -5.313800 -27.529600
O -22.227200 -2.331300 -28.060100
C -21.879500 -3.447000 -27.616100
H -20.960700 -5.288000 -25.800000
C -20.561400 -3.597200 -26.952100
C -20.283800 -4.626000 -26.041900
H -19.721900 -1.975300 -27.853100
C -19.561200 -2.667700 -27.236800
C -19.051700 -4.683600 -25.410700
H -18.890100 -5.396100 -24.758100
C -18.321700 -2.738200 -26.632600
C -18.058600 -3.744300 -25.693100
H -17.593200 -2.073000 -26.845900
H -16.838500 -4.274700 -24.284000
N -16.809500 -3.833800 -25.069800
H -16.328100 -3.019500 -25.069400
