14
Fragment
H -30.317700 -8.173800 -31.973700
O -29.696600 -8.462900 -31.379300
C -28.669300 -7.637800 -31.356900
O -28.634800 -6.599200 -31.983900
H -27.872500 -8.096700 -29.568500
C -27.565200 -8.127500 -30.461000
H -27.397500 -9.079200 -30.677500
H -26.463000 -6.352800 -30.368200
C -26.295300 -7.304500 -30.584700
H -25.987900 -7.335300 -31.477200
O -25.225700 -8.832800 -29.061800
C -25.191200 -7.794200 -29.688800
O -24.163900 -6.969100 -29.666400
H -23.542800 -7.258200 -29.072000
18
Fragment
H -22.091000 -6.126500 -30.573700
H -21.783000 -7.309600 -31.485300
N -21.521300 -6.458800 -31.185400
H -20.359500 -4.660500 -29.668200
C -20.181400 -6.379600 -30.810000
C -19.746000 -5.335400 -29.986700
H -19.512700 -8.065800 -31.855700
C -19.242300 -7.309100 -31.271100
C -18.422400 -5.244300 -29.602500
H -18.069300 -4.526700 -28.988600
C -17.915900 -7.230900 -30.868400
C -17.491700 -6.199000 -30.020900
H -17.301300 -7.880600 -31.226900
C -16.090400 -6.048800 -29.572600
O -15.689900 -4.932600 -29.171500
H -15.563000 -7.957800 -29.814700
N -15.285600 -7.108500 -29.577500
H -14.468200 -7.011300 -29.338600
32
Fragment
H -30.317700 -8.173800 -31.973700
O -29.696600 -8.462900 -31.379300
C -28.669300 -7.637800 -31.356900
O -28.634800 -6.599200 -31.983900
H -27.872500 -8.096700 -29.568500
C -27.565200 -8.127500 -30.461000
H -27.397500 -9.079200 -30.677500
H -26.463000 -6.352800 -30.368200
C -26.295300 -7.304500 -30.584700
H -25.987900 -7.335300 -31.477200
O -25.225700 -8.832800 -29.061800
C -25.191200 -7.794200 -29.688800
O -24.163900 -6.969100 -29.666400
H -23.542800 -7.258200 -29.072000
H -22.091000 -6.126500 -30.573700
H -21.783000 -7.309600 -31.485300
N -21.521300 -6.458800 -31.185400
H -20.359500 -4.660500 -29.668200
C -20.181400 -6.379600 -30.810000
C -19.746000 -5.335400 -29.986700
H -19.512700 -8.065800 -31.855700
C -19.242300 -7.309100 -31.271100
C -18.422400 -5.244300 -29.602500
H -18.069300 -4.526700 -28.988600
C -17.915900 -7.230900 -30.868400
C -17.491700 -6.199000 -30.020900
H -17.301300 -7.880600 -31.226900
C -16.090400 -6.048800 -29.572600
O -15.689900 -4.932600 -29.171500
H -15.563000 -7.957800 -29.814700
N -15.285600 -7.108500 -29.577500
H -14.468200 -7.011300 -29.338600
