14
Fragment
H -30.317700 -8.173800 -31.973700
O -29.696600 -8.462900 -31.379300
C -28.669300 -7.637800 -31.356900
O -28.634800 -6.599200 -31.983900
H -27.872500 -8.096700 -29.568500
C -27.565200 -8.127500 -30.461000
H -27.397500 -9.079200 -30.677500
H -26.463000 -6.352800 -30.368200
C -26.295300 -7.304500 -30.584700
H -25.987900 -7.335300 -31.477200
O -25.225700 -8.832800 -29.061800
C -25.191200 -7.794200 -29.688800
O -24.163900 -6.969100 -29.666400
H -23.542800 -7.258200 -29.072000
18
Fragment
H -37.532400 -7.268500 -35.976300
N -37.050900 -6.454200 -35.975900
H -37.021900 -6.013300 -36.761700
H -36.267200 -8.215000 -34.199800
C -35.801900 -6.543700 -35.352600
C -35.538700 -7.549800 -34.413100
H -34.970400 -4.891900 -36.287600
C -34.808800 -5.604400 -35.635000
C -34.299200 -7.620300 -33.808900
H -34.138600 -8.312700 -33.192600
C -33.576700 -5.662000 -35.003800
C -33.299000 -6.690800 -34.093600
H -32.899800 -5.000000 -35.245800
C -31.981000 -6.841000 -33.429700
O -31.633300 -7.956700 -32.985600
H -31.459700 -4.974200 -33.516100
N -31.195500 -5.770000 -33.308200
H -30.379800 -5.910500 -32.924000
32
Fragment
H -30.317700 -8.173800 -31.973700
O -29.696600 -8.462900 -31.379300
C -28.669300 -7.637800 -31.356900
O -28.634800 -6.599200 -31.983900
H -27.872500 -8.096700 -29.568500
C -27.565200 -8.127500 -30.461000
H -27.397500 -9.079200 -30.677500
H -26.463000 -6.352800 -30.368200
C -26.295300 -7.304500 -30.584700
H -25.987900 -7.335300 -31.477200
O -25.225700 -8.832800 -29.061800
C -25.191200 -7.794200 -29.688800
O -24.163900 -6.969100 -29.666400
H -23.542800 -7.258200 -29.072000
H -37.532400 -7.268500 -35.976300
N -37.050900 -6.454200 -35.975900
H -37.021900 -6.013300 -36.761700
H -36.267200 -8.215000 -34.199800
C -35.801900 -6.543700 -35.352600
C -35.538700 -7.549800 -34.413100
H -34.970400 -4.891900 -36.287600
C -34.808800 -5.604400 -35.635000
C -34.299200 -7.620300 -33.808900
H -34.138600 -8.312700 -33.192600
C -33.576700 -5.662000 -35.003800
C -33.299000 -6.690800 -34.093600
H -32.899800 -5.000000 -35.245800
C -31.981000 -6.841000 -33.429700
O -31.633300 -7.956700 -32.985600
H -31.459700 -4.974200 -33.516100
N -31.195500 -5.770000 -33.308200
H -30.379800 -5.910500 -32.924000
