12
Fragment
H -19.280200 -8.325900 -26.987300
O -18.471100 -8.719100 -27.285500
O -18.101800 -6.670100 -28.118300
C -17.749800 -7.820800 -27.926400
C -16.439200 -8.367700 -28.366800
H -16.312800 -9.330200 -28.342200
H -15.595800 -6.609700 -28.826200
C -15.469400 -7.572200 -28.801600
C -14.158800 -8.119100 -29.242000
O -13.806800 -9.269800 -29.050100
O -13.437500 -7.220800 -29.882900
H -12.628400 -7.614000 -30.181100
18
Fragment
H -27.156800 -11.460800 -25.207500
H -26.955000 -12.682800 -24.365200
N -26.647600 -11.866500 -24.604900
H -25.333200 -10.148400 -26.034500
C -25.306100 -11.907800 -24.993800
H -24.814800 -13.708300 -24.020300
C -24.775600 -10.876200 -25.774200
C -24.463800 -12.953500 -24.593500
C -23.456000 -10.912200 -26.194200
C -23.146900 -12.995200 -25.027000
H -23.129700 -10.196200 -26.770100
C -22.631400 -11.988500 -25.844300
H -22.590000 -13.734900 -24.763400
C -21.257800 -12.142100 -26.378500
H -20.968100 -10.270600 -26.779600
O -20.726200 -13.275100 -26.392000
N -20.612500 -11.067600 -26.835200
H -19.831200 -11.184500 -27.275000
30
Fragment
H -19.280200 -8.325900 -26.987300
O -18.471100 -8.719100 -27.285500
O -18.101800 -6.670100 -28.118300
C -17.749800 -7.820800 -27.926400
C -16.439200 -8.367700 -28.366800
H -16.312800 -9.330200 -28.342200
H -15.595800 -6.609700 -28.826200
C -15.469400 -7.572200 -28.801600
C -14.158800 -8.119100 -29.242000
O -13.806800 -9.269800 -29.050100
O -13.437500 -7.220800 -29.882900
H -12.628400 -7.614000 -30.181100
H -27.156800 -11.460800 -25.207500
H -26.955000 -12.682800 -24.365200
N -26.647600 -11.866500 -24.604900
H -25.333200 -10.148400 -26.034500
C -25.306100 -11.907800 -24.993800
H -24.814800 -13.708300 -24.020300
C -24.775600 -10.876200 -25.774200
C -24.463800 -12.953500 -24.593500
C -23.456000 -10.912200 -26.194200
C -23.146900 -12.995200 -25.027000
H -23.129700 -10.196200 -26.770100
C -22.631400 -11.988500 -25.844300
H -22.590000 -13.734900 -24.763400
C -21.257800 -12.142100 -26.378500
H -20.968100 -10.270600 -26.779600
O -20.726200 -13.275100 -26.392000
N -20.612500 -11.067600 -26.835200
H -19.831200 -11.184500 -27.275000
