30
Fragment
H -8.036900 -27.306700 -19.755300
H -7.779500 -25.934800 -20.468600
C -7.433800 -26.563500 -19.830400
H -7.429000 -18.801400 -13.922100
O -7.300000 -25.921700 -18.547800
H -6.892700 -21.419900 -12.550500
N -6.865400 -19.210000 -14.427500
N -6.704300 -24.637600 -15.932700
N -6.636000 -18.872900 -15.712100
H -6.574900 -26.876800 -20.123300
C -6.446000 -24.904800 -18.453100
H -6.335800 -20.056900 -12.012300
H -6.214100 -23.749500 -14.231000
C -6.211600 -24.356300 -17.184100
C -6.178900 -20.781800 -12.621600
C -6.118300 -20.254800 -14.018500
C -6.076300 -23.789000 -15.149800
N -5.824900 -24.393600 -19.518100
C -5.710300 -19.744900 -16.123000
C -5.364000 -20.643900 -15.104900
H -5.346400 -21.208000 -12.403800
H -5.342400 -19.753300 -16.976600
C -5.285200 -23.313600 -17.135300
N -5.198400 -22.966500 -15.809700
C -4.965600 -23.363900 -19.315000
N -4.639700 -22.770800 -18.180800
H -4.549900 -23.029600 -20.077100
C -4.467300 -21.828700 -15.230800
H -4.127100 -22.072600 -14.355400
H -3.711600 -21.605800 -15.796300
30
Fragment
H -12.465400 -27.306700 -19.755300
H -12.208000 -25.934800 -20.468600
C -11.862300 -26.563500 -19.830400
H -11.857500 -18.801400 -13.922100
O -11.728500 -25.921700 -18.547800
H -11.321200 -21.419900 -12.550500
N -11.293900 -19.210000 -14.427500
N -11.132800 -24.637600 -15.932700
N -11.064500 -18.872900 -15.712100
H -11.003400 -26.876800 -20.123300
C -10.874500 -24.904800 -18.453100
H -10.764300 -20.056900 -12.012300
H -10.642600 -23.749500 -14.231000
C -10.640100 -24.356300 -17.184100
C -10.607400 -20.781800 -12.621600
C -10.546800 -20.254800 -14.018500
C -10.504800 -23.789000 -15.149800
N -10.253400 -24.393600 -19.518100
C -10.138800 -19.744900 -16.123000
C -9.792500 -20.643900 -15.104900
H -9.774900 -21.208000 -12.403800
H -9.770900 -19.753300 -16.976600
C -9.713700 -23.313600 -17.135300
N -9.626900 -22.966500 -15.809700
C -9.394100 -23.363900 -19.315000
N -9.068200 -22.770800 -18.180800
H -8.978400 -23.029600 -20.077100
C -8.895800 -21.828700 -15.230800
H -8.555600 -22.072600 -14.355400
H -8.140100 -21.605800 -15.796300
60
Fragment
H -8.036900 -27.306700 -19.755300
H -7.779500 -25.934800 -20.468600
C -7.433800 -26.563500 -19.830400
H -7.429000 -18.801400 -13.922100
O -7.300000 -25.921700 -18.547800
H -6.892700 -21.419900 -12.550500
N -6.865400 -19.210000 -14.427500
N -6.704300 -24.637600 -15.932700
N -6.636000 -18.872900 -15.712100
H -6.574900 -26.876800 -20.123300
C -6.446000 -24.904800 -18.453100
H -6.335800 -20.056900 -12.012300
H -6.214100 -23.749500 -14.231000
C -6.211600 -24.356300 -17.184100
C -6.178900 -20.781800 -12.621600
C -6.118300 -20.254800 -14.018500
C -6.076300 -23.789000 -15.149800
N -5.824900 -24.393600 -19.518100
C -5.710300 -19.744900 -16.123000
C -5.364000 -20.643900 -15.104900
H -5.346400 -21.208000 -12.403800
H -5.342400 -19.753300 -16.976600
C -5.285200 -23.313600 -17.135300
N -5.198400 -22.966500 -15.809700
C -4.965600 -23.363900 -19.315000
N -4.639700 -22.770800 -18.180800
H -4.549900 -23.029600 -20.077100
C -4.467300 -21.828700 -15.230800
H -4.127100 -22.072600 -14.355400
H -3.711600 -21.605800 -15.796300
H -12.465400 -27.306700 -19.755300
H -12.208000 -25.934800 -20.468600
C -11.862300 -26.563500 -19.830400
H -11.857500 -18.801400 -13.922100
O -11.728500 -25.921700 -18.547800
H -11.321200 -21.419900 -12.550500
N -11.293900 -19.210000 -14.427500
N -11.132800 -24.637600 -15.932700
N -11.064500 -18.872900 -15.712100
H -11.003400 -26.876800 -20.123300
C -10.874500 -24.904800 -18.453100
H -10.764300 -20.056900 -12.012300
H -10.642600 -23.749500 -14.231000
C -10.640100 -24.356300 -17.184100
C -10.607400 -20.781800 -12.621600
C -10.546800 -20.254800 -14.018500
C -10.504800 -23.789000 -15.149800
N -10.253400 -24.393600 -19.518100
C -10.138800 -19.744900 -16.123000
C -9.792500 -20.643900 -15.104900
H -9.774900 -21.208000 -12.403800
H -9.770900 -19.753300 -16.976600
C -9.713700 -23.313600 -17.135300
N -9.626900 -22.966500 -15.809700
C -9.394100 -23.363900 -19.315000
N -9.068200 -22.770800 -18.180800
H -8.978400 -23.029600 -20.077100
C -8.895800 -21.828700 -15.230800
H -8.555600 -22.072600 -14.355400
H -8.140100 -21.605800 -15.796300
