30
Fragment
H -8.036900 -27.306700 -19.755300
H -7.779500 -25.934800 -20.468600
C -7.433800 -26.563500 -19.830400
H -7.429000 -18.801400 -13.922100
O -7.300000 -25.921700 -18.547800
H -6.892700 -21.419900 -12.550500
N -6.865400 -19.210000 -14.427500
N -6.704300 -24.637600 -15.932700
N -6.636000 -18.872900 -15.712100
H -6.574900 -26.876800 -20.123300
C -6.446000 -24.904800 -18.453100
H -6.335800 -20.056900 -12.012300
H -6.214100 -23.749500 -14.231000
C -6.211600 -24.356300 -17.184100
C -6.178900 -20.781800 -12.621600
C -6.118300 -20.254800 -14.018500
C -6.076300 -23.789000 -15.149800
N -5.824900 -24.393600 -19.518100
C -5.710300 -19.744900 -16.123000
C -5.364000 -20.643900 -15.104900
H -5.346400 -21.208000 -12.403800
H -5.342400 -19.753300 -16.976600
C -5.285200 -23.313600 -17.135300
N -5.198400 -22.966500 -15.809700
C -4.965600 -23.363900 -19.315000
N -4.639700 -22.770800 -18.180800
H -4.549900 -23.029600 -20.077100
C -4.467300 -21.828700 -15.230800
H -4.127100 -22.072600 -14.355400
H -3.711600 -21.605800 -15.796300
30
Fragment
H -11.133000 -28.786300 -23.249600
H -10.717500 -29.253100 -24.690500
C -10.377300 -29.009200 -23.815100
H -10.294600 -30.210100 -18.968800
N -10.204800 -29.951300 -20.865200
C -9.879000 -30.544400 -19.730900
N -9.646200 -30.147000 -23.236200
C -9.559400 -30.494100 -21.910600
H -9.502200 -26.933800 -22.069300
H -9.498200 -28.388500 -26.642100
C -9.480600 -27.824400 -23.941000
C -9.134300 -26.925400 -22.922900
N -9.019700 -31.574100 -19.527800
C -8.768300 -30.969500 -23.896100
C -8.726300 -27.435300 -25.027500
C -8.665700 -27.962300 -26.424300
C -8.633000 -31.536800 -21.861800
H -8.630400 -30.930000 -24.814900
H -8.508800 -27.237400 -27.033600
C -8.398500 -32.085300 -20.592800
H -8.269700 -34.057300 -18.922600
N -8.208600 -26.053400 -23.333800
N -8.140300 -31.818100 -23.113200
N -7.979200 -26.390500 -24.618400
H -7.951800 -28.600400 -26.495400
O -7.544600 -33.102200 -20.498100
H -7.415600 -25.981900 -25.123800
C -7.410800 -33.744000 -19.215500
H -7.065100 -33.115300 -18.577300
H -6.807700 -34.487200 -19.290600
60
Fragment
H -8.036900 -27.306700 -19.755300
H -7.779500 -25.934800 -20.468600
C -7.433800 -26.563500 -19.830400
H -7.429000 -18.801400 -13.922100
O -7.300000 -25.921700 -18.547800
H -6.892700 -21.419900 -12.550500
N -6.865400 -19.210000 -14.427500
N -6.704300 -24.637600 -15.932700
N -6.636000 -18.872900 -15.712100
H -6.574900 -26.876800 -20.123300
C -6.446000 -24.904800 -18.453100
H -6.335800 -20.056900 -12.012300
H -6.214100 -23.749500 -14.231000
C -6.211600 -24.356300 -17.184100
C -6.178900 -20.781800 -12.621600
C -6.118300 -20.254800 -14.018500
C -6.076300 -23.789000 -15.149800
N -5.824900 -24.393600 -19.518100
C -5.710300 -19.744900 -16.123000
C -5.364000 -20.643900 -15.104900
H -5.346400 -21.208000 -12.403800
H -5.342400 -19.753300 -16.976600
C -5.285200 -23.313600 -17.135300
N -5.198400 -22.966500 -15.809700
C -4.965600 -23.363900 -19.315000
N -4.639700 -22.770800 -18.180800
H -4.549900 -23.029600 -20.077100
C -4.467300 -21.828700 -15.230800
H -4.127100 -22.072600 -14.355400
H -3.711600 -21.605800 -15.796300
H -11.133000 -28.786300 -23.249600
H -10.717500 -29.253100 -24.690500
C -10.377300 -29.009200 -23.815100
H -10.294600 -30.210100 -18.968800
N -10.204800 -29.951300 -20.865200
C -9.879000 -30.544400 -19.730900
N -9.646200 -30.147000 -23.236200
C -9.559400 -30.494100 -21.910600
H -9.502200 -26.933800 -22.069300
H -9.498200 -28.388500 -26.642100
C -9.480600 -27.824400 -23.941000
C -9.134300 -26.925400 -22.922900
N -9.019700 -31.574100 -19.527800
C -8.768300 -30.969500 -23.896100
C -8.726300 -27.435300 -25.027500
C -8.665700 -27.962300 -26.424300
C -8.633000 -31.536800 -21.861800
H -8.630400 -30.930000 -24.814900
H -8.508800 -27.237400 -27.033600
C -8.398500 -32.085300 -20.592800
H -8.269700 -34.057300 -18.922600
N -8.208600 -26.053400 -23.333800
N -8.140300 -31.818100 -23.113200
N -7.979200 -26.390500 -24.618400
H -7.951800 -28.600400 -26.495400
O -7.544600 -33.102200 -20.498100
H -7.415600 -25.981900 -25.123800
C -7.410800 -33.744000 -19.215500
H -7.065100 -33.115300 -18.577300
H -6.807700 -34.487200 -19.290600
