30
Fragment
H -8.036900 -27.306700 -19.755300
H -7.779500 -25.934800 -20.468600
C -7.433800 -26.563500 -19.830400
H -7.429000 -18.801400 -13.922100
O -7.300000 -25.921700 -18.547800
H -6.892700 -21.419900 -12.550500
N -6.865400 -19.210000 -14.427500
N -6.704300 -24.637600 -15.932700
N -6.636000 -18.872900 -15.712100
H -6.574900 -26.876800 -20.123300
C -6.446000 -24.904800 -18.453100
H -6.335800 -20.056900 -12.012300
H -6.214100 -23.749500 -14.231000
C -6.211600 -24.356300 -17.184100
C -6.178900 -20.781800 -12.621600
C -6.118300 -20.254800 -14.018500
C -6.076300 -23.789000 -15.149800
N -5.824900 -24.393600 -19.518100
C -5.710300 -19.744900 -16.123000
C -5.364000 -20.643900 -15.104900
H -5.346400 -21.208000 -12.403800
H -5.342400 -19.753300 -16.976600
C -5.285200 -23.313600 -17.135300
N -5.198400 -22.966500 -15.809700
C -4.965600 -23.363900 -19.315000
N -4.639700 -22.770800 -18.180800
H -4.549900 -23.029600 -20.077100
C -4.467300 -21.828700 -15.230800
H -4.127100 -22.072600 -14.355400
H -3.711600 -21.605800 -15.796300
30
Fragment
H -7.421900 -14.425300 -13.488100
H -7.006300 -14.892100 -14.929000
C -6.666200 -14.648200 -14.053600
H -6.583500 -15.849100 -9.207300
N -6.493700 -15.590300 -11.103700
C -6.167900 -16.183400 -9.969400
N -5.935100 -15.786000 -13.474700
C -5.848200 -16.133100 -12.149100
H -5.791100 -12.572800 -12.307900
H -5.787100 -14.027500 -16.880600
C -5.769500 -13.463400 -14.179500
C -5.423100 -12.564400 -13.161400
N -5.308600 -17.213100 -9.766400
C -5.057100 -16.608500 -14.134600
C -5.015100 -13.074300 -15.266000
C -4.954600 -13.601300 -16.662800
C -4.921800 -17.175800 -12.100300
H -4.919300 -16.569000 -15.053500
H -4.797600 -12.876400 -17.272200
C -4.687400 -17.724300 -10.831300
H -4.558500 -19.696300 -9.161100
N -4.497500 -11.692400 -13.572400
N -4.429100 -17.457100 -13.351700
N -4.268000 -12.029500 -14.857000
H -4.240700 -14.239400 -16.733900
O -3.833500 -18.741200 -10.736600
H -3.704500 -11.620900 -15.362300
C -3.699600 -19.383000 -9.454000
H -3.354000 -18.754300 -8.815800
H -3.096600 -20.126200 -9.529200
60
Fragment
H -8.036900 -27.306700 -19.755300
H -7.779500 -25.934800 -20.468600
C -7.433800 -26.563500 -19.830400
H -7.429000 -18.801400 -13.922100
O -7.300000 -25.921700 -18.547800
H -6.892700 -21.419900 -12.550500
N -6.865400 -19.210000 -14.427500
N -6.704300 -24.637600 -15.932700
N -6.636000 -18.872900 -15.712100
H -6.574900 -26.876800 -20.123300
C -6.446000 -24.904800 -18.453100
H -6.335800 -20.056900 -12.012300
H -6.214100 -23.749500 -14.231000
C -6.211600 -24.356300 -17.184100
C -6.178900 -20.781800 -12.621600
C -6.118300 -20.254800 -14.018500
C -6.076300 -23.789000 -15.149800
N -5.824900 -24.393600 -19.518100
C -5.710300 -19.744900 -16.123000
C -5.364000 -20.643900 -15.104900
H -5.346400 -21.208000 -12.403800
H -5.342400 -19.753300 -16.976600
C -5.285200 -23.313600 -17.135300
N -5.198400 -22.966500 -15.809700
C -4.965600 -23.363900 -19.315000
N -4.639700 -22.770800 -18.180800
H -4.549900 -23.029600 -20.077100
C -4.467300 -21.828700 -15.230800
H -4.127100 -22.072600 -14.355400
H -3.711600 -21.605800 -15.796300
H -7.421900 -14.425300 -13.488100
H -7.006300 -14.892100 -14.929000
C -6.666200 -14.648200 -14.053600
H -6.583500 -15.849100 -9.207300
N -6.493700 -15.590300 -11.103700
C -6.167900 -16.183400 -9.969400
N -5.935100 -15.786000 -13.474700
C -5.848200 -16.133100 -12.149100
H -5.791100 -12.572800 -12.307900
H -5.787100 -14.027500 -16.880600
C -5.769500 -13.463400 -14.179500
C -5.423100 -12.564400 -13.161400
N -5.308600 -17.213100 -9.766400
C -5.057100 -16.608500 -14.134600
C -5.015100 -13.074300 -15.266000
C -4.954600 -13.601300 -16.662800
C -4.921800 -17.175800 -12.100300
H -4.919300 -16.569000 -15.053500
H -4.797600 -12.876400 -17.272200
C -4.687400 -17.724300 -10.831300
H -4.558500 -19.696300 -9.161100
N -4.497500 -11.692400 -13.572400
N -4.429100 -17.457100 -13.351700
N -4.268000 -12.029500 -14.857000
H -4.240700 -14.239400 -16.733900
O -3.833500 -18.741200 -10.736600
H -3.704500 -11.620900 -15.362300
C -3.699600 -19.383000 -9.454000
H -3.354000 -18.754300 -8.815800
H -3.096600 -20.126200 -9.529200
