31
Fragment
H -21.645400 -8.127800 -30.349000
C -20.707100 -8.127800 -30.408100
H -20.582900 -8.127800 -32.440100
H -20.333400 -8.127800 -28.406800
C -20.085100 -8.127800 -31.642400
C -19.934200 -8.127800 -29.257500
C -18.731800 -8.127800 -31.662800
N -18.636800 -8.127800 -34.086500
C -18.588200 -8.127800 -29.394200
N -18.220600 -8.127800 -27.023600
N -17.994200 -8.127800 -32.872600
N -17.949200 -8.127800 -30.575400
H -17.806800 -8.127800 -35.920600
N -17.716700 -8.127800 -28.286400
C -17.669300 -8.127800 -34.990300
H -17.232400 -8.127800 -25.273100
C -17.180000 -8.127800 -26.211600
C -16.645700 -8.127800 -33.037900
C -16.390100 -8.127800 -34.361900
C -16.350000 -8.127800 -28.264000
H -16.004300 -8.127800 -32.352400
C -15.973900 -8.127800 -26.952200
H -15.778000 -8.127800 -29.010600
O -15.142700 -8.127800 -36.326600
C -15.078200 -8.127800 -34.998400
O -14.633900 -8.127800 -25.099700
C -14.604700 -8.127800 -26.425800
H -14.374700 -8.127800 -36.640700
O -14.040000 -8.127800 -34.398600
H -13.857400 -8.127800 -24.805900
O -13.609200 -8.127800 -27.066400
31
Fragment
H -15.560100 -8.127800 -41.055600
C -14.621800 -8.127800 -40.996400
H -14.497600 -8.127800 -38.964400
H -14.248100 -8.127800 -42.997800
C -13.999800 -8.127800 -39.762100
C -13.848900 -8.127800 -42.147000
C -12.646500 -8.127800 -39.741700
N -12.551500 -8.127800 -37.318100
C -12.502900 -8.127800 -42.010400
N -12.135300 -8.127800 -44.381000
N -11.908900 -8.127800 -38.531900
N -11.863900 -8.127800 -40.829100
H -11.721500 -8.127800 -35.484000
N -11.631400 -8.127800 -43.118100
C -11.584000 -8.127800 -36.414300
H -11.147100 -8.127800 -46.131400
C -11.094700 -8.127800 -45.193000
C -10.560400 -8.127800 -38.366700
C -10.304800 -8.127800 -37.042600
C -10.264700 -8.127800 -43.140600
H -9.919000 -8.127800 -39.052200
C -9.888600 -8.127800 -44.452400
H -9.692700 -8.127800 -42.393900
O -9.057400 -8.127800 -35.078000
C -8.992900 -8.127800 -36.406100
O -8.548600 -8.127800 -46.304800
C -8.519400 -8.127800 -44.978700
H -8.289400 -8.127800 -34.763800
O -7.954700 -8.127800 -37.005900
H -7.772100 -8.127800 -46.598600
O -7.523900 -8.127800 -44.338100
62
Fragment
H -21.645400 -8.127800 -30.349000
C -20.707100 -8.127800 -30.408100
H -20.582900 -8.127800 -32.440100
H -20.333400 -8.127800 -28.406800
C -20.085100 -8.127800 -31.642400
C -19.934200 -8.127800 -29.257500
C -18.731800 -8.127800 -31.662800
N -18.636800 -8.127800 -34.086500
C -18.588200 -8.127800 -29.394200
N -18.220600 -8.127800 -27.023600
N -17.994200 -8.127800 -32.872600
N -17.949200 -8.127800 -30.575400
H -17.806800 -8.127800 -35.920600
N -17.716700 -8.127800 -28.286400
C -17.669300 -8.127800 -34.990300
H -17.232400 -8.127800 -25.273100
C -17.180000 -8.127800 -26.211600
C -16.645700 -8.127800 -33.037900
C -16.390100 -8.127800 -34.361900
C -16.350000 -8.127800 -28.264000
H -16.004300 -8.127800 -32.352400
C -15.973900 -8.127800 -26.952200
H -15.778000 -8.127800 -29.010600
O -15.142700 -8.127800 -36.326600
C -15.078200 -8.127800 -34.998400
O -14.633900 -8.127800 -25.099700
C -14.604700 -8.127800 -26.425800
H -14.374700 -8.127800 -36.640700
O -14.040000 -8.127800 -34.398600
H -13.857400 -8.127800 -24.805900
O -13.609200 -8.127800 -27.066400
H -15.560100 -8.127800 -41.055600
C -14.621800 -8.127800 -40.996400
H -14.497600 -8.127800 -38.964400
H -14.248100 -8.127800 -42.997800
C -13.999800 -8.127800 -39.762100
C -13.848900 -8.127800 -42.147000
C -12.646500 -8.127800 -39.741700
N -12.551500 -8.127800 -37.318100
C -12.502900 -8.127800 -42.010400
N -12.135300 -8.127800 -44.381000
N -11.908900 -8.127800 -38.531900
N -11.863900 -8.127800 -40.829100
H -11.721500 -8.127800 -35.484000
N -11.631400 -8.127800 -43.118100
C -11.584000 -8.127800 -36.414300
H -11.147100 -8.127800 -46.131400
C -11.094700 -8.127800 -45.193000
C -10.560400 -8.127800 -38.366700
C -10.304800 -8.127800 -37.042600
C -10.264700 -8.127800 -43.140600
H -9.919000 -8.127800 -39.052200
C -9.888600 -8.127800 -44.452400
H -9.692700 -8.127800 -42.393900
O -9.057400 -8.127800 -35.078000
C -8.992900 -8.127800 -36.406100
O -8.548600 -8.127800 -46.304800
C -8.519400 -8.127800 -44.978700
H -8.289400 -8.127800 -34.763800
O -7.954700 -8.127800 -37.005900
H -7.772100 -8.127800 -46.598600
O -7.523900 -8.127800 -44.338100
