31
Fragment
H -21.645400 -8.127800 -30.349000
C -20.707100 -8.127800 -30.408100
H -20.582900 -8.127800 -32.440100
H -20.333400 -8.127800 -28.406800
C -20.085100 -8.127800 -31.642400
C -19.934200 -8.127800 -29.257500
C -18.731800 -8.127800 -31.662800
N -18.636800 -8.127800 -34.086500
C -18.588200 -8.127800 -29.394200
N -18.220600 -8.127800 -27.023600
N -17.994200 -8.127800 -32.872600
N -17.949200 -8.127800 -30.575400
H -17.806800 -8.127800 -35.920600
N -17.716700 -8.127800 -28.286400
C -17.669300 -8.127800 -34.990300
H -17.232400 -8.127800 -25.273100
C -17.180000 -8.127800 -26.211600
C -16.645700 -8.127800 -33.037900
C -16.390100 -8.127800 -34.361900
C -16.350000 -8.127800 -28.264000
H -16.004300 -8.127800 -32.352400
C -15.973900 -8.127800 -26.952200
H -15.778000 -8.127800 -29.010600
O -15.142700 -8.127800 -36.326600
C -15.078200 -8.127800 -34.998400
O -14.633900 -8.127800 -25.099700
C -14.604700 -8.127800 -26.425800
H -14.374700 -8.127800 -36.640700
O -14.040000 -8.127800 -34.398600
H -13.857400 -8.127800 -24.805900
O -13.609200 -8.127800 -27.066400
31
Fragment
O -22.902600 -11.378900 -34.137500
H -22.654400 -11.378900 -36.398000
O -22.471800 -11.378900 -26.805300
H -22.137100 -11.378900 -24.563200
C -21.907100 -11.378900 -34.778100
O -21.877900 -11.378900 -36.104200
C -21.433600 -11.378900 -26.205500
O -21.369100 -11.378900 -24.877300
H -20.733800 -11.378900 -32.193300
C -20.537900 -11.378900 -34.251700
H -20.507500 -11.378900 -28.851500
C -20.161800 -11.378900 -32.939900
C -20.121700 -11.378900 -26.842000
C -19.866100 -11.378900 -28.166000
C -19.331800 -11.378900 -34.992300
H -19.279400 -11.378900 -35.930800
C -18.842500 -11.378900 -26.213600
N -18.795100 -11.378900 -32.917500
H -18.705000 -11.378900 -25.283300
N -18.562600 -11.378900 -30.628500
N -18.517600 -11.378900 -28.331300
N -18.291200 -11.378900 -34.180300
C -17.923600 -11.378900 -31.809700
N -17.875000 -11.378900 -27.117400
C -17.780000 -11.378900 -29.541100
C -16.577600 -11.378900 -31.946400
C -16.426700 -11.378900 -29.561500
H -16.178400 -11.378900 -32.797100
H -15.928900 -11.378900 -28.763800
C -15.804700 -11.378900 -30.795800
H -14.866400 -11.378900 -30.854900
62
Fragment
H -21.645400 -8.127800 -30.349000
C -20.707100 -8.127800 -30.408100
H -20.582900 -8.127800 -32.440100
H -20.333400 -8.127800 -28.406800
C -20.085100 -8.127800 -31.642400
C -19.934200 -8.127800 -29.257500
C -18.731800 -8.127800 -31.662800
N -18.636800 -8.127800 -34.086500
C -18.588200 -8.127800 -29.394200
N -18.220600 -8.127800 -27.023600
N -17.994200 -8.127800 -32.872600
N -17.949200 -8.127800 -30.575400
H -17.806800 -8.127800 -35.920600
N -17.716700 -8.127800 -28.286400
C -17.669300 -8.127800 -34.990300
H -17.232400 -8.127800 -25.273100
C -17.180000 -8.127800 -26.211600
C -16.645700 -8.127800 -33.037900
C -16.390100 -8.127800 -34.361900
C -16.350000 -8.127800 -28.264000
H -16.004300 -8.127800 -32.352400
C -15.973900 -8.127800 -26.952200
H -15.778000 -8.127800 -29.010600
O -15.142700 -8.127800 -36.326600
C -15.078200 -8.127800 -34.998400
O -14.633900 -8.127800 -25.099700
C -14.604700 -8.127800 -26.425800
H -14.374700 -8.127800 -36.640700
O -14.040000 -8.127800 -34.398600
H -13.857400 -8.127800 -24.805900
O -13.609200 -8.127800 -27.066400
O -22.902600 -11.378900 -34.137500
H -22.654400 -11.378900 -36.398000
O -22.471800 -11.378900 -26.805300
H -22.137100 -11.378900 -24.563200
C -21.907100 -11.378900 -34.778100
O -21.877900 -11.378900 -36.104200
C -21.433600 -11.378900 -26.205500
O -21.369100 -11.378900 -24.877300
H -20.733800 -11.378900 -32.193300
C -20.537900 -11.378900 -34.251700
H -20.507500 -11.378900 -28.851500
C -20.161800 -11.378900 -32.939900
C -20.121700 -11.378900 -26.842000
C -19.866100 -11.378900 -28.166000
C -19.331800 -11.378900 -34.992300
H -19.279400 -11.378900 -35.930800
C -18.842500 -11.378900 -26.213600
N -18.795100 -11.378900 -32.917500
H -18.705000 -11.378900 -25.283300
N -18.562600 -11.378900 -30.628500
N -18.517600 -11.378900 -28.331300
N -18.291200 -11.378900 -34.180300
C -17.923600 -11.378900 -31.809700
N -17.875000 -11.378900 -27.117400
C -17.780000 -11.378900 -29.541100
C -16.577600 -11.378900 -31.946400
C -16.426700 -11.378900 -29.561500
H -16.178400 -11.378900 -32.797100
H -15.928900 -11.378900 -28.763800
C -15.804700 -11.378900 -30.795800
H -14.866400 -11.378900 -30.854900
