31
Fragment
H -21.645400 -8.127800 -30.349000
C -20.707100 -8.127800 -30.408100
H -20.582900 -8.127800 -32.440100
H -20.333400 -8.127800 -28.406800
C -20.085100 -8.127800 -31.642400
C -19.934200 -8.127800 -29.257500
C -18.731800 -8.127800 -31.662800
N -18.636800 -8.127800 -34.086500
C -18.588200 -8.127800 -29.394200
N -18.220600 -8.127800 -27.023600
N -17.994200 -8.127800 -32.872600
N -17.949200 -8.127800 -30.575400
H -17.806800 -8.127800 -35.920600
N -17.716700 -8.127800 -28.286400
C -17.669300 -8.127800 -34.990300
H -17.232400 -8.127800 -25.273100
C -17.180000 -8.127800 -26.211600
C -16.645700 -8.127800 -33.037900
C -16.390100 -8.127800 -34.361900
C -16.350000 -8.127800 -28.264000
H -16.004300 -8.127800 -32.352400
C -15.973900 -8.127800 -26.952200
H -15.778000 -8.127800 -29.010600
O -15.142700 -8.127800 -36.326600
C -15.078200 -8.127800 -34.998400
O -14.633900 -8.127800 -25.099700
C -14.604700 -8.127800 -26.425800
H -14.374700 -8.127800 -36.640700
O -14.040000 -8.127800 -34.398600
H -13.857400 -8.127800 -24.805900
O -13.609200 -8.127800 -27.066400
31
Fragment
O -16.817300 -11.378900 -16.865800
H -16.569100 -11.378900 -14.605300
O -16.386500 -11.378900 -24.198000
H -16.051800 -11.378900 -26.440100
C -15.821800 -11.378900 -16.225200
O -15.792600 -11.378900 -14.899100
C -15.348300 -11.378900 -24.797800
O -15.283800 -11.378900 -26.125900
H -14.648500 -11.378900 -18.810000
C -14.452600 -11.378900 -16.751500
H -14.422200 -11.378900 -22.151700
C -14.076500 -11.378900 -18.063300
C -14.036400 -11.378900 -24.161300
C -13.780800 -11.378900 -22.837200
C -13.246500 -11.378900 -16.010900
H -13.194100 -11.378900 -15.072500
C -12.757200 -11.378900 -24.789600
N -12.709800 -11.378900 -18.085800
H -12.619700 -11.378900 -25.719900
N -12.477300 -11.378900 -20.374800
N -12.432300 -11.378900 -22.672000
N -12.205900 -11.378900 -16.822900
C -11.838300 -11.378900 -19.193500
N -11.789700 -11.378900 -23.885800
C -11.694700 -11.378900 -21.462200
C -10.492300 -11.378900 -19.056900
C -10.341400 -11.378900 -21.441800
H -10.093100 -11.378900 -18.206100
H -9.843600 -11.378900 -22.239500
C -9.719400 -11.378900 -20.207500
H -8.781100 -11.378900 -20.148300
62
Fragment
H -21.645400 -8.127800 -30.349000
C -20.707100 -8.127800 -30.408100
H -20.582900 -8.127800 -32.440100
H -20.333400 -8.127800 -28.406800
C -20.085100 -8.127800 -31.642400
C -19.934200 -8.127800 -29.257500
C -18.731800 -8.127800 -31.662800
N -18.636800 -8.127800 -34.086500
C -18.588200 -8.127800 -29.394200
N -18.220600 -8.127800 -27.023600
N -17.994200 -8.127800 -32.872600
N -17.949200 -8.127800 -30.575400
H -17.806800 -8.127800 -35.920600
N -17.716700 -8.127800 -28.286400
C -17.669300 -8.127800 -34.990300
H -17.232400 -8.127800 -25.273100
C -17.180000 -8.127800 -26.211600
C -16.645700 -8.127800 -33.037900
C -16.390100 -8.127800 -34.361900
C -16.350000 -8.127800 -28.264000
H -16.004300 -8.127800 -32.352400
C -15.973900 -8.127800 -26.952200
H -15.778000 -8.127800 -29.010600
O -15.142700 -8.127800 -36.326600
C -15.078200 -8.127800 -34.998400
O -14.633900 -8.127800 -25.099700
C -14.604700 -8.127800 -26.425800
H -14.374700 -8.127800 -36.640700
O -14.040000 -8.127800 -34.398600
H -13.857400 -8.127800 -24.805900
O -13.609200 -8.127800 -27.066400
O -16.817300 -11.378900 -16.865800
H -16.569100 -11.378900 -14.605300
O -16.386500 -11.378900 -24.198000
H -16.051800 -11.378900 -26.440100
C -15.821800 -11.378900 -16.225200
O -15.792600 -11.378900 -14.899100
C -15.348300 -11.378900 -24.797800
O -15.283800 -11.378900 -26.125900
H -14.648500 -11.378900 -18.810000
C -14.452600 -11.378900 -16.751500
H -14.422200 -11.378900 -22.151700
C -14.076500 -11.378900 -18.063300
C -14.036400 -11.378900 -24.161300
C -13.780800 -11.378900 -22.837200
C -13.246500 -11.378900 -16.010900
H -13.194100 -11.378900 -15.072500
C -12.757200 -11.378900 -24.789600
N -12.709800 -11.378900 -18.085800
H -12.619700 -11.378900 -25.719900
N -12.477300 -11.378900 -20.374800
N -12.432300 -11.378900 -22.672000
N -12.205900 -11.378900 -16.822900
C -11.838300 -11.378900 -19.193500
N -11.789700 -11.378900 -23.885800
C -11.694700 -11.378900 -21.462200
C -10.492300 -11.378900 -19.056900
C -10.341400 -11.378900 -21.441800
H -10.093100 -11.378900 -18.206100
H -9.843600 -11.378900 -22.239500
C -9.719400 -11.378900 -20.207500
H -8.781100 -11.378900 -20.148300
