32
Fragment
H -30.683500 -11.588700 -22.904600
H -30.683500 -10.626000 -21.117400
H -30.665300 -12.795700 -24.909100
H -30.665300 -9.419000 -19.112900
C -29.818900 -11.844000 -23.282600
C -29.818900 -10.370700 -20.739400
C -29.812700 -12.579900 -24.481200
C -29.812700 -9.634800 -19.540800
C -28.641200 -11.474700 -22.650500
C -28.641200 -10.740000 -21.371500
C -28.625900 -12.949000 -25.056000
C -28.625900 -9.265700 -18.966000
H -28.625200 -13.491700 -25.952400
H -28.625200 -8.723000 -18.069600
C -27.396000 -12.576000 -24.468500
C -27.396000 -11.829700 -23.251200
C -27.396000 -10.385000 -20.770800
C -27.396000 -9.638700 -19.553500
H -26.166800 -13.491700 -25.952400
H -26.166800 -8.723000 -18.069600
C -26.166100 -12.949000 -25.056000
C -26.166100 -9.265700 -18.966000
C -26.150800 -11.474700 -22.650500
C -26.150800 -10.740000 -21.371500
C -24.979300 -12.579900 -24.481200
C -24.979300 -9.634800 -19.540800
C -24.973100 -11.844000 -23.282600
C -24.973100 -10.370700 -20.739400
H -24.126700 -12.795700 -24.909100
H -24.126700 -9.419000 -19.112900
H -24.108500 -11.588700 -22.904600
H -24.108500 -10.626000 -21.117400
14
Fragment
N -39.912900 -12.248100 -23.622200
N -39.912900 -9.966600 -20.399800
C -38.906700 -11.921100 -23.188300
C -38.906700 -10.293600 -20.833700
C -37.658400 -11.503700 -22.592500
C -37.658400 -10.711000 -21.429500
N -36.528000 -11.896100 -23.179200
N -36.528000 -10.318600 -20.842800
C -35.397600 -11.503700 -22.592500
C -35.397600 -10.711000 -21.429500
C -34.149300 -11.921100 -23.188300
C -34.149300 -10.293600 -20.833700
N -33.143100 -12.248100 -23.622200
N -33.143100 -9.966600 -20.399800
46
Fragment
H -30.683500 -11.588700 -22.904600
H -30.683500 -10.626000 -21.117400
H -30.665300 -12.795700 -24.909100
H -30.665300 -9.419000 -19.112900
C -29.818900 -11.844000 -23.282600
C -29.818900 -10.370700 -20.739400
C -29.812700 -12.579900 -24.481200
C -29.812700 -9.634800 -19.540800
C -28.641200 -11.474700 -22.650500
C -28.641200 -10.740000 -21.371500
C -28.625900 -12.949000 -25.056000
C -28.625900 -9.265700 -18.966000
H -28.625200 -13.491700 -25.952400
H -28.625200 -8.723000 -18.069600
C -27.396000 -12.576000 -24.468500
C -27.396000 -11.829700 -23.251200
C -27.396000 -10.385000 -20.770800
C -27.396000 -9.638700 -19.553500
H -26.166800 -13.491700 -25.952400
H -26.166800 -8.723000 -18.069600
C -26.166100 -12.949000 -25.056000
C -26.166100 -9.265700 -18.966000
C -26.150800 -11.474700 -22.650500
C -26.150800 -10.740000 -21.371500
C -24.979300 -12.579900 -24.481200
C -24.979300 -9.634800 -19.540800
C -24.973100 -11.844000 -23.282600
C -24.973100 -10.370700 -20.739400
H -24.126700 -12.795700 -24.909100
H -24.126700 -9.419000 -19.112900
H -24.108500 -11.588700 -22.904600
H -24.108500 -10.626000 -21.117400
N -39.912900 -12.248100 -23.622200
N -39.912900 -9.966600 -20.399800
C -38.906700 -11.921100 -23.188300
C -38.906700 -10.293600 -20.833700
C -37.658400 -11.503700 -22.592500
C -37.658400 -10.711000 -21.429500
N -36.528000 -11.896100 -23.179200
N -36.528000 -10.318600 -20.842800
C -35.397600 -11.503700 -22.592500
C -35.397600 -10.711000 -21.429500
C -34.149300 -11.921100 -23.188300
C -34.149300 -10.293600 -20.833700
N -33.143100 -12.248100 -23.622200
N -33.143100 -9.966600 -20.399800
