32
Fragment
H -30.683500 -11.588700 -22.904600
H -30.683500 -10.626000 -21.117400
H -30.665300 -12.795700 -24.909100
H -30.665300 -9.419000 -19.112900
C -29.818900 -11.844000 -23.282600
C -29.818900 -10.370700 -20.739400
C -29.812700 -12.579900 -24.481200
C -29.812700 -9.634800 -19.540800
C -28.641200 -11.474700 -22.650500
C -28.641200 -10.740000 -21.371500
C -28.625900 -12.949000 -25.056000
C -28.625900 -9.265700 -18.966000
H -28.625200 -13.491700 -25.952400
H -28.625200 -8.723000 -18.069600
C -27.396000 -12.576000 -24.468500
C -27.396000 -11.829700 -23.251200
C -27.396000 -10.385000 -20.770800
C -27.396000 -9.638700 -19.553500
H -26.166800 -13.491700 -25.952400
H -26.166800 -8.723000 -18.069600
C -26.166100 -12.949000 -25.056000
C -26.166100 -9.265700 -18.966000
C -26.150800 -11.474700 -22.650500
C -26.150800 -10.740000 -21.371500
C -24.979300 -12.579900 -24.481200
C -24.979300 -9.634800 -19.540800
C -24.973100 -11.844000 -23.282600
C -24.973100 -10.370700 -20.739400
H -24.126700 -12.795700 -24.909100
H -24.126700 -9.419000 -19.112900
H -24.108500 -11.588700 -22.904600
H -24.108500 -10.626000 -21.117400
32
Fragment
H -30.683500 -15.291100 -13.780400
H -30.683500 -14.328500 -15.567600
H -30.665300 -16.498100 -11.775900
H -30.665300 -13.121500 -17.572100
C -29.818900 -15.546400 -13.402400
C -29.818900 -14.073200 -15.945600
C -29.812700 -16.282300 -12.203800
C -29.812700 -13.337300 -17.144200
C -28.641200 -15.177200 -14.034500
C -28.641200 -14.442400 -15.313500
C -28.625900 -16.651500 -11.629000
C -28.625900 -12.968100 -17.719000
H -28.625200 -17.194200 -10.732600
H -28.625200 -12.425400 -18.615400
C -27.396000 -16.278400 -12.216500
C -27.396000 -15.532100 -13.433800
C -27.396000 -14.087500 -15.914200
C -27.396000 -13.341200 -17.131500
H -26.166800 -17.194200 -10.732600
H -26.166800 -12.425400 -18.615400
C -26.166100 -16.651500 -11.629000
C -26.166100 -12.968100 -17.719000
C -26.150800 -15.177200 -14.034500
C -26.150800 -14.442400 -15.313500
C -24.979300 -16.282300 -12.203800
C -24.979300 -13.337300 -17.144200
C -24.973100 -15.546400 -13.402400
C -24.973100 -14.073200 -15.945600
H -24.126700 -16.498100 -11.775900
H -24.126700 -13.121500 -17.572100
H -24.108500 -15.291100 -13.780400
H -24.108500 -14.328500 -15.567600
64
Fragment
H -30.683500 -11.588700 -22.904600
H -30.683500 -10.626000 -21.117400
H -30.665300 -12.795700 -24.909100
H -30.665300 -9.419000 -19.112900
C -29.818900 -11.844000 -23.282600
C -29.818900 -10.370700 -20.739400
C -29.812700 -12.579900 -24.481200
C -29.812700 -9.634800 -19.540800
C -28.641200 -11.474700 -22.650500
C -28.641200 -10.740000 -21.371500
C -28.625900 -12.949000 -25.056000
C -28.625900 -9.265700 -18.966000
H -28.625200 -13.491700 -25.952400
H -28.625200 -8.723000 -18.069600
C -27.396000 -12.576000 -24.468500
C -27.396000 -11.829700 -23.251200
C -27.396000 -10.385000 -20.770800
C -27.396000 -9.638700 -19.553500
H -26.166800 -13.491700 -25.952400
H -26.166800 -8.723000 -18.069600
C -26.166100 -12.949000 -25.056000
C -26.166100 -9.265700 -18.966000
C -26.150800 -11.474700 -22.650500
C -26.150800 -10.740000 -21.371500
C -24.979300 -12.579900 -24.481200
C -24.979300 -9.634800 -19.540800
C -24.973100 -11.844000 -23.282600
C -24.973100 -10.370700 -20.739400
H -24.126700 -12.795700 -24.909100
H -24.126700 -9.419000 -19.112900
H -24.108500 -11.588700 -22.904600
H -24.108500 -10.626000 -21.117400
H -30.683500 -15.291100 -13.780400
H -30.683500 -14.328500 -15.567600
H -30.665300 -16.498100 -11.775900
H -30.665300 -13.121500 -17.572100
C -29.818900 -15.546400 -13.402400
C -29.818900 -14.073200 -15.945600
C -29.812700 -16.282300 -12.203800
C -29.812700 -13.337300 -17.144200
C -28.641200 -15.177200 -14.034500
C -28.641200 -14.442400 -15.313500
C -28.625900 -16.651500 -11.629000
C -28.625900 -12.968100 -17.719000
H -28.625200 -17.194200 -10.732600
H -28.625200 -12.425400 -18.615400
C -27.396000 -16.278400 -12.216500
C -27.396000 -15.532100 -13.433800
C -27.396000 -14.087500 -15.914200
C -27.396000 -13.341200 -17.131500
H -26.166800 -17.194200 -10.732600
H -26.166800 -12.425400 -18.615400
C -26.166100 -16.651500 -11.629000
C -26.166100 -12.968100 -17.719000
C -26.150800 -15.177200 -14.034500
C -26.150800 -14.442400 -15.313500
C -24.979300 -16.282300 -12.203800
C -24.979300 -13.337300 -17.144200
C -24.973100 -15.546400 -13.402400
C -24.973100 -14.073200 -15.945600
H -24.126700 -16.498100 -11.775900
H -24.126700 -13.121500 -17.572100
H -24.108500 -15.291100 -13.780400
H -24.108500 -14.328500 -15.567600
