32
Fragment
H -30.683500 -11.588700 -22.904600
H -30.683500 -10.626000 -21.117400
H -30.665300 -12.795700 -24.909100
H -30.665300 -9.419000 -19.112900
C -29.818900 -11.844000 -23.282600
C -29.818900 -10.370700 -20.739400
C -29.812700 -12.579900 -24.481200
C -29.812700 -9.634800 -19.540800
C -28.641200 -11.474700 -22.650500
C -28.641200 -10.740000 -21.371500
C -28.625900 -12.949000 -25.056000
C -28.625900 -9.265700 -18.966000
H -28.625200 -13.491700 -25.952400
H -28.625200 -8.723000 -18.069600
C -27.396000 -12.576000 -24.468500
C -27.396000 -11.829700 -23.251200
C -27.396000 -10.385000 -20.770800
C -27.396000 -9.638700 -19.553500
H -26.166800 -13.491700 -25.952400
H -26.166800 -8.723000 -18.069600
C -26.166100 -12.949000 -25.056000
C -26.166100 -9.265700 -18.966000
C -26.150800 -11.474700 -22.650500
C -26.150800 -10.740000 -21.371500
C -24.979300 -12.579900 -24.481200
C -24.979300 -9.634800 -19.540800
C -24.973100 -11.844000 -23.282600
C -24.973100 -10.370700 -20.739400
H -24.126700 -12.795700 -24.909100
H -24.126700 -9.419000 -19.112900
H -24.108500 -11.588700 -22.904600
H -24.108500 -10.626000 -21.117400
14
Fragment
N -30.780900 -15.950500 -23.622200
N -30.780900 -13.669100 -20.399800
C -29.774700 -15.623600 -23.188300
C -29.774700 -13.996000 -20.833700
C -28.526400 -15.206100 -22.592500
C -28.526400 -14.413500 -21.429500
N -27.396000 -15.598600 -23.179200
N -27.396000 -14.021000 -20.842800
C -26.265600 -15.206100 -22.592500
C -26.265600 -14.413500 -21.429500
C -25.017300 -15.623600 -23.188300
C -25.017300 -13.996000 -20.833700
N -24.011100 -15.950500 -23.622200
N -24.011100 -13.669100 -20.399800
46
Fragment
H -30.683500 -11.588700 -22.904600
H -30.683500 -10.626000 -21.117400
H -30.665300 -12.795700 -24.909100
H -30.665300 -9.419000 -19.112900
C -29.818900 -11.844000 -23.282600
C -29.818900 -10.370700 -20.739400
C -29.812700 -12.579900 -24.481200
C -29.812700 -9.634800 -19.540800
C -28.641200 -11.474700 -22.650500
C -28.641200 -10.740000 -21.371500
C -28.625900 -12.949000 -25.056000
C -28.625900 -9.265700 -18.966000
H -28.625200 -13.491700 -25.952400
H -28.625200 -8.723000 -18.069600
C -27.396000 -12.576000 -24.468500
C -27.396000 -11.829700 -23.251200
C -27.396000 -10.385000 -20.770800
C -27.396000 -9.638700 -19.553500
H -26.166800 -13.491700 -25.952400
H -26.166800 -8.723000 -18.069600
C -26.166100 -12.949000 -25.056000
C -26.166100 -9.265700 -18.966000
C -26.150800 -11.474700 -22.650500
C -26.150800 -10.740000 -21.371500
C -24.979300 -12.579900 -24.481200
C -24.979300 -9.634800 -19.540800
C -24.973100 -11.844000 -23.282600
C -24.973100 -10.370700 -20.739400
H -24.126700 -12.795700 -24.909100
H -24.126700 -9.419000 -19.112900
H -24.108500 -11.588700 -22.904600
H -24.108500 -10.626000 -21.117400
N -30.780900 -15.950500 -23.622200
N -30.780900 -13.669100 -20.399800
C -29.774700 -15.623600 -23.188300
C -29.774700 -13.996000 -20.833700
C -28.526400 -15.206100 -22.592500
C -28.526400 -14.413500 -21.429500
N -27.396000 -15.598600 -23.179200
N -27.396000 -14.021000 -20.842800
C -26.265600 -15.206100 -22.592500
C -26.265600 -14.413500 -21.429500
C -25.017300 -15.623600 -23.188300
C -25.017300 -13.996000 -20.833700
N -24.011100 -15.950500 -23.622200
N -24.011100 -13.669100 -20.399800
