14
Fragment
H -9.216900 -10.273000 -16.926700
O -8.680300 -10.447800 -17.548700
O -7.886300 -8.429200 -17.031100
C -7.829700 -9.461500 -17.682300
H -7.236500 -10.002200 -19.568400
C -6.786500 -9.742900 -18.725800
H -6.435100 -7.796000 -19.291800
H -6.234300 -10.509600 -18.429300
C -5.882900 -8.562600 -18.995300
H -5.432900 -8.303300 -18.152600
C -4.839700 -8.844100 -20.038800
O -4.783100 -9.876300 -20.690000
O -3.989100 -7.857700 -20.172400
H -3.452500 -8.032600 -20.794400
12
Fragment
O -8.387600 -5.309300 -15.584200
C -7.397500 -4.951700 -16.254800
H -7.145800 -6.482000 -17.497600
H -6.957200 -3.142000 -15.610200
N -6.811200 -5.725700 -17.196700
N -6.745500 -3.784000 -16.172900
H -5.849100 -3.064400 -17.855900
C -5.645500 -3.700600 -17.125000
C -5.554600 -5.145000 -17.649200
H -5.485100 -5.165000 -18.636700
H -4.804700 -3.425900 -16.680300
H -4.778800 -5.619700 -17.259900
26
Fragment
H -9.216900 -10.273000 -16.926700
O -8.680300 -10.447800 -17.548700
O -7.886300 -8.429200 -17.031100
C -7.829700 -9.461500 -17.682300
H -7.236500 -10.002200 -19.568400
C -6.786500 -9.742900 -18.725800
H -6.435100 -7.796000 -19.291800
H -6.234300 -10.509600 -18.429300
C -5.882900 -8.562600 -18.995300
H -5.432900 -8.303300 -18.152600
C -4.839700 -8.844100 -20.038800
O -4.783100 -9.876300 -20.690000
O -3.989100 -7.857700 -20.172400
H -3.452500 -8.032600 -20.794400
O -8.387600 -5.309300 -15.584200
C -7.397500 -4.951700 -16.254800
H -7.145800 -6.482000 -17.497600
H -6.957200 -3.142000 -15.610200
N -6.811200 -5.725700 -17.196700
N -6.745500 -3.784000 -16.172900
H -5.849100 -3.064400 -17.855900
C -5.645500 -3.700600 -17.125000
C -5.554600 -5.145000 -17.649200
H -5.485100 -5.165000 -18.636700
H -4.804700 -3.425900 -16.680300
H -4.778800 -5.619700 -17.259900
