12
Fragment
H -12.320200 -14.003800 -18.764100
H -11.497100 -16.024800 -19.342600
C -11.368000 -14.105700 -18.516200
H -11.285800 -14.086700 -17.529300
C -10.785300 -15.385100 -19.088800
N -10.555100 -13.078400 -19.128900
H -10.503900 -12.247100 -18.846800
H -10.168000 -15.819800 -18.448900
N -10.082900 -14.892100 -20.244500
C -9.893100 -13.564600 -20.178400
H -9.812800 -15.398500 -20.911500
O -9.237100 -12.894700 -21.001200
12
Fragment
O -10.076400 -7.293200 -20.316500
H -9.500800 -9.797000 -20.406200
C -9.420400 -7.963100 -21.139300
N -9.230600 -9.290600 -21.073200
H -9.145600 -10.218300 -22.868700
H -8.809700 -6.645600 -22.470900
N -8.758400 -7.476900 -22.188800
C -8.528200 -9.783600 -22.228900
H -8.027800 -8.485200 -23.788300
C -7.945600 -8.504200 -22.801400
H -7.816500 -10.423300 -21.975100
H -6.993300 -8.402300 -22.553500
24
Fragment
H -12.320200 -14.003800 -18.764100
H -11.497100 -16.024800 -19.342600
C -11.368000 -14.105700 -18.516200
H -11.285800 -14.086700 -17.529300
C -10.785300 -15.385100 -19.088800
N -10.555100 -13.078400 -19.128900
H -10.503900 -12.247100 -18.846800
H -10.168000 -15.819800 -18.448900
N -10.082900 -14.892100 -20.244500
C -9.893100 -13.564600 -20.178400
H -9.812800 -15.398500 -20.911500
O -9.237100 -12.894700 -21.001200
O -10.076400 -7.293200 -20.316500
H -9.500800 -9.797000 -20.406200
C -9.420400 -7.963100 -21.139300
N -9.230600 -9.290600 -21.073200
H -9.145600 -10.218300 -22.868700
H -8.809700 -6.645600 -22.470900
N -8.758400 -7.476900 -22.188800
C -8.528200 -9.783600 -22.228900
H -8.027800 -8.485200 -23.788300
C -7.945600 -8.504200 -22.801400
H -7.816500 -10.423300 -21.975100
H -6.993300 -8.402300 -22.553500
