20
Fragment
H -12.131500 -32.375000 -14.883200
O -11.958000 -34.498300 -16.249500
H -11.940200 -35.330700 -16.364100
H -11.495900 -30.601900 -13.165200
C -11.204000 -34.184000 -15.231300
C -11.197400 -32.702300 -14.914500
H -10.958700 -32.889200 -12.867200
H -10.733000 -32.218500 -15.642900
O -10.572100 -35.000100 -14.584300
C -10.553800 -30.892600 -13.252900
C -10.514700 -32.381000 -13.592000
H -10.264800 -31.062500 -11.214500
H -10.142300 -30.378400 -13.991100
O -10.101000 -28.245400 -12.382200
C -9.813200 -30.591900 -11.958100
C -9.745000 -29.129600 -11.635100
H -9.571500 -32.676800 -13.634900
O -9.227000 -28.899800 -10.435100
H -9.176000 -28.071000 -10.305400
H -8.892100 -30.948500 -12.026100
12
Fragment
H -16.666300 -29.855200 -16.700500
H -16.516000 -32.028400 -17.683000
N -16.108100 -30.478500 -16.425800
H -15.966900 -33.206700 -15.793200
C -15.737500 -31.652100 -17.201600
C -15.484600 -30.471600 -15.237500
O -15.458000 -29.530500 -14.417000
C -15.244700 -32.601200 -16.099200
H -15.018900 -31.447100 -17.850300
N -14.858000 -31.663500 -15.051400
H -14.473600 -33.141900 -16.404300
H -14.299800 -31.842800 -14.395500
32
Fragment
H -12.131500 -32.375000 -14.883200
O -11.958000 -34.498300 -16.249500
H -11.940200 -35.330700 -16.364100
H -11.495900 -30.601900 -13.165200
C -11.204000 -34.184000 -15.231300
C -11.197400 -32.702300 -14.914500
H -10.958700 -32.889200 -12.867200
H -10.733000 -32.218500 -15.642900
O -10.572100 -35.000100 -14.584300
C -10.553800 -30.892600 -13.252900
C -10.514700 -32.381000 -13.592000
H -10.264800 -31.062500 -11.214500
H -10.142300 -30.378400 -13.991100
O -10.101000 -28.245400 -12.382200
C -9.813200 -30.591900 -11.958100
C -9.745000 -29.129600 -11.635100
H -9.571500 -32.676800 -13.634900
O -9.227000 -28.899800 -10.435100
H -9.176000 -28.071000 -10.305400
H -8.892100 -30.948500 -12.026100
H -16.666300 -29.855200 -16.700500
H -16.516000 -32.028400 -17.683000
N -16.108100 -30.478500 -16.425800
H -15.966900 -33.206700 -15.793200
C -15.737500 -31.652100 -17.201600
C -15.484600 -30.471600 -15.237500
O -15.458000 -29.530500 -14.417000
C -15.244700 -32.601200 -16.099200
H -15.018900 -31.447100 -17.850300
N -14.858000 -31.663500 -15.051400
H -14.473600 -33.141900 -16.404300
H -14.299800 -31.842800 -14.395500
