12
Fragment
H -22.422900 -24.822200 -8.085900
H -21.698500 -22.542400 -7.829100
H -21.674700 -22.799400 -9.422700
N -21.632000 -24.519800 -8.327700
C -21.326700 -23.110400 -8.550400
O -20.553400 -26.546100 -8.538800
C -20.553400 -25.302900 -8.538800
C -19.780200 -23.110400 -8.527200
N -19.474900 -24.519800 -8.749900
H -19.432100 -22.799400 -7.654900
H -19.408400 -22.542400 -9.248500
H -18.683900 -24.822200 -8.991700
12
Fragment
H -24.185700 -18.492400 -4.670400
H -23.461300 -20.772200 -4.413500
H -23.437500 -20.515200 -6.007200
N -23.394800 -18.794800 -4.912200
C -23.089500 -20.204200 -5.134900
C -22.316200 -18.011700 -5.123300
O -22.316200 -16.768500 -5.123300
C -21.543000 -20.204200 -5.111700
N -21.237700 -18.794800 -5.334400
H -21.195000 -20.515200 -4.239300
H -21.171200 -20.772200 -5.833000
H -20.446800 -18.492400 -5.576200
24
Fragment
H -22.422900 -24.822200 -8.085900
H -21.698500 -22.542400 -7.829100
H -21.674700 -22.799400 -9.422700
N -21.632000 -24.519800 -8.327700
C -21.326700 -23.110400 -8.550400
O -20.553400 -26.546100 -8.538800
C -20.553400 -25.302900 -8.538800
C -19.780200 -23.110400 -8.527200
N -19.474900 -24.519800 -8.749900
H -19.432100 -22.799400 -7.654900
H -19.408400 -22.542400 -9.248500
H -18.683900 -24.822200 -8.991700
H -24.185700 -18.492400 -4.670400
H -23.461300 -20.772200 -4.413500
H -23.437500 -20.515200 -6.007200
N -23.394800 -18.794800 -4.912200
C -23.089500 -20.204200 -5.134900
C -22.316200 -18.011700 -5.123300
O -22.316200 -16.768500 -5.123300
C -21.543000 -20.204200 -5.111700
N -21.237700 -18.794800 -5.334400
H -21.195000 -20.515200 -4.239300
H -21.171200 -20.772200 -5.833000
H -20.446800 -18.492400 -5.576200
