14
Fragment
H -9.216900 -10.273000 -16.926700
O -8.680300 -10.447800 -17.548700
O -7.886300 -8.429200 -17.031100
C -7.829700 -9.461500 -17.682300
H -7.236500 -10.002200 -19.568400
C -6.786500 -9.742900 -18.725800
H -6.435100 -7.796000 -19.291800
H -6.234300 -10.509600 -18.429300
C -5.882900 -8.562600 -18.995300
H -5.432900 -8.303300 -18.152600
C -4.839700 -8.844100 -20.038800
O -4.783100 -9.876300 -20.690000
O -3.989100 -7.857700 -20.172400
H -3.452500 -8.032600 -20.794400
12
Fragment
H -12.877800 -7.445000 -14.277400
H -12.179200 -7.691300 -12.842800
H -12.134300 -9.864600 -13.839900
C -12.064500 -7.778400 -13.822300
N -11.767600 -9.151800 -14.202400
H -11.029000 -6.144900 -14.667200
C -10.844600 -9.175400 -15.194300
C -10.807400 -7.040100 -14.307400
O -10.531600 -10.205700 -15.824100
N -10.331300 -7.938800 -15.359600
H -10.140300 -6.945200 -13.582100
H -9.786400 -7.704900 -16.010100
26
Fragment
H -9.216900 -10.273000 -16.926700
O -8.680300 -10.447800 -17.548700
O -7.886300 -8.429200 -17.031100
C -7.829700 -9.461500 -17.682300
H -7.236500 -10.002200 -19.568400
C -6.786500 -9.742900 -18.725800
H -6.435100 -7.796000 -19.291800
H -6.234300 -10.509600 -18.429300
C -5.882900 -8.562600 -18.995300
H -5.432900 -8.303300 -18.152600
C -4.839700 -8.844100 -20.038800
O -4.783100 -9.876300 -20.690000
O -3.989100 -7.857700 -20.172400
H -3.452500 -8.032600 -20.794400
H -12.877800 -7.445000 -14.277400
H -12.179200 -7.691300 -12.842800
H -12.134300 -9.864600 -13.839900
C -12.064500 -7.778400 -13.822300
N -11.767600 -9.151800 -14.202400
H -11.029000 -6.144900 -14.667200
C -10.844600 -9.175400 -15.194300
C -10.807400 -7.040100 -14.307400
O -10.531600 -10.205700 -15.824100
N -10.331300 -7.938800 -15.359600
H -10.140300 -6.945200 -13.582100
H -9.786400 -7.704900 -16.010100
