12
Fragment
H -22.422900 -24.822200 -8.085900
H -21.698500 -22.542400 -7.829100
H -21.674700 -22.799400 -9.422700
N -21.632000 -24.519800 -8.327700
C -21.326700 -23.110400 -8.550400
O -20.553400 -26.546100 -8.538800
C -20.553400 -25.302900 -8.538800
C -19.780200 -23.110400 -8.527200
N -19.474900 -24.519800 -8.749900
H -19.432100 -22.799400 -7.654900
H -19.408400 -22.542400 -9.248500
H -18.683900 -24.822200 -8.991700
12
Fragment
H -19.265700 -22.322900 -5.204600
N -18.432600 -22.144300 -4.984600
H -18.249700 -20.404100 -3.936000
H -18.145600 -20.200500 -5.533800
C -17.909700 -20.796400 -4.779000
O -17.661300 -24.322200 -4.835700
C -17.482200 -23.083600 -4.795400
C -16.389600 -21.039500 -4.710700
N -16.299300 -22.488800 -4.552200
H -15.985600 -20.568700 -3.938100
H -15.941900 -20.741900 -5.541300
H -15.565700 -22.917800 -4.326100
24
Fragment
H -22.422900 -24.822200 -8.085900
H -21.698500 -22.542400 -7.829100
H -21.674700 -22.799400 -9.422700
N -21.632000 -24.519800 -8.327700
C -21.326700 -23.110400 -8.550400
O -20.553400 -26.546100 -8.538800
C -20.553400 -25.302900 -8.538800
C -19.780200 -23.110400 -8.527200
N -19.474900 -24.519800 -8.749900
H -19.432100 -22.799400 -7.654900
H -19.408400 -22.542400 -9.248500
H -18.683900 -24.822200 -8.991700
H -19.265700 -22.322900 -5.204600
N -18.432600 -22.144300 -4.984600
H -18.249700 -20.404100 -3.936000
H -18.145600 -20.200500 -5.533800
C -17.909700 -20.796400 -4.779000
O -17.661300 -24.322200 -4.835700
C -17.482200 -23.083600 -4.795400
C -16.389600 -21.039500 -4.710700
N -16.299300 -22.488800 -4.552200
H -15.985600 -20.568700 -3.938100
H -15.941900 -20.741900 -5.541300
H -15.565700 -22.917800 -4.326100
