12
Fragment
H -22.422900 -24.822200 -8.085900
H -21.698500 -22.542400 -7.829100
H -21.674700 -22.799400 -9.422700
N -21.632000 -24.519800 -8.327700
C -21.326700 -23.110400 -8.550400
O -20.553400 -26.546100 -8.538800
C -20.553400 -25.302900 -8.538800
C -19.780200 -23.110400 -8.527200
N -19.474900 -24.519800 -8.749900
H -19.432100 -22.799400 -7.654900
H -19.408400 -22.542400 -9.248500
H -18.683900 -24.822200 -8.991700
12
Fragment
H -18.983800 -27.615900 -9.336000
H -18.607600 -29.791800 -8.120700
H -18.563900 -29.965000 -9.724000
N -18.250200 -28.044900 -9.109900
C -18.159900 -29.494200 -8.951400
C -17.067300 -27.450100 -8.866700
O -16.888200 -26.211500 -8.826400
C -16.639800 -29.737300 -8.883100
H -16.403900 -30.333200 -8.128300
H -16.299800 -30.129600 -9.726000
N -16.116900 -28.389400 -8.677500
H -15.283800 -28.210800 -8.457500
24
Fragment
H -22.422900 -24.822200 -8.085900
H -21.698500 -22.542400 -7.829100
H -21.674700 -22.799400 -9.422700
N -21.632000 -24.519800 -8.327700
C -21.326700 -23.110400 -8.550400
O -20.553400 -26.546100 -8.538800
C -20.553400 -25.302900 -8.538800
C -19.780200 -23.110400 -8.527200
N -19.474900 -24.519800 -8.749900
H -19.432100 -22.799400 -7.654900
H -19.408400 -22.542400 -9.248500
H -18.683900 -24.822200 -8.991700
H -18.983800 -27.615900 -9.336000
H -18.607600 -29.791800 -8.120700
H -18.563900 -29.965000 -9.724000
N -18.250200 -28.044900 -9.109900
C -18.159900 -29.494200 -8.951400
C -17.067300 -27.450100 -8.866700
O -16.888200 -26.211500 -8.826400
C -16.639800 -29.737300 -8.883100
H -16.403900 -30.333200 -8.128300
H -16.299800 -30.129600 -9.726000
N -16.116900 -28.389400 -8.677500
H -15.283800 -28.210800 -8.457500
