20
Fragment
H -12.131500 -32.375000 -14.883200
O -11.958000 -34.498300 -16.249500
H -11.940200 -35.330700 -16.364100
H -11.495900 -30.601900 -13.165200
C -11.204000 -34.184000 -15.231300
C -11.197400 -32.702300 -14.914500
H -10.958700 -32.889200 -12.867200
H -10.733000 -32.218500 -15.642900
O -10.572100 -35.000100 -14.584300
C -10.553800 -30.892600 -13.252900
C -10.514700 -32.381000 -13.592000
H -10.264800 -31.062500 -11.214500
H -10.142300 -30.378400 -13.991100
O -10.101000 -28.245400 -12.382200
C -9.813200 -30.591900 -11.958100
C -9.745000 -29.129600 -11.635100
H -9.571500 -32.676800 -13.634900
O -9.227000 -28.899800 -10.435100
H -9.176000 -28.071000 -10.305400
H -8.892100 -30.948500 -12.026100
12
Fragment
H -14.991200 -27.666300 -12.085200
C -14.027100 -27.815200 -12.252500
H -13.831800 -27.646200 -13.208100
H -13.777200 -29.877500 -12.334800
H -13.676200 -26.181700 -10.961300
N -13.622900 -29.153800 -11.859700
C -13.157200 -26.935400 -11.338900
C -12.983300 -29.144000 -10.680300
N -12.764800 -27.880300 -10.305400
O -12.625300 -30.146700 -10.007400
H -12.424600 -27.648400 -9.527800
H -12.369700 -26.579700 -11.822100
32
Fragment
H -12.131500 -32.375000 -14.883200
O -11.958000 -34.498300 -16.249500
H -11.940200 -35.330700 -16.364100
H -11.495900 -30.601900 -13.165200
C -11.204000 -34.184000 -15.231300
C -11.197400 -32.702300 -14.914500
H -10.958700 -32.889200 -12.867200
H -10.733000 -32.218500 -15.642900
O -10.572100 -35.000100 -14.584300
C -10.553800 -30.892600 -13.252900
C -10.514700 -32.381000 -13.592000
H -10.264800 -31.062500 -11.214500
H -10.142300 -30.378400 -13.991100
O -10.101000 -28.245400 -12.382200
C -9.813200 -30.591900 -11.958100
C -9.745000 -29.129600 -11.635100
H -9.571500 -32.676800 -13.634900
O -9.227000 -28.899800 -10.435100
H -9.176000 -28.071000 -10.305400
H -8.892100 -30.948500 -12.026100
H -14.991200 -27.666300 -12.085200
C -14.027100 -27.815200 -12.252500
H -13.831800 -27.646200 -13.208100
H -13.777200 -29.877500 -12.334800
H -13.676200 -26.181700 -10.961300
N -13.622900 -29.153800 -11.859700
C -13.157200 -26.935400 -11.338900
C -12.983300 -29.144000 -10.680300
N -12.764800 -27.880300 -10.305400
O -12.625300 -30.146700 -10.007400
H -12.424600 -27.648400 -9.527800
H -12.369700 -26.579700 -11.822100
