12
Fragment
H -12.320200 -14.003800 -18.764100
H -11.497100 -16.024800 -19.342600
C -11.368000 -14.105700 -18.516200
H -11.285800 -14.086700 -17.529300
C -10.785300 -15.385100 -19.088800
N -10.555100 -13.078400 -19.128900
H -10.503900 -12.247100 -18.846800
H -10.168000 -15.819800 -18.448900
N -10.082900 -14.892100 -20.244500
C -9.893100 -13.564600 -20.178400
H -9.812800 -15.398500 -20.911500
O -9.237100 -12.894700 -21.001200
12
Fragment
O -14.243400 -10.212700 -19.950500
H -13.817400 -12.752400 -20.144100
C -13.591700 -10.931900 -20.772200
N -13.504000 -12.231400 -20.780400
H -13.464300 -13.012300 -22.670400
H -12.920900 -9.581900 -22.062400
N -12.886300 -10.419900 -21.798000
C -12.821000 -12.719900 -21.977400
H -12.203100 -13.463800 -21.767300
C -12.057000 -11.449500 -22.409500
H -12.027800 -11.358700 -23.395200
H -11.134900 -11.438300 -22.050600
24
Fragment
H -12.320200 -14.003800 -18.764100
H -11.497100 -16.024800 -19.342600
C -11.368000 -14.105700 -18.516200
H -11.285800 -14.086700 -17.529300
C -10.785300 -15.385100 -19.088800
N -10.555100 -13.078400 -19.128900
H -10.503900 -12.247100 -18.846800
H -10.168000 -15.819800 -18.448900
N -10.082900 -14.892100 -20.244500
C -9.893100 -13.564600 -20.178400
H -9.812800 -15.398500 -20.911500
O -9.237100 -12.894700 -21.001200
O -14.243400 -10.212700 -19.950500
H -13.817400 -12.752400 -20.144100
C -13.591700 -10.931900 -20.772200
N -13.504000 -12.231400 -20.780400
H -13.464300 -13.012300 -22.670400
H -12.920900 -9.581900 -22.062400
N -12.886300 -10.419900 -21.798000
C -12.821000 -12.719900 -21.977400
H -12.203100 -13.463800 -21.767300
C -12.057000 -11.449500 -22.409500
H -12.027800 -11.358700 -23.395200
H -11.134900 -11.438300 -22.050600
