20
Fragment
H -12.131500 -32.375000 -14.883200
O -11.958000 -34.498300 -16.249500
H -11.940200 -35.330700 -16.364100
H -11.495900 -30.601900 -13.165200
C -11.204000 -34.184000 -15.231300
C -11.197400 -32.702300 -14.914500
H -10.958700 -32.889200 -12.867200
H -10.733000 -32.218500 -15.642900
O -10.572100 -35.000100 -14.584300
C -10.553800 -30.892600 -13.252900
C -10.514700 -32.381000 -13.592000
H -10.264800 -31.062500 -11.214500
H -10.142300 -30.378400 -13.991100
O -10.101000 -28.245400 -12.382200
C -9.813200 -30.591900 -11.958100
C -9.745000 -29.129600 -11.635100
H -9.571500 -32.676800 -13.634900
O -9.227000 -28.899800 -10.435100
H -9.176000 -28.071000 -10.305400
H -8.892100 -30.948500 -12.026100
12
Fragment
H -10.465800 -35.232400 -12.448400
H -10.292000 -33.933300 -10.439600
N -9.907600 -35.411700 -11.792600
H -9.746700 -35.628100 -8.993600
C -9.520900 -34.474000 -10.744700
O -9.307600 -37.544700 -12.427000
C -9.281000 -36.603600 -11.606400
C -9.028100 -35.423100 -9.642400
H -8.798700 -33.868500 -11.050800
N -8.657500 -36.596700 -10.418100
H -8.249600 -35.046800 -9.161000
H -8.099300 -37.220000 -10.143400
32
Fragment
H -12.131500 -32.375000 -14.883200
O -11.958000 -34.498300 -16.249500
H -11.940200 -35.330700 -16.364100
H -11.495900 -30.601900 -13.165200
C -11.204000 -34.184000 -15.231300
C -11.197400 -32.702300 -14.914500
H -10.958700 -32.889200 -12.867200
H -10.733000 -32.218500 -15.642900
O -10.572100 -35.000100 -14.584300
C -10.553800 -30.892600 -13.252900
C -10.514700 -32.381000 -13.592000
H -10.264800 -31.062500 -11.214500
H -10.142300 -30.378400 -13.991100
O -10.101000 -28.245400 -12.382200
C -9.813200 -30.591900 -11.958100
C -9.745000 -29.129600 -11.635100
H -9.571500 -32.676800 -13.634900
O -9.227000 -28.899800 -10.435100
H -9.176000 -28.071000 -10.305400
H -8.892100 -30.948500 -12.026100
H -10.465800 -35.232400 -12.448400
H -10.292000 -33.933300 -10.439600
N -9.907600 -35.411700 -11.792600
H -9.746700 -35.628100 -8.993600
C -9.520900 -34.474000 -10.744700
O -9.307600 -37.544700 -12.427000
C -9.281000 -36.603600 -11.606400
C -9.028100 -35.423100 -9.642400
H -8.798700 -33.868500 -11.050800
N -8.657500 -36.596700 -10.418100
H -8.249600 -35.046800 -9.161000
H -8.099300 -37.220000 -10.143400
