20
Fragment
H -12.131500 -32.375000 -14.883200
O -11.958000 -34.498300 -16.249500
H -11.940200 -35.330700 -16.364100
H -11.495900 -30.601900 -13.165200
C -11.204000 -34.184000 -15.231300
C -11.197400 -32.702300 -14.914500
H -10.958700 -32.889200 -12.867200
H -10.733000 -32.218500 -15.642900
O -10.572100 -35.000100 -14.584300
C -10.553800 -30.892600 -13.252900
C -10.514700 -32.381000 -13.592000
H -10.264800 -31.062500 -11.214500
H -10.142300 -30.378400 -13.991100
O -10.101000 -28.245400 -12.382200
C -9.813200 -30.591900 -11.958100
C -9.745000 -29.129600 -11.635100
H -9.571500 -32.676800 -13.634900
O -9.227000 -28.899800 -10.435100
H -9.176000 -28.071000 -10.305400
H -8.892100 -30.948500 -12.026100
20
Fragment
H -13.191500 -23.521000 -10.409200
O -13.018000 -21.397700 -11.775600
H -13.000200 -20.565300 -11.890100
H -12.555900 -25.294100 -8.691200
C -12.264000 -21.712000 -10.757300
C -12.257400 -23.193700 -10.440500
H -12.018700 -23.006800 -8.393200
H -11.793000 -23.677500 -11.168900
O -11.632100 -20.895900 -10.110300
C -11.613800 -25.003400 -8.778900
C -11.574700 -23.515000 -9.118000
H -11.324800 -24.833500 -6.740500
H -11.202300 -25.517600 -9.517100
O -11.161000 -27.650600 -7.908200
C -10.873200 -25.304100 -7.484100
C -10.805000 -26.766400 -7.161100
H -10.631500 -23.219200 -9.161000
O -10.287000 -26.996200 -5.961200
H -10.236000 -27.825000 -5.831400
H -9.952100 -24.947500 -7.552100
40
Fragment
H -12.131500 -32.375000 -14.883200
O -11.958000 -34.498300 -16.249500
H -11.940200 -35.330700 -16.364100
H -11.495900 -30.601900 -13.165200
C -11.204000 -34.184000 -15.231300
C -11.197400 -32.702300 -14.914500
H -10.958700 -32.889200 -12.867200
H -10.733000 -32.218500 -15.642900
O -10.572100 -35.000100 -14.584300
C -10.553800 -30.892600 -13.252900
C -10.514700 -32.381000 -13.592000
H -10.264800 -31.062500 -11.214500
H -10.142300 -30.378400 -13.991100
O -10.101000 -28.245400 -12.382200
C -9.813200 -30.591900 -11.958100
C -9.745000 -29.129600 -11.635100
H -9.571500 -32.676800 -13.634900
O -9.227000 -28.899800 -10.435100
H -9.176000 -28.071000 -10.305400
H -8.892100 -30.948500 -12.026100
H -13.191500 -23.521000 -10.409200
O -13.018000 -21.397700 -11.775600
H -13.000200 -20.565300 -11.890100
H -12.555900 -25.294100 -8.691200
C -12.264000 -21.712000 -10.757300
C -12.257400 -23.193700 -10.440500
H -12.018700 -23.006800 -8.393200
H -11.793000 -23.677500 -11.168900
O -11.632100 -20.895900 -10.110300
C -11.613800 -25.003400 -8.778900
C -11.574700 -23.515000 -9.118000
H -11.324800 -24.833500 -6.740500
H -11.202300 -25.517600 -9.517100
O -11.161000 -27.650600 -7.908200
C -10.873200 -25.304100 -7.484100
C -10.805000 -26.766400 -7.161100
H -10.631500 -23.219200 -9.161000
O -10.287000 -26.996200 -5.961200
H -10.236000 -27.825000 -5.831400
H -9.952100 -24.947500 -7.552100
