12
Fragment
H -22.422900 -24.822200 -8.085900
H -21.698500 -22.542400 -7.829100
H -21.674700 -22.799400 -9.422700
N -21.632000 -24.519800 -8.327700
C -21.326700 -23.110400 -8.550400
O -20.553400 -26.546100 -8.538800
C -20.553400 -25.302900 -8.538800
C -19.780200 -23.110400 -8.527200
N -19.474900 -24.519800 -8.749900
H -19.432100 -22.799400 -7.654900
H -19.408400 -22.542400 -9.248500
H -18.683900 -24.822200 -8.991700
11
Fragment
H -25.338400 -24.833700 -5.045400
O -24.637800 -25.261100 -4.868500
O -23.643100 -23.455400 -5.744900
C -23.584900 -24.569800 -5.273600
H -22.410700 -25.957000 -4.330900
C -22.316200 -25.370400 -5.123300
H -22.221800 -25.957000 -5.915700
C -21.047600 -24.569800 -4.973000
O -20.989300 -23.455400 -4.501700
O -19.994700 -25.261100 -5.378100
H -19.294100 -24.833700 -5.201200
23
Fragment
H -22.422900 -24.822200 -8.085900
H -21.698500 -22.542400 -7.829100
H -21.674700 -22.799400 -9.422700
N -21.632000 -24.519800 -8.327700
C -21.326700 -23.110400 -8.550400
O -20.553400 -26.546100 -8.538800
C -20.553400 -25.302900 -8.538800
C -19.780200 -23.110400 -8.527200
N -19.474900 -24.519800 -8.749900
H -19.432100 -22.799400 -7.654900
H -19.408400 -22.542400 -9.248500
H -18.683900 -24.822200 -8.991700
H -25.338400 -24.833700 -5.045400
O -24.637800 -25.261100 -4.868500
O -23.643100 -23.455400 -5.744900
C -23.584900 -24.569800 -5.273600
H -22.410700 -25.957000 -4.330900
C -22.316200 -25.370400 -5.123300
H -22.221800 -25.957000 -5.915700
C -21.047600 -24.569800 -4.973000
O -20.989300 -23.455400 -4.501700
O -19.994700 -25.261100 -5.378100
H -19.294100 -24.833700 -5.201200
