20
Fragment
H -12.131500 -32.375000 -14.883200
O -11.958000 -34.498300 -16.249500
H -11.940200 -35.330700 -16.364100
H -11.495900 -30.601900 -13.165200
C -11.204000 -34.184000 -15.231300
C -11.197400 -32.702300 -14.914500
H -10.958700 -32.889200 -12.867200
H -10.733000 -32.218500 -15.642900
O -10.572100 -35.000100 -14.584300
C -10.553800 -30.892600 -13.252900
C -10.514700 -32.381000 -13.592000
H -10.264800 -31.062500 -11.214500
H -10.142300 -30.378400 -13.991100
O -10.101000 -28.245400 -12.382200
C -9.813200 -30.591900 -11.958100
C -9.745000 -29.129600 -11.635100
H -9.571500 -32.676800 -13.634900
O -9.227000 -28.899800 -10.435100
H -9.176000 -28.071000 -10.305400
H -8.892100 -30.948500 -12.026100
12
Fragment
H -11.004900 -29.855200 -7.752500
H -10.854600 -32.028400 -8.735000
N -10.446700 -30.478500 -7.477800
H -10.305500 -33.206700 -6.845200
C -10.076100 -31.652100 -8.253600
C -9.823200 -30.471600 -6.289500
O -9.796600 -29.530500 -5.469000
C -9.583300 -32.601200 -7.151200
H -9.357500 -31.447100 -8.902400
N -9.196600 -31.663500 -6.103400
H -8.812200 -33.141900 -7.456400
H -8.638400 -31.842800 -5.447500
32
Fragment
H -12.131500 -32.375000 -14.883200
O -11.958000 -34.498300 -16.249500
H -11.940200 -35.330700 -16.364100
H -11.495900 -30.601900 -13.165200
C -11.204000 -34.184000 -15.231300
C -11.197400 -32.702300 -14.914500
H -10.958700 -32.889200 -12.867200
H -10.733000 -32.218500 -15.642900
O -10.572100 -35.000100 -14.584300
C -10.553800 -30.892600 -13.252900
C -10.514700 -32.381000 -13.592000
H -10.264800 -31.062500 -11.214500
H -10.142300 -30.378400 -13.991100
O -10.101000 -28.245400 -12.382200
C -9.813200 -30.591900 -11.958100
C -9.745000 -29.129600 -11.635100
H -9.571500 -32.676800 -13.634900
O -9.227000 -28.899800 -10.435100
H -9.176000 -28.071000 -10.305400
H -8.892100 -30.948500 -12.026100
H -11.004900 -29.855200 -7.752500
H -10.854600 -32.028400 -8.735000
N -10.446700 -30.478500 -7.477800
H -10.305500 -33.206700 -6.845200
C -10.076100 -31.652100 -8.253600
C -9.823200 -30.471600 -6.289500
O -9.796600 -29.530500 -5.469000
C -9.583300 -32.601200 -7.151200
H -9.357500 -31.447100 -8.902400
N -9.196600 -31.663500 -6.103400
H -8.812200 -33.141900 -7.456400
H -8.638400 -31.842800 -5.447500
