12
Fragment
H -12.320200 -14.003800 -18.764100
H -11.497100 -16.024800 -19.342600
C -11.368000 -14.105700 -18.516200
H -11.285800 -14.086700 -17.529300
C -10.785300 -15.385100 -19.088800
N -10.555100 -13.078400 -19.128900
H -10.503900 -12.247100 -18.846800
H -10.168000 -15.819800 -18.448900
N -10.082900 -14.892100 -20.244500
C -9.893100 -13.564600 -20.178400
H -9.812800 -15.398500 -20.911500
O -9.237100 -12.894700 -21.001200
12
Fragment
H -16.500600 -17.039800 -19.267000
H -15.607700 -16.960200 -17.922400
C -15.578500 -17.051000 -18.908100
H -15.432400 -19.065300 -19.550300
C -14.814500 -18.321400 -19.340200
N -14.749200 -16.021400 -19.519600
H -14.714700 -15.183400 -19.255200
H -14.171200 -18.613800 -18.647200
N -14.131500 -17.832900 -20.537200
C -14.043800 -16.533400 -20.545500
H -13.818100 -18.353900 -21.173500
O -13.392100 -15.814200 -21.367100
24
Fragment
H -12.320200 -14.003800 -18.764100
H -11.497100 -16.024800 -19.342600
C -11.368000 -14.105700 -18.516200
H -11.285800 -14.086700 -17.529300
C -10.785300 -15.385100 -19.088800
N -10.555100 -13.078400 -19.128900
H -10.503900 -12.247100 -18.846800
H -10.168000 -15.819800 -18.448900
N -10.082900 -14.892100 -20.244500
C -9.893100 -13.564600 -20.178400
H -9.812800 -15.398500 -20.911500
O -9.237100 -12.894700 -21.001200
H -16.500600 -17.039800 -19.267000
H -15.607700 -16.960200 -17.922400
C -15.578500 -17.051000 -18.908100
H -15.432400 -19.065300 -19.550300
C -14.814500 -18.321400 -19.340200
N -14.749200 -16.021400 -19.519600
H -14.714700 -15.183400 -19.255200
H -14.171200 -18.613800 -18.647200
N -14.131500 -17.832900 -20.537200
C -14.043800 -16.533400 -20.545500
H -13.818100 -18.353900 -21.173500
O -13.392100 -15.814200 -21.367100
