14
Fragment
H -9.216900 -10.273000 -16.926700
O -8.680300 -10.447800 -17.548700
O -7.886300 -8.429200 -17.031100
C -7.829700 -9.461500 -17.682300
H -7.236500 -10.002200 -19.568400
C -6.786500 -9.742900 -18.725800
H -6.435100 -7.796000 -19.291800
H -6.234300 -10.509600 -18.429300
C -5.882900 -8.562600 -18.995300
H -5.432900 -8.303300 -18.152600
C -4.839700 -8.844100 -20.038800
O -4.783100 -9.876300 -20.690000
O -3.989100 -7.857700 -20.172400
H -3.452500 -8.032600 -20.794400
12
Fragment
H -2.883000 -10.600600 -21.711000
H -2.529200 -11.360300 -24.139000
N -2.338100 -10.366700 -22.361400
O -2.137800 -8.099800 -21.897000
C -1.862000 -11.265500 -23.413700
C -1.824800 -9.130100 -22.526800
H -1.640400 -12.160600 -23.053900
N -0.901800 -9.153700 -23.518700
C -0.604900 -10.527200 -23.898800
H -0.535100 -8.440900 -23.881200
H -0.490200 -10.614300 -24.878300
H 0.208400 -10.860600 -23.443700
26
Fragment
H -9.216900 -10.273000 -16.926700
O -8.680300 -10.447800 -17.548700
O -7.886300 -8.429200 -17.031100
C -7.829700 -9.461500 -17.682300
H -7.236500 -10.002200 -19.568400
C -6.786500 -9.742900 -18.725800
H -6.435100 -7.796000 -19.291800
H -6.234300 -10.509600 -18.429300
C -5.882900 -8.562600 -18.995300
H -5.432900 -8.303300 -18.152600
C -4.839700 -8.844100 -20.038800
O -4.783100 -9.876300 -20.690000
O -3.989100 -7.857700 -20.172400
H -3.452500 -8.032600 -20.794400
H -2.883000 -10.600600 -21.711000
H -2.529200 -11.360300 -24.139000
N -2.338100 -10.366700 -22.361400
O -2.137800 -8.099800 -21.897000
C -1.862000 -11.265500 -23.413700
C -1.824800 -9.130100 -22.526800
H -1.640400 -12.160600 -23.053900
N -0.901800 -9.153700 -23.518700
C -0.604900 -10.527200 -23.898800
H -0.535100 -8.440900 -23.881200
H -0.490200 -10.614300 -24.878300
H 0.208400 -10.860600 -23.443700
