20
Fragment
H -12.131500 -32.375000 -14.883200
O -11.958000 -34.498300 -16.249500
H -11.940200 -35.330700 -16.364100
H -11.495900 -30.601900 -13.165200
C -11.204000 -34.184000 -15.231300
C -11.197400 -32.702300 -14.914500
H -10.958700 -32.889200 -12.867200
H -10.733000 -32.218500 -15.642900
O -10.572100 -35.000100 -14.584300
C -10.553800 -30.892600 -13.252900
C -10.514700 -32.381000 -13.592000
H -10.264800 -31.062500 -11.214500
H -10.142300 -30.378400 -13.991100
O -10.101000 -28.245400 -12.382200
C -9.813200 -30.591900 -11.958100
C -9.745000 -29.129600 -11.635100
H -9.571500 -32.676800 -13.634900
O -9.227000 -28.899800 -10.435100
H -9.176000 -28.071000 -10.305400
H -8.892100 -30.948500 -12.026100
20
Fragment
H -11.071500 -23.521000 -19.357200
O -10.898000 -21.397700 -20.723500
H -10.880200 -20.565300 -20.838100
H -10.435900 -25.294100 -17.639200
C -10.144000 -21.712000 -19.705300
C -10.137400 -23.193700 -19.388500
H -9.898700 -23.006800 -17.341200
H -9.673000 -23.677500 -20.116900
O -9.512100 -20.895900 -19.058300
C -9.493800 -25.003400 -17.726900
C -9.454700 -23.515000 -18.066000
H -9.204800 -24.833500 -15.688500
H -9.082300 -25.517600 -18.465100
O -9.041000 -27.650600 -16.856200
C -8.753200 -25.304100 -16.432100
C -8.685000 -26.766400 -16.109100
H -8.511500 -23.219200 -18.108900
O -8.167000 -26.996200 -14.909100
H -8.116000 -27.825000 -14.779400
H -7.832100 -24.947500 -16.500100
40
Fragment
H -12.131500 -32.375000 -14.883200
O -11.958000 -34.498300 -16.249500
H -11.940200 -35.330700 -16.364100
H -11.495900 -30.601900 -13.165200
C -11.204000 -34.184000 -15.231300
C -11.197400 -32.702300 -14.914500
H -10.958700 -32.889200 -12.867200
H -10.733000 -32.218500 -15.642900
O -10.572100 -35.000100 -14.584300
C -10.553800 -30.892600 -13.252900
C -10.514700 -32.381000 -13.592000
H -10.264800 -31.062500 -11.214500
H -10.142300 -30.378400 -13.991100
O -10.101000 -28.245400 -12.382200
C -9.813200 -30.591900 -11.958100
C -9.745000 -29.129600 -11.635100
H -9.571500 -32.676800 -13.634900
O -9.227000 -28.899800 -10.435100
H -9.176000 -28.071000 -10.305400
H -8.892100 -30.948500 -12.026100
H -11.071500 -23.521000 -19.357200
O -10.898000 -21.397700 -20.723500
H -10.880200 -20.565300 -20.838100
H -10.435900 -25.294100 -17.639200
C -10.144000 -21.712000 -19.705300
C -10.137400 -23.193700 -19.388500
H -9.898700 -23.006800 -17.341200
H -9.673000 -23.677500 -20.116900
O -9.512100 -20.895900 -19.058300
C -9.493800 -25.003400 -17.726900
C -9.454700 -23.515000 -18.066000
H -9.204800 -24.833500 -15.688500
H -9.082300 -25.517600 -18.465100
O -9.041000 -27.650600 -16.856200
C -8.753200 -25.304100 -16.432100
C -8.685000 -26.766400 -16.109100
H -8.511500 -23.219200 -18.108900
O -8.167000 -26.996200 -14.909100
H -8.116000 -27.825000 -14.779400
H -7.832100 -24.947500 -16.500100
