20
Fragment
H -12.131500 -32.375000 -14.883200
O -11.958000 -34.498300 -16.249500
H -11.940200 -35.330700 -16.364100
H -11.495900 -30.601900 -13.165200
C -11.204000 -34.184000 -15.231300
C -11.197400 -32.702300 -14.914500
H -10.958700 -32.889200 -12.867200
H -10.733000 -32.218500 -15.642900
O -10.572100 -35.000100 -14.584300
C -10.553800 -30.892600 -13.252900
C -10.514700 -32.381000 -13.592000
H -10.264800 -31.062500 -11.214500
H -10.142300 -30.378400 -13.991100
O -10.101000 -28.245400 -12.382200
C -9.813200 -30.591900 -11.958100
C -9.745000 -29.129600 -11.635100
H -9.571500 -32.676800 -13.634900
O -9.227000 -28.899800 -10.435100
H -9.176000 -28.071000 -10.305400
H -8.892100 -30.948500 -12.026100
12
Fragment
H -9.944900 -26.040800 -12.226500
H -9.794600 -23.867600 -13.209000
N -9.386700 -25.417500 -11.951800
H -9.245500 -22.689300 -11.319200
C -9.016100 -24.243900 -12.727600
C -8.763200 -25.424400 -10.763500
O -8.736600 -26.365500 -9.943000
C -8.523300 -23.294800 -11.625200
H -8.297500 -24.448900 -13.376300
N -8.136600 -24.232500 -10.577400
H -7.752200 -22.754100 -11.930400
H -7.578400 -24.053200 -9.921500
32
Fragment
H -12.131500 -32.375000 -14.883200
O -11.958000 -34.498300 -16.249500
H -11.940200 -35.330700 -16.364100
H -11.495900 -30.601900 -13.165200
C -11.204000 -34.184000 -15.231300
C -11.197400 -32.702300 -14.914500
H -10.958700 -32.889200 -12.867200
H -10.733000 -32.218500 -15.642900
O -10.572100 -35.000100 -14.584300
C -10.553800 -30.892600 -13.252900
C -10.514700 -32.381000 -13.592000
H -10.264800 -31.062500 -11.214500
H -10.142300 -30.378400 -13.991100
O -10.101000 -28.245400 -12.382200
C -9.813200 -30.591900 -11.958100
C -9.745000 -29.129600 -11.635100
H -9.571500 -32.676800 -13.634900
O -9.227000 -28.899800 -10.435100
H -9.176000 -28.071000 -10.305400
H -8.892100 -30.948500 -12.026100
H -9.944900 -26.040800 -12.226500
H -9.794600 -23.867600 -13.209000
N -9.386700 -25.417500 -11.951800
H -9.245500 -22.689300 -11.319200
C -9.016100 -24.243900 -12.727600
C -8.763200 -25.424400 -10.763500
O -8.736600 -26.365500 -9.943000
C -8.523300 -23.294800 -11.625200
H -8.297500 -24.448900 -13.376300
N -8.136600 -24.232500 -10.577400
H -7.752200 -22.754100 -11.930400
H -7.578400 -24.053200 -9.921500
