12
Fragment
H -22.422900 -24.822200 -8.085900
H -21.698500 -22.542400 -7.829100
H -21.674700 -22.799400 -9.422700
N -21.632000 -24.519800 -8.327700
C -21.326700 -23.110400 -8.550400
O -20.553400 -26.546100 -8.538800
C -20.553400 -25.302900 -8.538800
C -19.780200 -23.110400 -8.527200
N -19.474900 -24.519800 -8.749900
H -19.432100 -22.799400 -7.654900
H -19.408400 -22.542400 -9.248500
H -18.683900 -24.822200 -8.991700
12
Fragment
H -24.060300 -29.542000 -12.035600
N -23.227100 -29.363400 -11.815600
H -23.044300 -27.623200 -10.767100
H -22.940200 -27.419600 -12.364900
C -22.704200 -28.015500 -11.610000
O -22.455800 -31.541300 -11.666700
C -22.276800 -30.302700 -11.626400
C -21.184100 -28.258600 -11.541700
N -21.093900 -29.707900 -11.383200
H -20.780100 -27.787800 -10.769100
H -20.736400 -27.961000 -12.372400
H -20.360200 -30.136900 -11.157100
24
Fragment
H -22.422900 -24.822200 -8.085900
H -21.698500 -22.542400 -7.829100
H -21.674700 -22.799400 -9.422700
N -21.632000 -24.519800 -8.327700
C -21.326700 -23.110400 -8.550400
O -20.553400 -26.546100 -8.538800
C -20.553400 -25.302900 -8.538800
C -19.780200 -23.110400 -8.527200
N -19.474900 -24.519800 -8.749900
H -19.432100 -22.799400 -7.654900
H -19.408400 -22.542400 -9.248500
H -18.683900 -24.822200 -8.991700
H -24.060300 -29.542000 -12.035600
N -23.227100 -29.363400 -11.815600
H -23.044300 -27.623200 -10.767100
H -22.940200 -27.419600 -12.364900
C -22.704200 -28.015500 -11.610000
O -22.455800 -31.541300 -11.666700
C -22.276800 -30.302700 -11.626400
C -21.184100 -28.258600 -11.541700
N -21.093900 -29.707900 -11.383200
H -20.780100 -27.787800 -10.769100
H -20.736400 -27.961000 -12.372400
H -20.360200 -30.136900 -11.157100
