12
Fragment
H -12.320200 -14.003800 -18.764100
H -11.497100 -16.024800 -19.342600
C -11.368000 -14.105700 -18.516200
H -11.285800 -14.086700 -17.529300
C -10.785300 -15.385100 -19.088800
N -10.555100 -13.078400 -19.128900
H -10.503900 -12.247100 -18.846800
H -10.168000 -15.819800 -18.448900
N -10.082900 -14.892100 -20.244500
C -9.893100 -13.564600 -20.178400
H -9.812800 -15.398500 -20.911500
O -9.237100 -12.894700 -21.001200
8
Fragment
O -17.405200 -12.144100 -16.292100
H -17.279100 -14.400300 -16.131600
O -16.797500 -14.208800 -16.792700
C -16.770500 -12.921500 -16.947300
C -15.857000 -12.468900 -18.077100
O -15.819000 -11.178400 -18.215200
H -15.266700 -10.976700 -18.814900
O -15.252900 -13.277800 -18.764100
20
Fragment
H -12.320200 -14.003800 -18.764100
H -11.497100 -16.024800 -19.342600
C -11.368000 -14.105700 -18.516200
H -11.285800 -14.086700 -17.529300
C -10.785300 -15.385100 -19.088800
N -10.555100 -13.078400 -19.128900
H -10.503900 -12.247100 -18.846800
H -10.168000 -15.819800 -18.448900
N -10.082900 -14.892100 -20.244500
C -9.893100 -13.564600 -20.178400
H -9.812800 -15.398500 -20.911500
O -9.237100 -12.894700 -21.001200
O -17.405200 -12.144100 -16.292100
H -17.279100 -14.400300 -16.131600
O -16.797500 -14.208800 -16.792700
C -16.770500 -12.921500 -16.947300
C -15.857000 -12.468900 -18.077100
O -15.819000 -11.178400 -18.215200
H -15.266700 -10.976700 -18.814900
O -15.252900 -13.277800 -18.764100
