20
Fragment
H -12.131500 -32.375000 -14.883200
O -11.958000 -34.498300 -16.249500
H -11.940200 -35.330700 -16.364100
H -11.495900 -30.601900 -13.165200
C -11.204000 -34.184000 -15.231300
C -11.197400 -32.702300 -14.914500
H -10.958700 -32.889200 -12.867200
H -10.733000 -32.218500 -15.642900
O -10.572100 -35.000100 -14.584300
C -10.553800 -30.892600 -13.252900
C -10.514700 -32.381000 -13.592000
H -10.264800 -31.062500 -11.214500
H -10.142300 -30.378400 -13.991100
O -10.101000 -28.245400 -12.382200
C -9.813200 -30.591900 -11.958100
C -9.745000 -29.129600 -11.635100
H -9.571500 -32.676800 -13.634900
O -9.227000 -28.899800 -10.435100
H -9.176000 -28.071000 -10.305400
H -8.892100 -30.948500 -12.026100
12
Fragment
H -13.931200 -28.229700 -16.559100
C -12.967100 -28.080800 -16.726500
H -12.771800 -28.249800 -17.682100
H -12.717200 -26.018500 -16.808800
H -12.616200 -29.714300 -15.435300
N -12.562900 -26.742200 -16.333700
C -12.097200 -28.960600 -15.812900
C -11.923300 -26.752000 -15.154300
N -11.704800 -28.015700 -14.779400
O -11.565300 -25.749300 -14.481400
H -11.364600 -28.247600 -14.001800
H -11.309700 -29.316300 -16.296100
32
Fragment
H -12.131500 -32.375000 -14.883200
O -11.958000 -34.498300 -16.249500
H -11.940200 -35.330700 -16.364100
H -11.495900 -30.601900 -13.165200
C -11.204000 -34.184000 -15.231300
C -11.197400 -32.702300 -14.914500
H -10.958700 -32.889200 -12.867200
H -10.733000 -32.218500 -15.642900
O -10.572100 -35.000100 -14.584300
C -10.553800 -30.892600 -13.252900
C -10.514700 -32.381000 -13.592000
H -10.264800 -31.062500 -11.214500
H -10.142300 -30.378400 -13.991100
O -10.101000 -28.245400 -12.382200
C -9.813200 -30.591900 -11.958100
C -9.745000 -29.129600 -11.635100
H -9.571500 -32.676800 -13.634900
O -9.227000 -28.899800 -10.435100
H -9.176000 -28.071000 -10.305400
H -8.892100 -30.948500 -12.026100
H -13.931200 -28.229700 -16.559100
C -12.967100 -28.080800 -16.726500
H -12.771800 -28.249800 -17.682100
H -12.717200 -26.018500 -16.808800
H -12.616200 -29.714300 -15.435300
N -12.562900 -26.742200 -16.333700
C -12.097200 -28.960600 -15.812900
C -11.923300 -26.752000 -15.154300
N -11.704800 -28.015700 -14.779400
O -11.565300 -25.749300 -14.481400
H -11.364600 -28.247600 -14.001800
H -11.309700 -29.316300 -16.296100
