20
Fragment
O -12.724900 -14.744700 -12.898600
N -12.486600 -13.918800 -14.010700
H -12.139800 -11.378800 -18.527600
H -11.623000 -10.103600 -19.136700
N -11.554500 -10.724900 -18.492900
N -11.505500 -15.143100 -12.334800
N -11.195000 -12.397600 -15.998000
C -11.191200 -13.809900 -14.087700
H -11.158400 -12.885900 -16.793300
C -11.126000 -10.274200 -17.286500
C -10.895700 -11.061200 -16.111400
N -10.774100 -9.049100 -17.036900
C -10.580100 -14.587000 -13.052200
N -10.512000 -13.096500 -14.998000
N -10.390700 -10.320300 -15.163000
O -10.298400 -9.035200 -15.718400
H -9.689900 -13.033200 -15.008200
N -9.234100 -14.680800 -12.833900
H -9.019300 -15.117700 -12.089500
H -8.809100 -14.571500 -13.460000
20
Fragment
O -12.811100 -8.310200 -21.358700
N -12.572800 -7.484400 -22.470800
H -12.226000 -4.944400 -26.987700
H -11.709200 -3.669200 -27.596800
N -11.640700 -4.290400 -26.953000
N -11.591800 -8.708700 -20.794900
N -11.281200 -5.963100 -24.458100
C -11.277400 -7.375400 -22.547800
H -11.244600 -6.451400 -25.253300
C -11.212200 -3.839700 -25.746600
C -10.981900 -4.626700 -24.571500
N -10.860300 -2.614700 -25.497000
C -10.666300 -8.152500 -21.512300
N -10.598200 -6.662000 -23.458100
N -10.477000 -3.885800 -23.623100
O -10.384600 -2.600700 -24.178500
H -9.776100 -6.598700 -23.468300
N -9.320300 -8.246300 -21.294000
H -9.105500 -8.683300 -20.549500
H -8.895300 -8.137100 -21.920100
40
Fragment
O -12.724900 -14.744700 -12.898600
N -12.486600 -13.918800 -14.010700
H -12.139800 -11.378800 -18.527600
H -11.623000 -10.103600 -19.136700
N -11.554500 -10.724900 -18.492900
N -11.505500 -15.143100 -12.334800
N -11.195000 -12.397600 -15.998000
C -11.191200 -13.809900 -14.087700
H -11.158400 -12.885900 -16.793300
C -11.126000 -10.274200 -17.286500
C -10.895700 -11.061200 -16.111400
N -10.774100 -9.049100 -17.036900
C -10.580100 -14.587000 -13.052200
N -10.512000 -13.096500 -14.998000
N -10.390700 -10.320300 -15.163000
O -10.298400 -9.035200 -15.718400
H -9.689900 -13.033200 -15.008200
N -9.234100 -14.680800 -12.833900
H -9.019300 -15.117700 -12.089500
H -8.809100 -14.571500 -13.460000
O -12.811100 -8.310200 -21.358700
N -12.572800 -7.484400 -22.470800
H -12.226000 -4.944400 -26.987700
H -11.709200 -3.669200 -27.596800
N -11.640700 -4.290400 -26.953000
N -11.591800 -8.708700 -20.794900
N -11.281200 -5.963100 -24.458100
C -11.277400 -7.375400 -22.547800
H -11.244600 -6.451400 -25.253300
C -11.212200 -3.839700 -25.746600
C -10.981900 -4.626700 -24.571500
N -10.860300 -2.614700 -25.497000
C -10.666300 -8.152500 -21.512300
N -10.598200 -6.662000 -23.458100
N -10.477000 -3.885800 -23.623100
O -10.384600 -2.600700 -24.178500
H -9.776100 -6.598700 -23.468300
N -9.320300 -8.246300 -21.294000
H -9.105500 -8.683300 -20.549500
H -8.895300 -8.137100 -21.920100
