20
Fragment
O -12.724900 -14.744700 -12.898600
N -12.486600 -13.918800 -14.010700
H -12.139800 -11.378800 -18.527600
H -11.623000 -10.103600 -19.136700
N -11.554500 -10.724900 -18.492900
N -11.505500 -15.143100 -12.334800
N -11.195000 -12.397600 -15.998000
C -11.191200 -13.809900 -14.087700
H -11.158400 -12.885900 -16.793300
C -11.126000 -10.274200 -17.286500
C -10.895700 -11.061200 -16.111400
N -10.774100 -9.049100 -17.036900
C -10.580100 -14.587000 -13.052200
N -10.512000 -13.096500 -14.998000
N -10.390700 -10.320300 -15.163000
O -10.298400 -9.035200 -15.718400
H -9.689900 -13.033200 -15.008200
N -9.234100 -14.680800 -12.833900
H -9.019300 -15.117700 -12.089500
H -8.809100 -14.571500 -13.460000
20
Fragment
H -10.148400 -12.315300 -20.380300
H -9.938300 -11.769000 -21.750900
N -9.723400 -12.206000 -21.006400
H -9.267600 -13.853600 -18.832100
O -8.659100 -17.851600 -18.121900
N -8.566800 -16.566500 -18.677300
N -8.445600 -13.790300 -18.842300
C -8.377400 -12.299800 -20.788100
N -8.183500 -17.837600 -16.803400
C -8.061900 -15.825600 -17.728900
C -7.831600 -16.612600 -16.553800
H -7.799100 -14.000900 -17.047100
C -7.766400 -13.076900 -19.752600
N -7.762500 -14.489200 -17.842300
N -7.452000 -11.743600 -21.505500
N -7.403000 -16.161900 -15.347400
H -7.334600 -16.783100 -14.703600
H -6.817800 -15.507900 -15.312700
N -6.470900 -12.967900 -19.829600
O -6.232700 -12.142100 -20.941700
40
Fragment
O -12.724900 -14.744700 -12.898600
N -12.486600 -13.918800 -14.010700
H -12.139800 -11.378800 -18.527600
H -11.623000 -10.103600 -19.136700
N -11.554500 -10.724900 -18.492900
N -11.505500 -15.143100 -12.334800
N -11.195000 -12.397600 -15.998000
C -11.191200 -13.809900 -14.087700
H -11.158400 -12.885900 -16.793300
C -11.126000 -10.274200 -17.286500
C -10.895700 -11.061200 -16.111400
N -10.774100 -9.049100 -17.036900
C -10.580100 -14.587000 -13.052200
N -10.512000 -13.096500 -14.998000
N -10.390700 -10.320300 -15.163000
O -10.298400 -9.035200 -15.718400
H -9.689900 -13.033200 -15.008200
N -9.234100 -14.680800 -12.833900
H -9.019300 -15.117700 -12.089500
H -8.809100 -14.571500 -13.460000
H -10.148400 -12.315300 -20.380300
H -9.938300 -11.769000 -21.750900
N -9.723400 -12.206000 -21.006400
H -9.267600 -13.853600 -18.832100
O -8.659100 -17.851600 -18.121900
N -8.566800 -16.566500 -18.677300
N -8.445600 -13.790300 -18.842300
C -8.377400 -12.299800 -20.788100
N -8.183500 -17.837600 -16.803400
C -8.061900 -15.825600 -17.728900
C -7.831600 -16.612600 -16.553800
H -7.799100 -14.000900 -17.047100
C -7.766400 -13.076900 -19.752600
N -7.762500 -14.489200 -17.842300
N -7.452000 -11.743600 -21.505500
N -7.403000 -16.161900 -15.347400
H -7.334600 -16.783100 -14.703600
H -6.817800 -15.507900 -15.312700
N -6.470900 -12.967900 -19.829600
O -6.232700 -12.142100 -20.941700
