20
Fragment
O -12.724900 -14.744700 -12.898600
N -12.486600 -13.918800 -14.010700
H -12.139800 -11.378800 -18.527600
H -11.623000 -10.103600 -19.136700
N -11.554500 -10.724900 -18.492900
N -11.505500 -15.143100 -12.334800
N -11.195000 -12.397600 -15.998000
C -11.191200 -13.809900 -14.087700
H -11.158400 -12.885900 -16.793300
C -11.126000 -10.274200 -17.286500
C -10.895700 -11.061200 -16.111400
N -10.774100 -9.049100 -17.036900
C -10.580100 -14.587000 -13.052200
N -10.512000 -13.096500 -14.998000
N -10.390700 -10.320300 -15.163000
O -10.298400 -9.035200 -15.718400
H -9.689900 -13.033200 -15.008200
N -9.234100 -14.680800 -12.833900
H -9.019300 -15.117700 -12.089500
H -8.809100 -14.571500 -13.460000
20
Fragment
O -12.039400 -7.226900 -12.898600
N -11.801100 -6.401000 -14.010700
H -11.454300 -3.861000 -18.527600
H -10.937500 -2.585800 -19.136700
N -10.869000 -3.207100 -18.492900
N -10.820100 -7.625300 -12.334800
N -10.509500 -4.879800 -15.998000
C -10.505700 -6.292100 -14.087700
H -10.472900 -5.368000 -16.793300
C -10.440500 -2.756400 -17.286500
C -10.210200 -3.543400 -16.111400
N -10.088600 -1.531300 -17.036900
C -9.894600 -7.069200 -13.052200
N -9.826500 -5.578700 -14.998000
N -9.705300 -2.802500 -15.163000
O -9.612900 -1.517400 -15.718400
H -9.004400 -5.515400 -15.008200
N -8.548600 -7.163000 -12.833900
H -8.333800 -7.599900 -12.089500
H -8.123600 -7.053700 -13.460000
40
Fragment
O -12.724900 -14.744700 -12.898600
N -12.486600 -13.918800 -14.010700
H -12.139800 -11.378800 -18.527600
H -11.623000 -10.103600 -19.136700
N -11.554500 -10.724900 -18.492900
N -11.505500 -15.143100 -12.334800
N -11.195000 -12.397600 -15.998000
C -11.191200 -13.809900 -14.087700
H -11.158400 -12.885900 -16.793300
C -11.126000 -10.274200 -17.286500
C -10.895700 -11.061200 -16.111400
N -10.774100 -9.049100 -17.036900
C -10.580100 -14.587000 -13.052200
N -10.512000 -13.096500 -14.998000
N -10.390700 -10.320300 -15.163000
O -10.298400 -9.035200 -15.718400
H -9.689900 -13.033200 -15.008200
N -9.234100 -14.680800 -12.833900
H -9.019300 -15.117700 -12.089500
H -8.809100 -14.571500 -13.460000
O -12.039400 -7.226900 -12.898600
N -11.801100 -6.401000 -14.010700
H -11.454300 -3.861000 -18.527600
H -10.937500 -2.585800 -19.136700
N -10.869000 -3.207100 -18.492900
N -10.820100 -7.625300 -12.334800
N -10.509500 -4.879800 -15.998000
C -10.505700 -6.292100 -14.087700
H -10.472900 -5.368000 -16.793300
C -10.440500 -2.756400 -17.286500
C -10.210200 -3.543400 -16.111400
N -10.088600 -1.531300 -17.036900
C -9.894600 -7.069200 -13.052200
N -9.826500 -5.578700 -14.998000
N -9.705300 -2.802500 -15.163000
O -9.612900 -1.517400 -15.718400
H -9.004400 -5.515400 -15.008200
N -8.548600 -7.163000 -12.833900
H -8.333800 -7.599900 -12.089500
H -8.123600 -7.053700 -13.460000
