20
Fragment
O -12.724900 -14.744700 -12.898600
N -12.486600 -13.918800 -14.010700
H -12.139800 -11.378800 -18.527600
H -11.623000 -10.103600 -19.136700
N -11.554500 -10.724900 -18.492900
N -11.505500 -15.143100 -12.334800
N -11.195000 -12.397600 -15.998000
C -11.191200 -13.809900 -14.087700
H -11.158400 -12.885900 -16.793300
C -11.126000 -10.274200 -17.286500
C -10.895700 -11.061200 -16.111400
N -10.774100 -9.049100 -17.036900
C -10.580100 -14.587000 -13.052200
N -10.512000 -13.096500 -14.998000
N -10.390700 -10.320300 -15.163000
O -10.298400 -9.035200 -15.718400
H -9.689900 -13.033200 -15.008200
N -9.234100 -14.680800 -12.833900
H -9.019300 -15.117700 -12.089500
H -8.809100 -14.571500 -13.460000
20
Fragment
O -12.638700 -21.179200 -4.438500
N -12.400400 -20.353300 -5.550700
H -12.053600 -17.813300 -10.067500
H -11.536800 -16.538100 -10.676600
N -11.468300 -17.159300 -10.032800
N -11.419300 -21.577600 -3.874700
N -11.108800 -18.832100 -7.537900
C -11.105000 -20.244400 -5.627600
H -11.072200 -19.320300 -8.333200
C -11.039800 -16.708700 -8.826400
C -10.809500 -17.495700 -7.651300
N -10.687900 -15.483600 -8.576800
C -10.493900 -21.021400 -4.592100
N -10.425800 -19.531000 -6.537900
N -10.304500 -16.754700 -6.702900
O -10.212200 -15.469600 -7.258300
H -9.603700 -19.467600 -6.548100
N -9.147900 -21.115300 -4.373900
H -8.933100 -21.552200 -3.629400
H -8.722900 -21.006000 -4.999900
40
Fragment
O -12.724900 -14.744700 -12.898600
N -12.486600 -13.918800 -14.010700
H -12.139800 -11.378800 -18.527600
H -11.623000 -10.103600 -19.136700
N -11.554500 -10.724900 -18.492900
N -11.505500 -15.143100 -12.334800
N -11.195000 -12.397600 -15.998000
C -11.191200 -13.809900 -14.087700
H -11.158400 -12.885900 -16.793300
C -11.126000 -10.274200 -17.286500
C -10.895700 -11.061200 -16.111400
N -10.774100 -9.049100 -17.036900
C -10.580100 -14.587000 -13.052200
N -10.512000 -13.096500 -14.998000
N -10.390700 -10.320300 -15.163000
O -10.298400 -9.035200 -15.718400
H -9.689900 -13.033200 -15.008200
N -9.234100 -14.680800 -12.833900
H -9.019300 -15.117700 -12.089500
H -8.809100 -14.571500 -13.460000
O -12.638700 -21.179200 -4.438500
N -12.400400 -20.353300 -5.550700
H -12.053600 -17.813300 -10.067500
H -11.536800 -16.538100 -10.676600
N -11.468300 -17.159300 -10.032800
N -11.419300 -21.577600 -3.874700
N -11.108800 -18.832100 -7.537900
C -11.105000 -20.244400 -5.627600
H -11.072200 -19.320300 -8.333200
C -11.039800 -16.708700 -8.826400
C -10.809500 -17.495700 -7.651300
N -10.687900 -15.483600 -8.576800
C -10.493900 -21.021400 -4.592100
N -10.425800 -19.531000 -6.537900
N -10.304500 -16.754700 -6.702900
O -10.212200 -15.469600 -7.258300
H -9.603700 -19.467600 -6.548100
N -9.147900 -21.115300 -4.373900
H -8.933100 -21.552200 -3.629400
H -8.722900 -21.006000 -4.999900
