19
Fragment
H -21.716000 -10.622600 -16.629600
H -21.418700 -11.790200 -17.633500
C -21.049000 -11.240000 -16.938600
H -20.861300 -13.883400 -16.723000
H -20.642600 -16.081800 -14.168900
C -20.607000 -12.100000 -15.806500
C -20.591700 -13.480800 -15.929900
H -20.434700 -16.066400 -15.722700
H -20.296600 -10.752700 -17.282500
N -20.221700 -11.473800 -14.686000
C -20.176200 -14.240900 -14.879300
C -20.105200 -15.733400 -14.884100
C -19.799700 -12.239100 -13.665700
N -19.792900 -13.593600 -13.757600
H -19.484200 -14.025400 -13.057100
N -19.371800 -11.741100 -12.495200
C -19.366200 -10.427500 -12.370600
N -19.306700 -9.299000 -12.145400
H -19.194100 -16.011100 -14.765500
19
Fragment
H -19.013500 -10.848500 -9.194700
N -18.900800 -17.560600 -11.814800
C -18.841300 -16.432100 -11.589500
N -18.835800 -15.118500 -11.464900
H -18.723400 -12.834200 -10.903100
N -18.414700 -13.266000 -10.202600
C -18.407900 -14.620500 -10.294500
C -18.102400 -11.126200 -9.076100
C -18.031300 -12.618700 -9.080900
N -17.985800 -15.385800 -9.274100
H -17.910900 -16.106900 -6.677700
H -17.772900 -10.793200 -8.237500
C -17.615900 -13.378800 -8.030300
C -17.600600 -14.759600 -8.153600
H -17.565000 -10.777800 -9.791300
H -17.346300 -12.976200 -7.237200
C -17.158500 -15.619600 -7.021500
H -16.788900 -15.069400 -6.326700
H -16.491600 -16.237000 -7.330600
38
Fragment
H -21.716000 -10.622600 -16.629600
H -21.418700 -11.790200 -17.633500
C -21.049000 -11.240000 -16.938600
H -20.861300 -13.883400 -16.723000
H -20.642600 -16.081800 -14.168900
C -20.607000 -12.100000 -15.806500
C -20.591700 -13.480800 -15.929900
H -20.434700 -16.066400 -15.722700
H -20.296600 -10.752700 -17.282500
N -20.221700 -11.473800 -14.686000
C -20.176200 -14.240900 -14.879300
C -20.105200 -15.733400 -14.884100
C -19.799700 -12.239100 -13.665700
N -19.792900 -13.593600 -13.757600
H -19.484200 -14.025400 -13.057100
N -19.371800 -11.741100 -12.495200
C -19.366200 -10.427500 -12.370600
N -19.306700 -9.299000 -12.145400
H -19.194100 -16.011100 -14.765500
H -19.013500 -10.848500 -9.194700
N -18.900800 -17.560600 -11.814800
C -18.841300 -16.432100 -11.589500
N -18.835800 -15.118500 -11.464900
H -18.723400 -12.834200 -10.903100
N -18.414700 -13.266000 -10.202600
C -18.407900 -14.620500 -10.294500
C -18.102400 -11.126200 -9.076100
C -18.031300 -12.618700 -9.080900
N -17.985800 -15.385800 -9.274100
H -17.910900 -16.106900 -6.677700
H -17.772900 -10.793200 -8.237500
C -17.615900 -13.378800 -8.030300
C -17.600600 -14.759600 -8.153600
H -17.565000 -10.777800 -9.791300
H -17.346300 -12.976200 -7.237200
C -17.158500 -15.619600 -7.021500
H -16.788900 -15.069400 -6.326700
H -16.491600 -16.237000 -7.330600
