19
Fragment
H -21.716000 -10.622600 -16.629600
H -21.418700 -11.790200 -17.633500
C -21.049000 -11.240000 -16.938600
H -20.861300 -13.883400 -16.723000
H -20.642600 -16.081800 -14.168900
C -20.607000 -12.100000 -15.806500
C -20.591700 -13.480800 -15.929900
H -20.434700 -16.066400 -15.722700
H -20.296600 -10.752700 -17.282500
N -20.221700 -11.473800 -14.686000
C -20.176200 -14.240900 -14.879300
C -20.105200 -15.733400 -14.884100
C -19.799700 -12.239100 -13.665700
N -19.792900 -13.593600 -13.757600
H -19.484200 -14.025400 -13.057100
N -19.371800 -11.741100 -12.495200
C -19.366200 -10.427500 -12.370600
N -19.306700 -9.299000 -12.145400
H -19.194100 -16.011100 -14.765500
10
Fragment
H -18.871000 -6.079000 -10.961800
H -18.658400 -4.840400 -9.068900
H -18.644600 -7.580600 -10.901900
N -18.644600 -6.795400 -10.510100
H -18.571500 -5.531500 -7.739100
N -18.421100 -5.546700 -8.606500
C -18.410400 -6.740300 -9.210300
N -18.140000 -7.885300 -8.601700
C -17.797500 -7.905400 -7.337800
N -17.468500 -8.068100 -6.244000
29
Fragment
H -21.716000 -10.622600 -16.629600
H -21.418700 -11.790200 -17.633500
C -21.049000 -11.240000 -16.938600
H -20.861300 -13.883400 -16.723000
H -20.642600 -16.081800 -14.168900
C -20.607000 -12.100000 -15.806500
C -20.591700 -13.480800 -15.929900
H -20.434700 -16.066400 -15.722700
H -20.296600 -10.752700 -17.282500
N -20.221700 -11.473800 -14.686000
C -20.176200 -14.240900 -14.879300
C -20.105200 -15.733400 -14.884100
C -19.799700 -12.239100 -13.665700
N -19.792900 -13.593600 -13.757600
H -19.484200 -14.025400 -13.057100
N -19.371800 -11.741100 -12.495200
C -19.366200 -10.427500 -12.370600
N -19.306700 -9.299000 -12.145400
H -19.194100 -16.011100 -14.765500
H -18.871000 -6.079000 -10.961800
H -18.658400 -4.840400 -9.068900
H -18.644600 -7.580600 -10.901900
N -18.644600 -6.795400 -10.510100
H -18.571500 -5.531500 -7.739100
N -18.421100 -5.546700 -8.606500
C -18.410400 -6.740300 -9.210300
N -18.140000 -7.885300 -8.601700
C -17.797500 -7.905400 -7.337800
N -17.468500 -8.068100 -6.244000
