19
Fragment
H -21.716000 -10.622600 -16.629600
H -21.418700 -11.790200 -17.633500
C -21.049000 -11.240000 -16.938600
H -20.861300 -13.883400 -16.723000
H -20.642600 -16.081800 -14.168900
C -20.607000 -12.100000 -15.806500
C -20.591700 -13.480800 -15.929900
H -20.434700 -16.066400 -15.722700
H -20.296600 -10.752700 -17.282500
N -20.221700 -11.473800 -14.686000
C -20.176200 -14.240900 -14.879300
C -20.105200 -15.733400 -14.884100
C -19.799700 -12.239100 -13.665700
N -19.792900 -13.593600 -13.757600
H -19.484200 -14.025400 -13.057100
N -19.371800 -11.741100 -12.495200
C -19.366200 -10.427500 -12.370600
N -19.306700 -9.299000 -12.145400
H -19.194100 -16.011100 -14.765500
19
Fragment
H -24.860000 -17.214200 -16.629600
H -24.562800 -18.381800 -17.633500
C -24.193100 -17.831600 -16.938600
H -24.005300 -20.475000 -16.723000
H -23.786600 -22.673400 -14.168900
C -23.751000 -18.691500 -15.806500
C -23.735700 -20.072400 -15.929900
H -23.578700 -22.657900 -15.722700
H -23.440700 -17.344300 -17.282500
N -23.365800 -18.065300 -14.686000
C -23.320300 -20.832500 -14.879300
C -23.249200 -22.324900 -14.884100
C -22.943700 -18.830700 -13.665700
N -22.936900 -20.185200 -13.757600
H -22.628200 -20.617000 -13.057100
N -22.515800 -18.332700 -12.495200
C -22.510300 -17.019100 -12.370600
N -22.450800 -15.890500 -12.145400
H -22.338100 -22.602600 -14.765500
38
Fragment
H -21.716000 -10.622600 -16.629600
H -21.418700 -11.790200 -17.633500
C -21.049000 -11.240000 -16.938600
H -20.861300 -13.883400 -16.723000
H -20.642600 -16.081800 -14.168900
C -20.607000 -12.100000 -15.806500
C -20.591700 -13.480800 -15.929900
H -20.434700 -16.066400 -15.722700
H -20.296600 -10.752700 -17.282500
N -20.221700 -11.473800 -14.686000
C -20.176200 -14.240900 -14.879300
C -20.105200 -15.733400 -14.884100
C -19.799700 -12.239100 -13.665700
N -19.792900 -13.593600 -13.757600
H -19.484200 -14.025400 -13.057100
N -19.371800 -11.741100 -12.495200
C -19.366200 -10.427500 -12.370600
N -19.306700 -9.299000 -12.145400
H -19.194100 -16.011100 -14.765500
H -24.860000 -17.214200 -16.629600
H -24.562800 -18.381800 -17.633500
C -24.193100 -17.831600 -16.938600
H -24.005300 -20.475000 -16.723000
H -23.786600 -22.673400 -14.168900
C -23.751000 -18.691500 -15.806500
C -23.735700 -20.072400 -15.929900
H -23.578700 -22.657900 -15.722700
H -23.440700 -17.344300 -17.282500
N -23.365800 -18.065300 -14.686000
C -23.320300 -20.832500 -14.879300
C -23.249200 -22.324900 -14.884100
C -22.943700 -18.830700 -13.665700
N -22.936900 -20.185200 -13.757600
H -22.628200 -20.617000 -13.057100
N -22.515800 -18.332700 -12.495200
C -22.510300 -17.019100 -12.370600
N -22.450800 -15.890500 -12.145400
H -22.338100 -22.602600 -14.765500
