19
Fragment
H -21.716000 -10.622600 -16.629600
H -21.418700 -11.790200 -17.633500
C -21.049000 -11.240000 -16.938600
H -20.861300 -13.883400 -16.723000
H -20.642600 -16.081800 -14.168900
C -20.607000 -12.100000 -15.806500
C -20.591700 -13.480800 -15.929900
H -20.434700 -16.066400 -15.722700
H -20.296600 -10.752700 -17.282500
N -20.221700 -11.473800 -14.686000
C -20.176200 -14.240900 -14.879300
C -20.105200 -15.733400 -14.884100
C -19.799700 -12.239100 -13.665700
N -19.792900 -13.593600 -13.757600
H -19.484200 -14.025400 -13.057100
N -19.371800 -11.741100 -12.495200
C -19.366200 -10.427500 -12.370600
N -19.306700 -9.299000 -12.145400
H -19.194100 -16.011100 -14.765500
19
Fragment
H -15.869500 -4.257000 -9.194700
N -15.756800 -10.969100 -11.814800
C -15.697300 -9.840600 -11.589500
N -15.691800 -8.526900 -11.464900
H -15.579400 -6.242600 -10.903100
N -15.270700 -6.674400 -10.202600
C -15.263900 -8.028900 -10.294500
C -14.958300 -4.534700 -9.076100
C -14.887300 -6.027100 -9.080900
N -14.841800 -8.794300 -9.274100
H -14.766900 -9.515300 -6.677700
H -14.628900 -4.201700 -8.237500
C -14.471900 -6.787200 -8.030300
C -14.456600 -8.168100 -8.153600
H -14.420900 -4.186200 -9.791300
H -14.202300 -6.384600 -7.237200
C -14.014500 -9.028000 -7.021500
H -13.644800 -8.477800 -6.326700
H -13.347600 -9.645400 -7.330600
38
Fragment
H -21.716000 -10.622600 -16.629600
H -21.418700 -11.790200 -17.633500
C -21.049000 -11.240000 -16.938600
H -20.861300 -13.883400 -16.723000
H -20.642600 -16.081800 -14.168900
C -20.607000 -12.100000 -15.806500
C -20.591700 -13.480800 -15.929900
H -20.434700 -16.066400 -15.722700
H -20.296600 -10.752700 -17.282500
N -20.221700 -11.473800 -14.686000
C -20.176200 -14.240900 -14.879300
C -20.105200 -15.733400 -14.884100
C -19.799700 -12.239100 -13.665700
N -19.792900 -13.593600 -13.757600
H -19.484200 -14.025400 -13.057100
N -19.371800 -11.741100 -12.495200
C -19.366200 -10.427500 -12.370600
N -19.306700 -9.299000 -12.145400
H -19.194100 -16.011100 -14.765500
H -15.869500 -4.257000 -9.194700
N -15.756800 -10.969100 -11.814800
C -15.697300 -9.840600 -11.589500
N -15.691800 -8.526900 -11.464900
H -15.579400 -6.242600 -10.903100
N -15.270700 -6.674400 -10.202600
C -15.263900 -8.028900 -10.294500
C -14.958300 -4.534700 -9.076100
C -14.887300 -6.027100 -9.080900
N -14.841800 -8.794300 -9.274100
H -14.766900 -9.515300 -6.677700
H -14.628900 -4.201700 -8.237500
C -14.471900 -6.787200 -8.030300
C -14.456600 -8.168100 -8.153600
H -14.420900 -4.186200 -9.791300
H -14.202300 -6.384600 -7.237200
C -14.014500 -9.028000 -7.021500
H -13.644800 -8.477800 -6.326700
H -13.347600 -9.645400 -7.330600
