19
Fragment
H -21.716000 -10.622600 -16.629600
H -21.418700 -11.790200 -17.633500
C -21.049000 -11.240000 -16.938600
H -20.861300 -13.883400 -16.723000
H -20.642600 -16.081800 -14.168900
C -20.607000 -12.100000 -15.806500
C -20.591700 -13.480800 -15.929900
H -20.434700 -16.066400 -15.722700
H -20.296600 -10.752700 -17.282500
N -20.221700 -11.473800 -14.686000
C -20.176200 -14.240900 -14.879300
C -20.105200 -15.733400 -14.884100
C -19.799700 -12.239100 -13.665700
N -19.792900 -13.593600 -13.757600
H -19.484200 -14.025400 -13.057100
N -19.371800 -11.741100 -12.495200
C -19.366200 -10.427500 -12.370600
N -19.306700 -9.299000 -12.145400
H -19.194100 -16.011100 -14.765500
10
Fragment
N -21.569000 -5.608300 -17.716200
C -21.240000 -5.771000 -16.622400
N -20.897600 -5.791200 -15.358500
C -20.627100 -6.936100 -14.749900
N -20.616400 -8.129800 -15.353700
H -20.466000 -8.145000 -16.221000
N -20.392900 -6.881000 -13.450000
H -20.392900 -6.095800 -13.058300
H -20.379200 -8.836100 -14.891200
H -20.166600 -7.597400 -12.998400
29
Fragment
H -21.716000 -10.622600 -16.629600
H -21.418700 -11.790200 -17.633500
C -21.049000 -11.240000 -16.938600
H -20.861300 -13.883400 -16.723000
H -20.642600 -16.081800 -14.168900
C -20.607000 -12.100000 -15.806500
C -20.591700 -13.480800 -15.929900
H -20.434700 -16.066400 -15.722700
H -20.296600 -10.752700 -17.282500
N -20.221700 -11.473800 -14.686000
C -20.176200 -14.240900 -14.879300
C -20.105200 -15.733400 -14.884100
C -19.799700 -12.239100 -13.665700
N -19.792900 -13.593600 -13.757600
H -19.484200 -14.025400 -13.057100
N -19.371800 -11.741100 -12.495200
C -19.366200 -10.427500 -12.370600
N -19.306700 -9.299000 -12.145400
H -19.194100 -16.011100 -14.765500
N -21.569000 -5.608300 -17.716200
C -21.240000 -5.771000 -16.622400
N -20.897600 -5.791200 -15.358500
C -20.627100 -6.936100 -14.749900
N -20.616400 -8.129800 -15.353700
H -20.466000 -8.145000 -16.221000
N -20.392900 -6.881000 -13.450000
H -20.392900 -6.095800 -13.058300
H -20.379200 -8.836100 -14.891200
H -20.166600 -7.597400 -12.998400
