19
Fragment
H -21.716000 -10.622600 -16.629600
H -21.418700 -11.790200 -17.633500
C -21.049000 -11.240000 -16.938600
H -20.861300 -13.883400 -16.723000
H -20.642600 -16.081800 -14.168900
C -20.607000 -12.100000 -15.806500
C -20.591700 -13.480800 -15.929900
H -20.434700 -16.066400 -15.722700
H -20.296600 -10.752700 -17.282500
N -20.221700 -11.473800 -14.686000
C -20.176200 -14.240900 -14.879300
C -20.105200 -15.733400 -14.884100
C -19.799700 -12.239100 -13.665700
N -19.792900 -13.593600 -13.757600
H -19.484200 -14.025400 -13.057100
N -19.371800 -11.741100 -12.495200
C -19.366200 -10.427500 -12.370600
N -19.306700 -9.299000 -12.145400
H -19.194100 -16.011100 -14.765500
19
Fragment
H -25.690000 -4.031000 -16.629600
H -25.392700 -5.198600 -17.633500
C -25.023000 -4.648400 -16.938600
H -24.835300 -7.291800 -16.723000
H -24.616600 -9.490300 -14.168900
C -24.580900 -5.508400 -15.806500
C -24.565700 -6.889200 -15.929900
H -24.408700 -9.474800 -15.722700
H -24.270600 -4.161100 -17.282500
N -24.195700 -4.882200 -14.686000
C -24.150200 -7.649400 -14.879300
C -24.079200 -9.141800 -14.884100
C -23.773700 -5.647600 -13.665700
N -23.766800 -7.002000 -13.757600
H -23.458200 -7.433900 -13.057100
N -23.345800 -5.149500 -12.495200
C -23.340200 -3.835900 -12.370600
N -23.280700 -2.707400 -12.145400
H -23.168100 -9.419500 -14.765500
38
Fragment
H -21.716000 -10.622600 -16.629600
H -21.418700 -11.790200 -17.633500
C -21.049000 -11.240000 -16.938600
H -20.861300 -13.883400 -16.723000
H -20.642600 -16.081800 -14.168900
C -20.607000 -12.100000 -15.806500
C -20.591700 -13.480800 -15.929900
H -20.434700 -16.066400 -15.722700
H -20.296600 -10.752700 -17.282500
N -20.221700 -11.473800 -14.686000
C -20.176200 -14.240900 -14.879300
C -20.105200 -15.733400 -14.884100
C -19.799700 -12.239100 -13.665700
N -19.792900 -13.593600 -13.757600
H -19.484200 -14.025400 -13.057100
N -19.371800 -11.741100 -12.495200
C -19.366200 -10.427500 -12.370600
N -19.306700 -9.299000 -12.145400
H -19.194100 -16.011100 -14.765500
H -25.690000 -4.031000 -16.629600
H -25.392700 -5.198600 -17.633500
C -25.023000 -4.648400 -16.938600
H -24.835300 -7.291800 -16.723000
H -24.616600 -9.490300 -14.168900
C -24.580900 -5.508400 -15.806500
C -24.565700 -6.889200 -15.929900
H -24.408700 -9.474800 -15.722700
H -24.270600 -4.161100 -17.282500
N -24.195700 -4.882200 -14.686000
C -24.150200 -7.649400 -14.879300
C -24.079200 -9.141800 -14.884100
C -23.773700 -5.647600 -13.665700
N -23.766800 -7.002000 -13.757600
H -23.458200 -7.433900 -13.057100
N -23.345800 -5.149500 -12.495200
C -23.340200 -3.835900 -12.370600
N -23.280700 -2.707400 -12.145400
H -23.168100 -9.419500 -14.765500
