26
Fragment
H -32.596600 -9.713000 -21.067800
H -32.308300 -10.791800 -19.004800
C -31.765600 -10.128200 -20.863200
C -31.591200 -10.759300 -19.626900
H -30.860400 -9.683800 -22.637400
C -30.733000 -10.104200 -21.794400
C -30.367000 -11.339400 -19.308000
H -30.249400 -11.760500 -18.464700
C -29.510600 -10.699300 -21.486000
C -29.306900 -11.304500 -20.226500
O -28.517200 -10.649000 -22.412400
H -28.119500 -12.147600 -18.127800
N -28.003400 -11.814700 -20.039000
H -27.797800 -10.887700 -22.073400
C -27.564200 -12.185500 -18.898100
H -26.884300 -12.747700 -16.173400
H -26.758200 -14.320200 -16.445900
C -26.264300 -13.475700 -16.392400
C -26.192100 -12.667500 -18.806200
N -25.625200 -13.202100 -17.679300
H -25.578200 -13.542500 -15.695100
N -25.309700 -12.624700 -19.808900
C -24.329000 -13.519400 -17.992400
C -24.152400 -13.149300 -19.299400
H -23.683300 -13.916100 -17.418700
H -23.340300 -13.243500 -19.784500
26
Fragment
H -23.666700 -15.144700 -14.758900
H -23.378500 -14.065900 -12.695900
C -22.835700 -14.729500 -14.554400
C -22.661300 -14.098400 -13.318100
H -21.930500 -15.173900 -16.328600
C -21.803100 -14.753500 -15.485600
C -21.437200 -13.518300 -12.999100
H -21.319600 -13.097200 -12.155900
C -20.580700 -14.158400 -15.177200
C -20.377100 -13.553200 -13.917700
O -19.587400 -14.208700 -16.103600
H -19.189600 -12.710100 -11.819000
N -19.073600 -13.043000 -13.730200
H -18.868000 -13.970000 -15.764500
C -18.634300 -12.672200 -12.589300
H -17.954500 -12.110000 -9.864500
H -17.828300 -10.537500 -10.137100
C -17.334500 -11.382000 -10.083600
C -17.262200 -12.190200 -12.497300
N -16.695300 -11.655600 -11.370400
H -16.648400 -11.315200 -9.386300
N -16.379800 -12.233000 -13.500000
C -15.399100 -11.338300 -11.683600
C -15.222500 -11.708400 -12.990500
H -14.753500 -10.941600 -11.109900
H -14.410400 -11.614200 -13.475700
52
Fragment
H -32.596600 -9.713000 -21.067800
H -32.308300 -10.791800 -19.004800
C -31.765600 -10.128200 -20.863200
C -31.591200 -10.759300 -19.626900
H -30.860400 -9.683800 -22.637400
C -30.733000 -10.104200 -21.794400
C -30.367000 -11.339400 -19.308000
H -30.249400 -11.760500 -18.464700
C -29.510600 -10.699300 -21.486000
C -29.306900 -11.304500 -20.226500
O -28.517200 -10.649000 -22.412400
H -28.119500 -12.147600 -18.127800
N -28.003400 -11.814700 -20.039000
H -27.797800 -10.887700 -22.073400
C -27.564200 -12.185500 -18.898100
H -26.884300 -12.747700 -16.173400
H -26.758200 -14.320200 -16.445900
C -26.264300 -13.475700 -16.392400
C -26.192100 -12.667500 -18.806200
N -25.625200 -13.202100 -17.679300
H -25.578200 -13.542500 -15.695100
N -25.309700 -12.624700 -19.808900
C -24.329000 -13.519400 -17.992400
C -24.152400 -13.149300 -19.299400
H -23.683300 -13.916100 -17.418700
H -23.340300 -13.243500 -19.784500
H -23.666700 -15.144700 -14.758900
H -23.378500 -14.065900 -12.695900
C -22.835700 -14.729500 -14.554400
C -22.661300 -14.098400 -13.318100
H -21.930500 -15.173900 -16.328600
C -21.803100 -14.753500 -15.485600
C -21.437200 -13.518300 -12.999100
H -21.319600 -13.097200 -12.155900
C -20.580700 -14.158400 -15.177200
C -20.377100 -13.553200 -13.917700
O -19.587400 -14.208700 -16.103600
H -19.189600 -12.710100 -11.819000
N -19.073600 -13.043000 -13.730200
H -18.868000 -13.970000 -15.764500
C -18.634300 -12.672200 -12.589300
H -17.954500 -12.110000 -9.864500
H -17.828300 -10.537500 -10.137100
C -17.334500 -11.382000 -10.083600
C -17.262200 -12.190200 -12.497300
N -16.695300 -11.655600 -11.370400
H -16.648400 -11.315200 -9.386300
N -16.379800 -12.233000 -13.500000
C -15.399100 -11.338300 -11.683600
C -15.222500 -11.708400 -12.990500
H -14.753500 -10.941600 -11.109900
H -14.410400 -11.614200 -13.475700
