26
Fragment
H -32.596600 -9.713000 -21.067800
H -32.308300 -10.791800 -19.004800
C -31.765600 -10.128200 -20.863200
C -31.591200 -10.759300 -19.626900
H -30.860400 -9.683800 -22.637400
C -30.733000 -10.104200 -21.794400
C -30.367000 -11.339400 -19.308000
H -30.249400 -11.760500 -18.464700
C -29.510600 -10.699300 -21.486000
C -29.306900 -11.304500 -20.226500
O -28.517200 -10.649000 -22.412400
H -28.119500 -12.147600 -18.127800
N -28.003400 -11.814700 -20.039000
H -27.797800 -10.887700 -22.073400
C -27.564200 -12.185500 -18.898100
H -26.884300 -12.747700 -16.173400
H -26.758200 -14.320200 -16.445900
C -26.264300 -13.475700 -16.392400
C -26.192100 -12.667500 -18.806200
N -25.625200 -13.202100 -17.679300
H -25.578200 -13.542500 -15.695100
N -25.309700 -12.624700 -19.808900
C -24.329000 -13.519400 -17.992400
C -24.152400 -13.149300 -19.299400
H -23.683300 -13.916100 -17.418700
H -23.340300 -13.243500 -19.784500
26
Fragment
H -30.250300 -18.695800 -27.376600
H -29.962100 -17.617000 -25.313600
C -29.419300 -18.280600 -27.172100
C -29.244900 -17.649500 -25.935800
H -28.514200 -18.725000 -28.946200
C -28.386800 -18.304600 -28.103300
C -28.020800 -17.069400 -25.616800
H -27.903200 -16.648300 -24.773600
C -27.164300 -17.709500 -27.794900
C -26.960700 -17.104300 -26.535400
O -26.171000 -17.759800 -28.721300
H -25.773300 -16.261200 -24.436700
N -25.657200 -16.594100 -26.347900
H -25.451600 -17.521100 -28.382200
C -25.218000 -16.223300 -25.207000
H -24.538100 -15.661100 -22.482200
H -24.411900 -14.088600 -22.754700
C -23.918100 -14.933100 -22.701200
C -23.845800 -15.741300 -25.115000
N -23.278900 -15.206700 -23.988100
H -23.232000 -14.866300 -22.004000
N -22.963500 -15.784100 -26.117700
C -21.982800 -14.889400 -24.301300
C -21.806100 -15.259500 -25.608200
H -21.337100 -14.492700 -23.727600
H -20.994000 -15.165300 -26.093400
52
Fragment
H -32.596600 -9.713000 -21.067800
H -32.308300 -10.791800 -19.004800
C -31.765600 -10.128200 -20.863200
C -31.591200 -10.759300 -19.626900
H -30.860400 -9.683800 -22.637400
C -30.733000 -10.104200 -21.794400
C -30.367000 -11.339400 -19.308000
H -30.249400 -11.760500 -18.464700
C -29.510600 -10.699300 -21.486000
C -29.306900 -11.304500 -20.226500
O -28.517200 -10.649000 -22.412400
H -28.119500 -12.147600 -18.127800
N -28.003400 -11.814700 -20.039000
H -27.797800 -10.887700 -22.073400
C -27.564200 -12.185500 -18.898100
H -26.884300 -12.747700 -16.173400
H -26.758200 -14.320200 -16.445900
C -26.264300 -13.475700 -16.392400
C -26.192100 -12.667500 -18.806200
N -25.625200 -13.202100 -17.679300
H -25.578200 -13.542500 -15.695100
N -25.309700 -12.624700 -19.808900
C -24.329000 -13.519400 -17.992400
C -24.152400 -13.149300 -19.299400
H -23.683300 -13.916100 -17.418700
H -23.340300 -13.243500 -19.784500
H -30.250300 -18.695800 -27.376600
H -29.962100 -17.617000 -25.313600
C -29.419300 -18.280600 -27.172100
C -29.244900 -17.649500 -25.935800
H -28.514200 -18.725000 -28.946200
C -28.386800 -18.304600 -28.103300
C -28.020800 -17.069400 -25.616800
H -27.903200 -16.648300 -24.773600
C -27.164300 -17.709500 -27.794900
C -26.960700 -17.104300 -26.535400
O -26.171000 -17.759800 -28.721300
H -25.773300 -16.261200 -24.436700
N -25.657200 -16.594100 -26.347900
H -25.451600 -17.521100 -28.382200
C -25.218000 -16.223300 -25.207000
H -24.538100 -15.661100 -22.482200
H -24.411900 -14.088600 -22.754700
C -23.918100 -14.933100 -22.701200
C -23.845800 -15.741300 -25.115000
N -23.278900 -15.206700 -23.988100
H -23.232000 -14.866300 -22.004000
N -22.963500 -15.784100 -26.117700
C -21.982800 -14.889400 -24.301300
C -21.806100 -15.259500 -25.608200
H -21.337100 -14.492700 -23.727600
H -20.994000 -15.165300 -26.093400
