13
Fragment
O -11.813100 -25.218300 -18.345000
H -11.672400 -27.315900 -19.553600
C -11.234600 -25.437800 -19.398700
N -11.202400 -26.688500 -19.953300
H -10.641300 -23.629500 -19.739100
N -10.580500 -24.441200 -20.073300
O -10.506400 -28.200600 -21.459400
C -10.502700 -27.050900 -21.077300
H -10.074900 -25.932200 -22.727500
C -9.843300 -24.585700 -21.213400
C -9.750300 -25.967700 -21.793000
O -9.285900 -23.629400 -21.720400
H -8.794800 -26.225700 -21.823500
15
Fragment
O -10.790000 -33.159800 -15.556000
H -10.112300 -31.072200 -16.567800
N -10.060700 -33.641100 -16.421200
O -9.796900 -34.845900 -16.483900
C -9.614100 -31.423200 -17.297100
C -9.469700 -32.782900 -17.407600
N -9.080300 -30.578600 -18.175900
C -8.724700 -33.326100 -18.455700
H -8.600300 -34.264100 -18.531400
C -8.369600 -31.084900 -19.204700
C -8.183800 -32.474000 -19.364200
N -7.838000 -30.199800 -20.062100
H -7.712300 -29.277900 -19.929700
H -7.685000 -32.810500 -20.100200
H -7.146700 -30.493900 -20.648100
28
Fragment
O -11.813100 -25.218300 -18.345000
H -11.672400 -27.315900 -19.553600
C -11.234600 -25.437800 -19.398700
N -11.202400 -26.688500 -19.953300
H -10.641300 -23.629500 -19.739100
N -10.580500 -24.441200 -20.073300
O -10.506400 -28.200600 -21.459400
C -10.502700 -27.050900 -21.077300
H -10.074900 -25.932200 -22.727500
C -9.843300 -24.585700 -21.213400
C -9.750300 -25.967700 -21.793000
O -9.285900 -23.629400 -21.720400
H -8.794800 -26.225700 -21.823500
O -10.790000 -33.159800 -15.556000
H -10.112300 -31.072200 -16.567800
N -10.060700 -33.641100 -16.421200
O -9.796900 -34.845900 -16.483900
C -9.614100 -31.423200 -17.297100
C -9.469700 -32.782900 -17.407600
N -9.080300 -30.578600 -18.175900
C -8.724700 -33.326100 -18.455700
H -8.600300 -34.264100 -18.531400
C -8.369600 -31.084900 -19.204700
C -8.183800 -32.474000 -19.364200
N -7.838000 -30.199800 -20.062100
H -7.712300 -29.277900 -19.929700
H -7.685000 -32.810500 -20.100200
H -7.146700 -30.493900 -20.648100
