26
Fragment
H -32.596600 -9.713000 -21.067800
H -32.308300 -10.791800 -19.004800
C -31.765600 -10.128200 -20.863200
C -31.591200 -10.759300 -19.626900
H -30.860400 -9.683800 -22.637400
C -30.733000 -10.104200 -21.794400
C -30.367000 -11.339400 -19.308000
H -30.249400 -11.760500 -18.464700
C -29.510600 -10.699300 -21.486000
C -29.306900 -11.304500 -20.226500
O -28.517200 -10.649000 -22.412400
H -28.119500 -12.147600 -18.127800
N -28.003400 -11.814700 -20.039000
H -27.797800 -10.887700 -22.073400
C -27.564200 -12.185500 -18.898100
H -26.884300 -12.747700 -16.173400
H -26.758200 -14.320200 -16.445900
C -26.264300 -13.475700 -16.392400
C -26.192100 -12.667500 -18.806200
N -25.625200 -13.202100 -17.679300
H -25.578200 -13.542500 -15.695100
N -25.309700 -12.624700 -19.808900
C -24.329000 -13.519400 -17.992400
C -24.152400 -13.149300 -19.299400
H -23.683300 -13.916100 -17.418700
H -23.340300 -13.243500 -19.784500
26
Fragment
H -21.320500 -13.264100 -21.067800
H -21.032200 -14.342900 -19.004800
C -20.489500 -13.679300 -20.863200
C -20.315100 -14.310400 -19.626900
H -19.584300 -13.234900 -22.637400
C -19.456900 -13.655300 -21.794400
C -19.090900 -14.890500 -19.308000
H -18.973300 -15.311600 -18.464700
C -18.234500 -14.250400 -21.486000
C -18.030800 -14.855600 -20.226500
O -17.241100 -14.200100 -22.412400
H -16.843400 -15.698700 -18.127800
N -16.727300 -15.365800 -20.039000
H -16.521700 -14.438800 -22.073400
C -16.288100 -15.736600 -18.898100
H -15.608200 -16.298800 -16.173400
H -15.482100 -17.871300 -16.445900
C -14.988200 -17.026800 -16.392400
C -14.916000 -16.218600 -18.806200
N -14.349100 -16.753200 -17.679300
H -14.302100 -17.093600 -15.695100
N -14.033600 -16.175800 -19.808900
C -13.052900 -17.070500 -17.992400
C -12.876300 -16.700400 -19.299400
H -12.407200 -17.467200 -17.418700
H -12.064200 -16.794600 -19.784500
52
Fragment
H -32.596600 -9.713000 -21.067800
H -32.308300 -10.791800 -19.004800
C -31.765600 -10.128200 -20.863200
C -31.591200 -10.759300 -19.626900
H -30.860400 -9.683800 -22.637400
C -30.733000 -10.104200 -21.794400
C -30.367000 -11.339400 -19.308000
H -30.249400 -11.760500 -18.464700
C -29.510600 -10.699300 -21.486000
C -29.306900 -11.304500 -20.226500
O -28.517200 -10.649000 -22.412400
H -28.119500 -12.147600 -18.127800
N -28.003400 -11.814700 -20.039000
H -27.797800 -10.887700 -22.073400
C -27.564200 -12.185500 -18.898100
H -26.884300 -12.747700 -16.173400
H -26.758200 -14.320200 -16.445900
C -26.264300 -13.475700 -16.392400
C -26.192100 -12.667500 -18.806200
N -25.625200 -13.202100 -17.679300
H -25.578200 -13.542500 -15.695100
N -25.309700 -12.624700 -19.808900
C -24.329000 -13.519400 -17.992400
C -24.152400 -13.149300 -19.299400
H -23.683300 -13.916100 -17.418700
H -23.340300 -13.243500 -19.784500
H -21.320500 -13.264100 -21.067800
H -21.032200 -14.342900 -19.004800
C -20.489500 -13.679300 -20.863200
C -20.315100 -14.310400 -19.626900
H -19.584300 -13.234900 -22.637400
C -19.456900 -13.655300 -21.794400
C -19.090900 -14.890500 -19.308000
H -18.973300 -15.311600 -18.464700
C -18.234500 -14.250400 -21.486000
C -18.030800 -14.855600 -20.226500
O -17.241100 -14.200100 -22.412400
H -16.843400 -15.698700 -18.127800
N -16.727300 -15.365800 -20.039000
H -16.521700 -14.438800 -22.073400
C -16.288100 -15.736600 -18.898100
H -15.608200 -16.298800 -16.173400
H -15.482100 -17.871300 -16.445900
C -14.988200 -17.026800 -16.392400
C -14.916000 -16.218600 -18.806200
N -14.349100 -16.753200 -17.679300
H -14.302100 -17.093600 -15.695100
N -14.033600 -16.175800 -19.808900
C -13.052900 -17.070500 -17.992400
C -12.876300 -16.700400 -19.299400
H -12.407200 -17.467200 -17.418700
H -12.064200 -16.794600 -19.784500
