13
Fragment
O -11.813100 -25.218300 -18.345000
H -11.672400 -27.315900 -19.553600
C -11.234600 -25.437800 -19.398700
N -11.202400 -26.688500 -19.953300
H -10.641300 -23.629500 -19.739100
N -10.580500 -24.441200 -20.073300
O -10.506400 -28.200600 -21.459400
C -10.502700 -27.050900 -21.077300
H -10.074900 -25.932200 -22.727500
C -9.843300 -24.585700 -21.213400
C -9.750300 -25.967700 -21.793000
O -9.285900 -23.629400 -21.720400
H -8.794800 -26.225700 -21.823500
15
Fragment
H -12.778900 -21.919100 -16.706000
H -12.240600 -19.602500 -17.253900
H -12.213300 -23.135100 -17.424400
N -12.087600 -22.213200 -17.292000
C -11.741800 -19.939000 -17.989900
C -11.556000 -21.328100 -18.149400
H -11.325300 -18.148900 -18.822700
C -11.200900 -19.086900 -18.898400
N -10.845300 -21.834400 -19.178200
C -10.455900 -19.630100 -19.946500
C -10.311500 -20.989800 -20.057000
O -10.128700 -17.567100 -20.870200
N -9.864900 -18.771900 -20.932900
H -9.813300 -21.340800 -20.786300
O -9.135600 -19.253200 -21.798100
28
Fragment
O -11.813100 -25.218300 -18.345000
H -11.672400 -27.315900 -19.553600
C -11.234600 -25.437800 -19.398700
N -11.202400 -26.688500 -19.953300
H -10.641300 -23.629500 -19.739100
N -10.580500 -24.441200 -20.073300
O -10.506400 -28.200600 -21.459400
C -10.502700 -27.050900 -21.077300
H -10.074900 -25.932200 -22.727500
C -9.843300 -24.585700 -21.213400
C -9.750300 -25.967700 -21.793000
O -9.285900 -23.629400 -21.720400
H -8.794800 -26.225700 -21.823500
H -12.778900 -21.919100 -16.706000
H -12.240600 -19.602500 -17.253900
H -12.213300 -23.135100 -17.424400
N -12.087600 -22.213200 -17.292000
C -11.741800 -19.939000 -17.989900
C -11.556000 -21.328100 -18.149400
H -11.325300 -18.148900 -18.822700
C -11.200900 -19.086900 -18.898400
N -10.845300 -21.834400 -19.178200
C -10.455900 -19.630100 -19.946500
C -10.311500 -20.989800 -20.057000
O -10.128700 -17.567100 -20.870200
N -9.864900 -18.771900 -20.932900
H -9.813300 -21.340800 -20.786300
O -9.135600 -19.253200 -21.798100
