13
Fragment
O -11.813100 -25.218300 -18.345000
H -11.672400 -27.315900 -19.553600
C -11.234600 -25.437800 -19.398700
N -11.202400 -26.688500 -19.953300
H -10.641300 -23.629500 -19.739100
N -10.580500 -24.441200 -20.073300
O -10.506400 -28.200600 -21.459400
C -10.502700 -27.050900 -21.077300
H -10.074900 -25.932200 -22.727500
C -9.843300 -24.585700 -21.213400
C -9.750300 -25.967700 -21.793000
O -9.285900 -23.629400 -21.720400
H -8.794800 -26.225700 -21.823500
13
Fragment
H -11.130800 -26.187300 -15.530600
O -10.639700 -28.783600 -15.633700
C -10.175300 -26.445300 -15.561100
C -10.082300 -27.827300 -16.140700
H -9.850700 -26.480800 -14.626600
C -9.422900 -25.362100 -16.276800
O -9.419200 -24.212400 -15.894700
N -9.345100 -27.971800 -17.280800
H -9.284300 -28.783500 -17.614900
N -8.723200 -25.724500 -17.400800
C -8.690900 -26.975200 -17.955400
H -8.253200 -25.097100 -17.800500
O -8.112500 -27.194700 -19.009100
26
Fragment
O -11.813100 -25.218300 -18.345000
H -11.672400 -27.315900 -19.553600
C -11.234600 -25.437800 -19.398700
N -11.202400 -26.688500 -19.953300
H -10.641300 -23.629500 -19.739100
N -10.580500 -24.441200 -20.073300
O -10.506400 -28.200600 -21.459400
C -10.502700 -27.050900 -21.077300
H -10.074900 -25.932200 -22.727500
C -9.843300 -24.585700 -21.213400
C -9.750300 -25.967700 -21.793000
O -9.285900 -23.629400 -21.720400
H -8.794800 -26.225700 -21.823500
H -11.130800 -26.187300 -15.530600
O -10.639700 -28.783600 -15.633700
C -10.175300 -26.445300 -15.561100
C -10.082300 -27.827300 -16.140700
H -9.850700 -26.480800 -14.626600
C -9.422900 -25.362100 -16.276800
O -9.419200 -24.212400 -15.894700
N -9.345100 -27.971800 -17.280800
H -9.284300 -28.783500 -17.614900
N -8.723200 -25.724500 -17.400800
C -8.690900 -26.975200 -17.955400
H -8.253200 -25.097100 -17.800500
O -8.112500 -27.194700 -19.009100
