20
Fragment
O -12.077600 -14.584800 -54.493600
H -12.036500 -12.439300 -53.309400
N -11.342900 -12.546800 -53.896900
C -11.279000 -13.650900 -54.618000
H -11.129800 -15.029300 -56.858400
H -10.842600 -11.883600 -54.091700
O -10.454200 -16.392400 -58.711500
C -10.309600 -14.629600 -56.666700
C -10.148400 -13.780900 -55.587400
N -9.415400 -15.768600 -58.643200
C -9.256300 -14.815100 -57.541100
C -8.936600 -13.137400 -55.407800
H -8.784200 -12.600600 -54.646500
O -8.478100 -15.924600 -59.402400
C -8.047900 -14.194900 -57.384300
C -7.912000 -13.363200 -56.296500
H -7.314600 -14.348200 -57.996300
N -6.613700 -12.726000 -56.065700
O -6.535700 -11.897100 -55.178100
O -5.682200 -13.061200 -56.766300
20
Fragment
O -20.055600 -14.584800 -54.493600
H -20.014500 -12.439300 -53.309400
N -19.320900 -12.546800 -53.896900
C -19.257000 -13.650900 -54.618000
H -19.107800 -15.029300 -56.858400
H -18.820600 -11.883600 -54.091700
O -18.432200 -16.392400 -58.711500
C -18.287600 -14.629600 -56.666700
C -18.126400 -13.780900 -55.587400
N -17.393400 -15.768600 -58.643200
C -17.234300 -14.815100 -57.541100
C -16.914600 -13.137400 -55.407800
H -16.762200 -12.600600 -54.646500
O -16.456100 -15.924600 -59.402400
C -16.025900 -14.194900 -57.384300
C -15.890000 -13.363200 -56.296500
H -15.292600 -14.348200 -57.996300
N -14.591700 -12.726000 -56.065700
O -14.513700 -11.897100 -55.178100
O -13.660200 -13.061200 -56.766300
40
Fragment
O -12.077600 -14.584800 -54.493600
H -12.036500 -12.439300 -53.309400
N -11.342900 -12.546800 -53.896900
C -11.279000 -13.650900 -54.618000
H -11.129800 -15.029300 -56.858400
H -10.842600 -11.883600 -54.091700
O -10.454200 -16.392400 -58.711500
C -10.309600 -14.629600 -56.666700
C -10.148400 -13.780900 -55.587400
N -9.415400 -15.768600 -58.643200
C -9.256300 -14.815100 -57.541100
C -8.936600 -13.137400 -55.407800
H -8.784200 -12.600600 -54.646500
O -8.478100 -15.924600 -59.402400
C -8.047900 -14.194900 -57.384300
C -7.912000 -13.363200 -56.296500
H -7.314600 -14.348200 -57.996300
N -6.613700 -12.726000 -56.065700
O -6.535700 -11.897100 -55.178100
O -5.682200 -13.061200 -56.766300
O -20.055600 -14.584800 -54.493600
H -20.014500 -12.439300 -53.309400
N -19.320900 -12.546800 -53.896900
C -19.257000 -13.650900 -54.618000
H -19.107800 -15.029300 -56.858400
H -18.820600 -11.883600 -54.091700
O -18.432200 -16.392400 -58.711500
C -18.287600 -14.629600 -56.666700
C -18.126400 -13.780900 -55.587400
N -17.393400 -15.768600 -58.643200
C -17.234300 -14.815100 -57.541100
C -16.914600 -13.137400 -55.407800
H -16.762200 -12.600600 -54.646500
O -16.456100 -15.924600 -59.402400
C -16.025900 -14.194900 -57.384300
C -15.890000 -13.363200 -56.296500
H -15.292600 -14.348200 -57.996300
N -14.591700 -12.726000 -56.065700
O -14.513700 -11.897100 -55.178100
O -13.660200 -13.061200 -56.766300
