20
Fragment
O -12.077600 -14.584800 -54.493600
H -12.036500 -12.439300 -53.309400
N -11.342900 -12.546800 -53.896900
C -11.279000 -13.650900 -54.618000
H -11.129800 -15.029300 -56.858400
H -10.842600 -11.883600 -54.091700
O -10.454200 -16.392400 -58.711500
C -10.309600 -14.629600 -56.666700
C -10.148400 -13.780900 -55.587400
N -9.415400 -15.768600 -58.643200
C -9.256300 -14.815100 -57.541100
C -8.936600 -13.137400 -55.407800
H -8.784200 -12.600600 -54.646500
O -8.478100 -15.924600 -59.402400
C -8.047900 -14.194900 -57.384300
C -7.912000 -13.363200 -56.296500
H -7.314600 -14.348200 -57.996300
N -6.613700 -12.726000 -56.065700
O -6.535700 -11.897100 -55.178100
O -5.682200 -13.061200 -56.766300
17
Fragment
O -16.263700 -15.510500 -65.339300
O -16.094900 -17.344200 -64.227000
N -15.900700 -16.155800 -64.370600
H -15.438000 -13.685000 -64.052400
C -15.158600 -15.452300 -63.308100
C -15.038800 -14.093600 -63.393800
H -14.705700 -17.090500 -62.224500
C -14.633200 -16.180900 -62.264700
C -14.373000 -13.426000 -62.391300
C -14.250900 -11.984900 -62.446800
N -14.172600 -10.858400 -62.490500
C -14.008900 -15.470200 -61.275000
C -13.860200 -14.106200 -61.308500
N -13.482700 -16.197900 -60.107900
H -13.442100 -13.667000 -60.617200
O -13.296600 -15.575100 -59.086600
O -13.285600 -17.380000 -60.232400
37
Fragment
O -12.077600 -14.584800 -54.493600
H -12.036500 -12.439300 -53.309400
N -11.342900 -12.546800 -53.896900
C -11.279000 -13.650900 -54.618000
H -11.129800 -15.029300 -56.858400
H -10.842600 -11.883600 -54.091700
O -10.454200 -16.392400 -58.711500
C -10.309600 -14.629600 -56.666700
C -10.148400 -13.780900 -55.587400
N -9.415400 -15.768600 -58.643200
C -9.256300 -14.815100 -57.541100
C -8.936600 -13.137400 -55.407800
H -8.784200 -12.600600 -54.646500
O -8.478100 -15.924600 -59.402400
C -8.047900 -14.194900 -57.384300
C -7.912000 -13.363200 -56.296500
H -7.314600 -14.348200 -57.996300
N -6.613700 -12.726000 -56.065700
O -6.535700 -11.897100 -55.178100
O -5.682200 -13.061200 -56.766300
O -16.263700 -15.510500 -65.339300
O -16.094900 -17.344200 -64.227000
N -15.900700 -16.155800 -64.370600
H -15.438000 -13.685000 -64.052400
C -15.158600 -15.452300 -63.308100
C -15.038800 -14.093600 -63.393800
H -14.705700 -17.090500 -62.224500
C -14.633200 -16.180900 -62.264700
C -14.373000 -13.426000 -62.391300
C -14.250900 -11.984900 -62.446800
N -14.172600 -10.858400 -62.490500
C -14.008900 -15.470200 -61.275000
C -13.860200 -14.106200 -61.308500
N -13.482700 -16.197900 -60.107900
H -13.442100 -13.667000 -60.617200
O -13.296600 -15.575100 -59.086600
O -13.285600 -17.380000 -60.232400
