20
Fragment
O -12.077600 -14.584800 -54.493600
H -12.036500 -12.439300 -53.309400
N -11.342900 -12.546800 -53.896900
C -11.279000 -13.650900 -54.618000
H -11.129800 -15.029300 -56.858400
H -10.842600 -11.883600 -54.091700
O -10.454200 -16.392400 -58.711500
C -10.309600 -14.629600 -56.666700
C -10.148400 -13.780900 -55.587400
N -9.415400 -15.768600 -58.643200
C -9.256300 -14.815100 -57.541100
C -8.936600 -13.137400 -55.407800
H -8.784200 -12.600600 -54.646500
O -8.478100 -15.924600 -59.402400
C -8.047900 -14.194900 -57.384300
C -7.912000 -13.363200 -56.296500
H -7.314600 -14.348200 -57.996300
N -6.613700 -12.726000 -56.065700
O -6.535700 -11.897100 -55.178100
O -5.682200 -13.061200 -56.766300
20
Fragment
O -8.091000 -8.610700 -56.816400
O -7.247600 -7.450100 -55.213700
N -7.166200 -8.280900 -56.100900
H -6.419000 -9.912000 -58.031900
C -5.858700 -8.922600 -56.333100
C -5.721500 -9.765900 -57.398900
O -5.229900 -11.453400 -59.449700
H -5.004400 -8.119600 -54.753200
C -4.849200 -8.679700 -55.438800
C -4.496900 -10.376200 -57.550800
N -4.327700 -11.330700 -58.658500
C -3.631500 -9.322300 -55.609800
C -3.462700 -10.182600 -56.682700
O -3.301700 -11.977700 -58.701500
H -3.007800 -7.339900 -54.098900
H -2.662300 -10.584100 -56.908200
C -2.507200 -9.175300 -54.631600
N -2.453800 -8.065800 -53.924600
H -1.838000 -7.958300 -53.355600
O -1.705500 -10.110000 -54.491800
40
Fragment
O -12.077600 -14.584800 -54.493600
H -12.036500 -12.439300 -53.309400
N -11.342900 -12.546800 -53.896900
C -11.279000 -13.650900 -54.618000
H -11.129800 -15.029300 -56.858400
H -10.842600 -11.883600 -54.091700
O -10.454200 -16.392400 -58.711500
C -10.309600 -14.629600 -56.666700
C -10.148400 -13.780900 -55.587400
N -9.415400 -15.768600 -58.643200
C -9.256300 -14.815100 -57.541100
C -8.936600 -13.137400 -55.407800
H -8.784200 -12.600600 -54.646500
O -8.478100 -15.924600 -59.402400
C -8.047900 -14.194900 -57.384300
C -7.912000 -13.363200 -56.296500
H -7.314600 -14.348200 -57.996300
N -6.613700 -12.726000 -56.065700
O -6.535700 -11.897100 -55.178100
O -5.682200 -13.061200 -56.766300
O -8.091000 -8.610700 -56.816400
O -7.247600 -7.450100 -55.213700
N -7.166200 -8.280900 -56.100900
H -6.419000 -9.912000 -58.031900
C -5.858700 -8.922600 -56.333100
C -5.721500 -9.765900 -57.398900
O -5.229900 -11.453400 -59.449700
H -5.004400 -8.119600 -54.753200
C -4.849200 -8.679700 -55.438800
C -4.496900 -10.376200 -57.550800
N -4.327700 -11.330700 -58.658500
C -3.631500 -9.322300 -55.609800
C -3.462700 -10.182600 -56.682700
O -3.301700 -11.977700 -58.701500
H -3.007800 -7.339900 -54.098900
H -2.662300 -10.584100 -56.908200
C -2.507200 -9.175300 -54.631600
N -2.453800 -8.065800 -53.924600
H -1.838000 -7.958300 -53.355600
O -1.705500 -10.110000 -54.491800
