20
Fragment
O -12.077600 -14.584800 -54.493600
H -12.036500 -12.439300 -53.309400
N -11.342900 -12.546800 -53.896900
C -11.279000 -13.650900 -54.618000
H -11.129800 -15.029300 -56.858400
H -10.842600 -11.883600 -54.091700
O -10.454200 -16.392400 -58.711500
C -10.309600 -14.629600 -56.666700
C -10.148400 -13.780900 -55.587400
N -9.415400 -15.768600 -58.643200
C -9.256300 -14.815100 -57.541100
C -8.936600 -13.137400 -55.407800
H -8.784200 -12.600600 -54.646500
O -8.478100 -15.924600 -59.402400
C -8.047900 -14.194900 -57.384300
C -7.912000 -13.363200 -56.296500
H -7.314600 -14.348200 -57.996300
N -6.613700 -12.726000 -56.065700
O -6.535700 -11.897100 -55.178100
O -5.682200 -13.061200 -56.766300
20
Fragment
O -20.078500 -13.824800 -49.916500
O -19.225100 -14.988900 -51.504700
N -19.147000 -14.160000 -50.617100
H -18.446100 -12.537800 -48.686500
C -17.848700 -13.522800 -50.386300
C -17.712800 -12.691100 -49.298500
O -17.282700 -10.961400 -47.280400
H -16.976500 -14.285400 -52.036300
C -16.824200 -13.748600 -51.275000
C -16.504400 -12.070900 -49.141700
N -16.345300 -11.117400 -48.039600
C -15.612300 -13.105100 -51.095400
C -15.451100 -12.256400 -50.016100
O -15.306600 -10.493600 -47.971300
H -14.918100 -15.002400 -52.591100
H -14.630900 -11.856700 -49.824400
C -14.481800 -13.235100 -52.064800
N -14.417800 -14.339200 -52.785900
H -13.724200 -14.446700 -53.373400
O -13.683200 -12.301200 -52.189200
40
Fragment
O -12.077600 -14.584800 -54.493600
H -12.036500 -12.439300 -53.309400
N -11.342900 -12.546800 -53.896900
C -11.279000 -13.650900 -54.618000
H -11.129800 -15.029300 -56.858400
H -10.842600 -11.883600 -54.091700
O -10.454200 -16.392400 -58.711500
C -10.309600 -14.629600 -56.666700
C -10.148400 -13.780900 -55.587400
N -9.415400 -15.768600 -58.643200
C -9.256300 -14.815100 -57.541100
C -8.936600 -13.137400 -55.407800
H -8.784200 -12.600600 -54.646500
O -8.478100 -15.924600 -59.402400
C -8.047900 -14.194900 -57.384300
C -7.912000 -13.363200 -56.296500
H -7.314600 -14.348200 -57.996300
N -6.613700 -12.726000 -56.065700
O -6.535700 -11.897100 -55.178100
O -5.682200 -13.061200 -56.766300
O -20.078500 -13.824800 -49.916500
O -19.225100 -14.988900 -51.504700
N -19.147000 -14.160000 -50.617100
H -18.446100 -12.537800 -48.686500
C -17.848700 -13.522800 -50.386300
C -17.712800 -12.691100 -49.298500
O -17.282700 -10.961400 -47.280400
H -16.976500 -14.285400 -52.036300
C -16.824200 -13.748600 -51.275000
C -16.504400 -12.070900 -49.141700
N -16.345300 -11.117400 -48.039600
C -15.612300 -13.105100 -51.095400
C -15.451100 -12.256400 -50.016100
O -15.306600 -10.493600 -47.971300
H -14.918100 -15.002400 -52.591100
H -14.630900 -11.856700 -49.824400
C -14.481800 -13.235100 -52.064800
N -14.417800 -14.339200 -52.785900
H -13.724200 -14.446700 -53.373400
O -13.683200 -12.301200 -52.189200
