56
Fragment
H -36.672700 -18.516000 -10.504100
H -36.449500 -20.646900 -11.428400
C -35.934600 -18.715100 -11.069200
C -35.812200 -19.975400 -11.636500
H -35.061900 -16.879200 -10.959100
C -34.980700 -17.751400 -11.328200
C -34.776700 -20.264600 -12.497900
H -34.745200 -21.115000 -12.922100
H -34.033300 -19.463700 -15.182700
C -33.904300 -18.078400 -12.137300
C -33.773000 -19.328500 -12.758300
O -33.143500 -15.925800 -12.494300
C -33.049600 -19.398300 -15.081900
H -32.964400 -17.321100 -15.046800
H -32.885800 -17.918500 -16.531900
N -32.831800 -17.081300 -12.241000
N -32.687500 -19.575600 -13.656800
H -32.637100 -20.119300 -15.619100
C -32.575500 -18.043500 -15.600500
H -32.392700 -21.577200 -13.653200
C -31.920800 -20.777800 -13.312000
H -31.859300 -20.856300 -12.326900
O -31.693000 -17.446500 -12.000000
N -31.126400 -17.965200 -15.556900
H -30.966800 -15.985200 -15.141200
H -30.830800 -18.492700 -16.167800
H -30.796800 -16.322500 -16.700100
H -30.575800 -20.808300 -14.888000
C -30.570100 -16.624800 -15.785100
C -30.523500 -20.729600 -13.902200
H -30.382400 -18.891000 -13.878600
H -29.989300 -21.490000 -13.559500
N -29.861300 -19.447300 -13.536600
H -29.659900 -16.044800 -11.978500
H -29.158400 -14.188600 -10.666500
C -29.060800 -16.651000 -15.617000
C -28.990700 -15.435800 -12.268200
C -28.701900 -14.323800 -11.488400
H -28.682300 -17.380700 -16.167100
H -28.680200 -15.796300 -15.940300
N -28.676400 -16.853900 -14.204100
H -28.625000 -19.421500 -15.163400
C -28.523600 -19.343200 -14.181900
C -28.327000 -15.678500 -13.457900
H -27.951300 -20.088800 -13.873600
C -27.853800 -18.020700 -13.848500
C -27.744100 -13.405100 -11.910500
H -27.660200 -17.994100 -12.877700
H -27.551800 -12.639100 -11.383300
C -27.368600 -14.732200 -13.845700
C -27.081700 -13.611500 -13.085900
H -26.990800 -17.966500 -14.330700
N -26.613400 -14.895000 -15.100500
O -26.596600 -13.932600 -15.864500
H -26.427600 -12.990800 -13.380700
O -26.040000 -15.959700 -15.309300
56
Fragment
H -26.047200 -17.824000 -17.658000
H -25.824100 -15.693100 -18.582300
C -25.309200 -17.624900 -18.223100
C -25.186800 -16.364600 -18.790400
H -24.436400 -19.460800 -18.113000
C -24.355200 -18.588600 -18.482100
C -24.151200 -16.075400 -19.651800
H -24.119800 -15.225000 -20.076000
H -23.407900 -16.876300 -22.336600
C -23.278900 -18.261600 -19.291200
C -23.147500 -17.011500 -19.912200
O -22.518100 -20.414200 -19.648200
C -22.424200 -16.941700 -22.235800
H -22.338900 -19.018900 -22.200700
H -22.260300 -18.421500 -23.685800
N -22.206300 -19.258700 -19.394900
N -22.062000 -16.764400 -20.810700
H -22.011700 -16.220700 -22.773000
C -21.950100 -18.296500 -22.754400
H -21.767300 -14.762800 -20.807100
C -21.295300 -15.562200 -20.465900
H -21.233900 -15.483700 -19.480800
O -21.067500 -18.893500 -19.153900
N -20.501000 -18.374800 -22.710800
H -20.341400 -20.354800 -22.295100
H -20.205400 -17.847300 -23.321700
H -20.171400 -20.017500 -23.854000
H -19.950300 -15.531700 -22.041900
C -19.944600 -19.715200 -22.939000
C -19.898100 -15.610400 -21.056100
H -19.757000 -17.449000 -21.032500
H -19.363800 -14.850000 -20.713400
N -19.235900 -16.892700 -20.690500
H -19.034400 -20.295200 -19.132400
H -18.532900 -22.151400 -17.820400
C -18.435400 -19.689000 -22.770900
C -18.365200 -20.904200 -19.422100
C -18.076400 -22.016200 -18.642300
H -18.056900 -18.959300 -23.321000
H -18.054800 -20.543700 -23.094200
N -18.050900 -19.486100 -21.358000
H -17.999500 -16.918500 -22.317300
C -17.898100 -16.996800 -21.335800
C -17.701600 -20.661500 -20.611800
H -17.325900 -16.251200 -21.027500
C -17.228300 -18.319300 -21.002400
C -17.118700 -22.934900 -19.064400
H -17.034700 -18.345900 -20.031600
H -16.926300 -23.700900 -18.537200
C -16.743200 -21.607800 -20.999600
C -16.456300 -22.728500 -20.239800
H -16.365300 -18.373500 -21.484600
N -15.987900 -21.445000 -22.254400
O -15.971100 -22.407400 -23.018400
H -15.802200 -23.349200 -20.534600
O -15.414600 -20.380300 -22.463200
112
Fragment
H -36.672700 -18.516000 -10.504100
H -36.449500 -20.646900 -11.428400
C -35.934600 -18.715100 -11.069200
C -35.812200 -19.975400 -11.636500
H -35.061900 -16.879200 -10.959100
C -34.980700 -17.751400 -11.328200
C -34.776700 -20.264600 -12.497900
H -34.745200 -21.115000 -12.922100
H -34.033300 -19.463700 -15.182700
C -33.904300 -18.078400 -12.137300
C -33.773000 -19.328500 -12.758300
O -33.143500 -15.925800 -12.494300
C -33.049600 -19.398300 -15.081900
H -32.964400 -17.321100 -15.046800
H -32.885800 -17.918500 -16.531900
N -32.831800 -17.081300 -12.241000
N -32.687500 -19.575600 -13.656800
H -32.637100 -20.119300 -15.619100
C -32.575500 -18.043500 -15.600500
H -32.392700 -21.577200 -13.653200
C -31.920800 -20.777800 -13.312000
H -31.859300 -20.856300 -12.326900
O -31.693000 -17.446500 -12.000000
N -31.126400 -17.965200 -15.556900
H -30.966800 -15.985200 -15.141200
H -30.830800 -18.492700 -16.167800
H -30.796800 -16.322500 -16.700100
H -30.575800 -20.808300 -14.888000
C -30.570100 -16.624800 -15.785100
C -30.523500 -20.729600 -13.902200
H -30.382400 -18.891000 -13.878600
H -29.989300 -21.490000 -13.559500
N -29.861300 -19.447300 -13.536600
H -29.659900 -16.044800 -11.978500
H -29.158400 -14.188600 -10.666500
C -29.060800 -16.651000 -15.617000
C -28.990700 -15.435800 -12.268200
C -28.701900 -14.323800 -11.488400
H -28.682300 -17.380700 -16.167100
H -28.680200 -15.796300 -15.940300
N -28.676400 -16.853900 -14.204100
H -28.625000 -19.421500 -15.163400
C -28.523600 -19.343200 -14.181900
C -28.327000 -15.678500 -13.457900
H -27.951300 -20.088800 -13.873600
C -27.853800 -18.020700 -13.848500
C -27.744100 -13.405100 -11.910500
H -27.660200 -17.994100 -12.877700
H -27.551800 -12.639100 -11.383300
C -27.368600 -14.732200 -13.845700
C -27.081700 -13.611500 -13.085900
H -26.990800 -17.966500 -14.330700
N -26.613400 -14.895000 -15.100500
O -26.596600 -13.932600 -15.864500
H -26.427600 -12.990800 -13.380700
O -26.040000 -15.959700 -15.309300
H -26.047200 -17.824000 -17.658000
H -25.824100 -15.693100 -18.582300
C -25.309200 -17.624900 -18.223100
C -25.186800 -16.364600 -18.790400
H -24.436400 -19.460800 -18.113000
C -24.355200 -18.588600 -18.482100
C -24.151200 -16.075400 -19.651800
H -24.119800 -15.225000 -20.076000
H -23.407900 -16.876300 -22.336600
C -23.278900 -18.261600 -19.291200
C -23.147500 -17.011500 -19.912200
O -22.518100 -20.414200 -19.648200
C -22.424200 -16.941700 -22.235800
H -22.338900 -19.018900 -22.200700
H -22.260300 -18.421500 -23.685800
N -22.206300 -19.258700 -19.394900
N -22.062000 -16.764400 -20.810700
H -22.011700 -16.220700 -22.773000
C -21.950100 -18.296500 -22.754400
H -21.767300 -14.762800 -20.807100
C -21.295300 -15.562200 -20.465900
H -21.233900 -15.483700 -19.480800
O -21.067500 -18.893500 -19.153900
N -20.501000 -18.374800 -22.710800
H -20.341400 -20.354800 -22.295100
H -20.205400 -17.847300 -23.321700
H -20.171400 -20.017500 -23.854000
H -19.950300 -15.531700 -22.041900
C -19.944600 -19.715200 -22.939000
C -19.898100 -15.610400 -21.056100
H -19.757000 -17.449000 -21.032500
H -19.363800 -14.850000 -20.713400
N -19.235900 -16.892700 -20.690500
H -19.034400 -20.295200 -19.132400
H -18.532900 -22.151400 -17.820400
C -18.435400 -19.689000 -22.770900
C -18.365200 -20.904200 -19.422100
C -18.076400 -22.016200 -18.642300
H -18.056900 -18.959300 -23.321000
H -18.054800 -20.543700 -23.094200
N -18.050900 -19.486100 -21.358000
H -17.999500 -16.918500 -22.317300
C -17.898100 -16.996800 -21.335800
C -17.701600 -20.661500 -20.611800
H -17.325900 -16.251200 -21.027500
C -17.228300 -18.319300 -21.002400
C -17.118700 -22.934900 -19.064400
H -17.034700 -18.345900 -20.031600
H -16.926300 -23.700900 -18.537200
C -16.743200 -21.607800 -20.999600
C -16.456300 -22.728500 -20.239800
H -16.365300 -18.373500 -21.484600
N -15.987900 -21.445000 -22.254400
O -15.971100 -22.407400 -23.018400
H -15.802200 -23.349200 -20.534600
O -15.414600 -20.380300 -22.463200
