56
Fragment
H -36.672700 -18.516000 -10.504100
H -36.449500 -20.646900 -11.428400
C -35.934600 -18.715100 -11.069200
C -35.812200 -19.975400 -11.636500
H -35.061900 -16.879200 -10.959100
C -34.980700 -17.751400 -11.328200
C -34.776700 -20.264600 -12.497900
H -34.745200 -21.115000 -12.922100
H -34.033300 -19.463700 -15.182700
C -33.904300 -18.078400 -12.137300
C -33.773000 -19.328500 -12.758300
O -33.143500 -15.925800 -12.494300
C -33.049600 -19.398300 -15.081900
H -32.964400 -17.321100 -15.046800
H -32.885800 -17.918500 -16.531900
N -32.831800 -17.081300 -12.241000
N -32.687500 -19.575600 -13.656800
H -32.637100 -20.119300 -15.619100
C -32.575500 -18.043500 -15.600500
H -32.392700 -21.577200 -13.653200
C -31.920800 -20.777800 -13.312000
H -31.859300 -20.856300 -12.326900
O -31.693000 -17.446500 -12.000000
N -31.126400 -17.965200 -15.556900
H -30.966800 -15.985200 -15.141200
H -30.830800 -18.492700 -16.167800
H -30.796800 -16.322500 -16.700100
H -30.575800 -20.808300 -14.888000
C -30.570100 -16.624800 -15.785100
C -30.523500 -20.729600 -13.902200
H -30.382400 -18.891000 -13.878600
H -29.989300 -21.490000 -13.559500
N -29.861300 -19.447300 -13.536600
H -29.659900 -16.044800 -11.978500
H -29.158400 -14.188600 -10.666500
C -29.060800 -16.651000 -15.617000
C -28.990700 -15.435800 -12.268200
C -28.701900 -14.323800 -11.488400
H -28.682300 -17.380700 -16.167100
H -28.680200 -15.796300 -15.940300
N -28.676400 -16.853900 -14.204100
H -28.625000 -19.421500 -15.163400
C -28.523600 -19.343200 -14.181900
C -28.327000 -15.678500 -13.457900
H -27.951300 -20.088800 -13.873600
C -27.853800 -18.020700 -13.848500
C -27.744100 -13.405100 -11.910500
H -27.660200 -17.994100 -12.877700
H -27.551800 -12.639100 -11.383300
C -27.368600 -14.732200 -13.845700
C -27.081700 -13.611500 -13.085900
H -26.990800 -17.966500 -14.330700
N -26.613400 -14.895000 -15.100500
O -26.596600 -13.932600 -15.864500
H -26.427600 -12.990800 -13.380700
O -26.040000 -15.959700 -15.309300
56
Fragment
H -47.298100 -17.824000 -10.504100
H -47.075000 -15.693100 -11.428400
C -46.560100 -17.624900 -11.069200
C -46.437700 -16.364600 -11.636500
H -45.687300 -19.460800 -10.959100
C -45.606100 -18.588600 -11.328200
C -45.402100 -16.075400 -12.497900
H -45.370700 -15.225000 -12.922100
H -44.658800 -16.876300 -15.182700
C -44.529800 -18.261600 -12.137300
C -44.398400 -17.011500 -12.758300
O -43.769000 -20.414200 -12.494300
C -43.675100 -16.941700 -15.081900
H -43.589800 -19.018900 -15.046800
H -43.511200 -18.421500 -16.531900
N -43.457200 -19.258700 -12.241000
N -43.312900 -16.764400 -13.656800
H -43.262600 -16.220700 -15.619100
C -43.201000 -18.296500 -15.600500
H -43.018200 -14.762800 -13.653200
C -42.546200 -15.562200 -13.312000
H -42.484800 -15.483700 -12.326900
O -42.318400 -18.893500 -12.000000
N -41.751900 -18.374800 -15.556900
H -41.592300 -20.354800 -15.141200
H -41.456300 -17.847300 -16.167800
H -41.422300 -20.017500 -16.700100
H -41.201200 -15.531700 -14.888000
C -41.195500 -19.715200 -15.785100
C -41.149000 -15.610400 -13.902200
H -41.007900 -17.449000 -13.878600
H -40.614700 -14.850000 -13.559500
N -40.486800 -16.892700 -13.536600
H -40.285300 -20.295200 -11.978500
H -39.783800 -22.151400 -10.666500
C -39.686300 -19.689000 -15.617000
C -39.616100 -20.904200 -12.268200
C -39.327300 -22.016200 -11.488400
H -39.307800 -18.959300 -16.167100
H -39.305700 -20.543700 -15.940300
N -39.301800 -19.486100 -14.204100
H -39.250400 -16.918500 -15.163400
C -39.149000 -16.996800 -14.181900
C -38.952500 -20.661500 -13.457900
H -38.576800 -16.251200 -13.873600
C -38.479200 -18.319300 -13.848500
C -38.369600 -22.934900 -11.910500
H -38.285600 -18.345900 -12.877700
H -38.177200 -23.700900 -11.383300
C -37.994100 -21.607800 -13.845700
C -37.707200 -22.728500 -13.085900
H -37.616200 -18.373500 -14.330700
N -37.238800 -21.445000 -15.100500
O -37.222000 -22.407400 -15.864500
H -37.053100 -23.349200 -13.380700
O -36.665500 -20.380300 -15.309300
112
Fragment
H -36.672700 -18.516000 -10.504100
H -36.449500 -20.646900 -11.428400
C -35.934600 -18.715100 -11.069200
C -35.812200 -19.975400 -11.636500
H -35.061900 -16.879200 -10.959100
C -34.980700 -17.751400 -11.328200
C -34.776700 -20.264600 -12.497900
H -34.745200 -21.115000 -12.922100
H -34.033300 -19.463700 -15.182700
C -33.904300 -18.078400 -12.137300
C -33.773000 -19.328500 -12.758300
O -33.143500 -15.925800 -12.494300
C -33.049600 -19.398300 -15.081900
H -32.964400 -17.321100 -15.046800
H -32.885800 -17.918500 -16.531900
N -32.831800 -17.081300 -12.241000
N -32.687500 -19.575600 -13.656800
H -32.637100 -20.119300 -15.619100
C -32.575500 -18.043500 -15.600500
H -32.392700 -21.577200 -13.653200
C -31.920800 -20.777800 -13.312000
H -31.859300 -20.856300 -12.326900
O -31.693000 -17.446500 -12.000000
N -31.126400 -17.965200 -15.556900
H -30.966800 -15.985200 -15.141200
H -30.830800 -18.492700 -16.167800
H -30.796800 -16.322500 -16.700100
H -30.575800 -20.808300 -14.888000
C -30.570100 -16.624800 -15.785100
C -30.523500 -20.729600 -13.902200
H -30.382400 -18.891000 -13.878600
H -29.989300 -21.490000 -13.559500
N -29.861300 -19.447300 -13.536600
H -29.659900 -16.044800 -11.978500
H -29.158400 -14.188600 -10.666500
C -29.060800 -16.651000 -15.617000
C -28.990700 -15.435800 -12.268200
C -28.701900 -14.323800 -11.488400
H -28.682300 -17.380700 -16.167100
H -28.680200 -15.796300 -15.940300
N -28.676400 -16.853900 -14.204100
H -28.625000 -19.421500 -15.163400
C -28.523600 -19.343200 -14.181900
C -28.327000 -15.678500 -13.457900
H -27.951300 -20.088800 -13.873600
C -27.853800 -18.020700 -13.848500
C -27.744100 -13.405100 -11.910500
H -27.660200 -17.994100 -12.877700
H -27.551800 -12.639100 -11.383300
C -27.368600 -14.732200 -13.845700
C -27.081700 -13.611500 -13.085900
H -26.990800 -17.966500 -14.330700
N -26.613400 -14.895000 -15.100500
O -26.596600 -13.932600 -15.864500
H -26.427600 -12.990800 -13.380700
O -26.040000 -15.959700 -15.309300
H -47.298100 -17.824000 -10.504100
H -47.075000 -15.693100 -11.428400
C -46.560100 -17.624900 -11.069200
C -46.437700 -16.364600 -11.636500
H -45.687300 -19.460800 -10.959100
C -45.606100 -18.588600 -11.328200
C -45.402100 -16.075400 -12.497900
H -45.370700 -15.225000 -12.922100
H -44.658800 -16.876300 -15.182700
C -44.529800 -18.261600 -12.137300
C -44.398400 -17.011500 -12.758300
O -43.769000 -20.414200 -12.494300
C -43.675100 -16.941700 -15.081900
H -43.589800 -19.018900 -15.046800
H -43.511200 -18.421500 -16.531900
N -43.457200 -19.258700 -12.241000
N -43.312900 -16.764400 -13.656800
H -43.262600 -16.220700 -15.619100
C -43.201000 -18.296500 -15.600500
H -43.018200 -14.762800 -13.653200
C -42.546200 -15.562200 -13.312000
H -42.484800 -15.483700 -12.326900
O -42.318400 -18.893500 -12.000000
N -41.751900 -18.374800 -15.556900
H -41.592300 -20.354800 -15.141200
H -41.456300 -17.847300 -16.167800
H -41.422300 -20.017500 -16.700100
H -41.201200 -15.531700 -14.888000
C -41.195500 -19.715200 -15.785100
C -41.149000 -15.610400 -13.902200
H -41.007900 -17.449000 -13.878600
H -40.614700 -14.850000 -13.559500
N -40.486800 -16.892700 -13.536600
H -40.285300 -20.295200 -11.978500
H -39.783800 -22.151400 -10.666500
C -39.686300 -19.689000 -15.617000
C -39.616100 -20.904200 -12.268200
C -39.327300 -22.016200 -11.488400
H -39.307800 -18.959300 -16.167100
H -39.305700 -20.543700 -15.940300
N -39.301800 -19.486100 -14.204100
H -39.250400 -16.918500 -15.163400
C -39.149000 -16.996800 -14.181900
C -38.952500 -20.661500 -13.457900
H -38.576800 -16.251200 -13.873600
C -38.479200 -18.319300 -13.848500
C -38.369600 -22.934900 -11.910500
H -38.285600 -18.345900 -12.877700
H -38.177200 -23.700900 -11.383300
C -37.994100 -21.607800 -13.845700
C -37.707200 -22.728500 -13.085900
H -37.616200 -18.373500 -14.330700
N -37.238800 -21.445000 -15.100500
O -37.222000 -22.407400 -15.864500
H -37.053100 -23.349200 -13.380700
O -36.665500 -20.380300 -15.309300
