56
Fragment
H -36.672700 -18.516000 -10.504100
H -36.449500 -20.646900 -11.428400
C -35.934600 -18.715100 -11.069200
C -35.812200 -19.975400 -11.636500
H -35.061900 -16.879200 -10.959100
C -34.980700 -17.751400 -11.328200
C -34.776700 -20.264600 -12.497900
H -34.745200 -21.115000 -12.922100
H -34.033300 -19.463700 -15.182700
C -33.904300 -18.078400 -12.137300
C -33.773000 -19.328500 -12.758300
O -33.143500 -15.925800 -12.494300
C -33.049600 -19.398300 -15.081900
H -32.964400 -17.321100 -15.046800
H -32.885800 -17.918500 -16.531900
N -32.831800 -17.081300 -12.241000
N -32.687500 -19.575600 -13.656800
H -32.637100 -20.119300 -15.619100
C -32.575500 -18.043500 -15.600500
H -32.392700 -21.577200 -13.653200
C -31.920800 -20.777800 -13.312000
H -31.859300 -20.856300 -12.326900
O -31.693000 -17.446500 -12.000000
N -31.126400 -17.965200 -15.556900
H -30.966800 -15.985200 -15.141200
H -30.830800 -18.492700 -16.167800
H -30.796800 -16.322500 -16.700100
H -30.575800 -20.808300 -14.888000
C -30.570100 -16.624800 -15.785100
C -30.523500 -20.729600 -13.902200
H -30.382400 -18.891000 -13.878600
H -29.989300 -21.490000 -13.559500
N -29.861300 -19.447300 -13.536600
H -29.659900 -16.044800 -11.978500
H -29.158400 -14.188600 -10.666500
C -29.060800 -16.651000 -15.617000
C -28.990700 -15.435800 -12.268200
C -28.701900 -14.323800 -11.488400
H -28.682300 -17.380700 -16.167100
H -28.680200 -15.796300 -15.940300
N -28.676400 -16.853900 -14.204100
H -28.625000 -19.421500 -15.163400
C -28.523600 -19.343200 -14.181900
C -28.327000 -15.678500 -13.457900
H -27.951300 -20.088800 -13.873600
C -27.853800 -18.020700 -13.848500
C -27.744100 -13.405100 -11.910500
H -27.660200 -17.994100 -12.877700
H -27.551800 -12.639100 -11.383300
C -27.368600 -14.732200 -13.845700
C -27.081700 -13.611500 -13.085900
H -26.990800 -17.966500 -14.330700
N -26.613400 -14.895000 -15.100500
O -26.596600 -13.932600 -15.864500
H -26.427600 -12.990800 -13.380700
O -26.040000 -15.959700 -15.309300
56
Fragment
O -37.712700 -13.112300 -18.886300
H -37.325100 -16.081200 -16.957600
O -37.156100 -15.139400 -19.441400
N -37.139300 -14.177000 -18.677400
H -36.761900 -11.105500 -17.907600
C -36.671000 -15.460500 -16.662900
C -36.384100 -14.339800 -17.422600
H -36.200900 -16.432900 -14.960200
H -36.092500 -11.077900 -16.454700
C -36.008600 -15.666900 -15.487500
C -35.898900 -11.051300 -17.425500
H -35.801400 -8.983200 -17.450500
C -35.425700 -13.393500 -17.034900
C -35.229100 -9.728800 -17.758800
H -35.127700 -9.650500 -18.740400
N -35.076300 -12.218100 -17.781000
H -35.072500 -13.275700 -19.517300
H -35.070400 -11.691300 -19.744000
C -35.050800 -14.748200 -15.065400
C -34.762000 -13.636200 -15.845200
C -34.691900 -12.421000 -19.193900
H -34.594300 -14.883400 -14.243400
H -34.092800 -13.027200 -15.555400
N -33.891400 -9.624700 -17.113600
H -33.763400 -7.582000 -17.136500
H -33.370300 -10.181000 -17.455500
C -33.229200 -8.342400 -17.479100
C -33.182600 -12.447200 -19.362000
H -33.176900 -8.263700 -18.464900
H -32.955900 -12.749500 -20.277000
H -32.921900 -10.579300 -19.744800
H -32.785900 -13.086800 -18.718200
N -32.626300 -11.106800 -19.133800
O -32.059700 -11.625500 -15.576900
H -31.893400 -8.215700 -15.903800
C -31.831900 -8.294200 -16.888900
H -31.360000 -7.494800 -17.230200
C -31.177200 -11.028500 -19.177500
H -31.115600 -8.952700 -19.196100
N -31.065200 -9.496400 -17.233700
N -30.920900 -11.990700 -15.818000
H -30.866900 -11.153500 -20.108900
H -30.788300 -11.750900 -18.623700
C -30.703100 -9.673700 -18.658800
O -30.609200 -13.146200 -16.071200
C -29.979700 -9.743500 -16.335200
C -29.848400 -10.993600 -15.714300
H -29.719400 -9.608300 -18.759700
H -29.007500 -7.957000 -16.499000
C -28.976000 -8.807400 -16.074800
C -28.772000 -11.320600 -14.905200
H -28.690800 -12.192800 -14.536000
C -27.940500 -9.096600 -15.213500
C -27.818100 -10.356900 -14.646200
H -27.303200 -8.425100 -15.005300
H -27.080000 -10.556000 -14.081000
112
Fragment
H -36.672700 -18.516000 -10.504100
H -36.449500 -20.646900 -11.428400
C -35.934600 -18.715100 -11.069200
C -35.812200 -19.975400 -11.636500
H -35.061900 -16.879200 -10.959100
C -34.980700 -17.751400 -11.328200
C -34.776700 -20.264600 -12.497900
H -34.745200 -21.115000 -12.922100
H -34.033300 -19.463700 -15.182700
C -33.904300 -18.078400 -12.137300
C -33.773000 -19.328500 -12.758300
O -33.143500 -15.925800 -12.494300
C -33.049600 -19.398300 -15.081900
H -32.964400 -17.321100 -15.046800
H -32.885800 -17.918500 -16.531900
N -32.831800 -17.081300 -12.241000
N -32.687500 -19.575600 -13.656800
H -32.637100 -20.119300 -15.619100
C -32.575500 -18.043500 -15.600500
H -32.392700 -21.577200 -13.653200
C -31.920800 -20.777800 -13.312000
H -31.859300 -20.856300 -12.326900
O -31.693000 -17.446500 -12.000000
N -31.126400 -17.965200 -15.556900
H -30.966800 -15.985200 -15.141200
H -30.830800 -18.492700 -16.167800
H -30.796800 -16.322500 -16.700100
H -30.575800 -20.808300 -14.888000
C -30.570100 -16.624800 -15.785100
C -30.523500 -20.729600 -13.902200
H -30.382400 -18.891000 -13.878600
H -29.989300 -21.490000 -13.559500
N -29.861300 -19.447300 -13.536600
H -29.659900 -16.044800 -11.978500
H -29.158400 -14.188600 -10.666500
C -29.060800 -16.651000 -15.617000
C -28.990700 -15.435800 -12.268200
C -28.701900 -14.323800 -11.488400
H -28.682300 -17.380700 -16.167100
H -28.680200 -15.796300 -15.940300
N -28.676400 -16.853900 -14.204100
H -28.625000 -19.421500 -15.163400
C -28.523600 -19.343200 -14.181900
C -28.327000 -15.678500 -13.457900
H -27.951300 -20.088800 -13.873600
C -27.853800 -18.020700 -13.848500
C -27.744100 -13.405100 -11.910500
H -27.660200 -17.994100 -12.877700
H -27.551800 -12.639100 -11.383300
C -27.368600 -14.732200 -13.845700
C -27.081700 -13.611500 -13.085900
H -26.990800 -17.966500 -14.330700
N -26.613400 -14.895000 -15.100500
O -26.596600 -13.932600 -15.864500
H -26.427600 -12.990800 -13.380700
O -26.040000 -15.959700 -15.309300
O -37.712700 -13.112300 -18.886300
H -37.325100 -16.081200 -16.957600
O -37.156100 -15.139400 -19.441400
N -37.139300 -14.177000 -18.677400
H -36.761900 -11.105500 -17.907600
C -36.671000 -15.460500 -16.662900
C -36.384100 -14.339800 -17.422600
H -36.200900 -16.432900 -14.960200
H -36.092500 -11.077900 -16.454700
C -36.008600 -15.666900 -15.487500
C -35.898900 -11.051300 -17.425500
H -35.801400 -8.983200 -17.450500
C -35.425700 -13.393500 -17.034900
C -35.229100 -9.728800 -17.758800
H -35.127700 -9.650500 -18.740400
N -35.076300 -12.218100 -17.781000
H -35.072500 -13.275700 -19.517300
H -35.070400 -11.691300 -19.744000
C -35.050800 -14.748200 -15.065400
C -34.762000 -13.636200 -15.845200
C -34.691900 -12.421000 -19.193900
H -34.594300 -14.883400 -14.243400
H -34.092800 -13.027200 -15.555400
N -33.891400 -9.624700 -17.113600
H -33.763400 -7.582000 -17.136500
H -33.370300 -10.181000 -17.455500
C -33.229200 -8.342400 -17.479100
C -33.182600 -12.447200 -19.362000
H -33.176900 -8.263700 -18.464900
H -32.955900 -12.749500 -20.277000
H -32.921900 -10.579300 -19.744800
H -32.785900 -13.086800 -18.718200
N -32.626300 -11.106800 -19.133800
O -32.059700 -11.625500 -15.576900
H -31.893400 -8.215700 -15.903800
C -31.831900 -8.294200 -16.888900
H -31.360000 -7.494800 -17.230200
C -31.177200 -11.028500 -19.177500
H -31.115600 -8.952700 -19.196100
N -31.065200 -9.496400 -17.233700
N -30.920900 -11.990700 -15.818000
H -30.866900 -11.153500 -20.108900
H -30.788300 -11.750900 -18.623700
C -30.703100 -9.673700 -18.658800
O -30.609200 -13.146200 -16.071200
C -29.979700 -9.743500 -16.335200
C -29.848400 -10.993600 -15.714300
H -29.719400 -9.608300 -18.759700
H -29.007500 -7.957000 -16.499000
C -28.976000 -8.807400 -16.074800
C -28.772000 -11.320600 -14.905200
H -28.690800 -12.192800 -14.536000
C -27.940500 -9.096600 -15.213500
C -27.818100 -10.356900 -14.646200
H -27.303200 -8.425100 -15.005300
H -27.080000 -10.556000 -14.081000
