56
Fragment
H -36.672700 -18.516000 -10.504100
H -36.449500 -20.646900 -11.428400
C -35.934600 -18.715100 -11.069200
C -35.812200 -19.975400 -11.636500
H -35.061900 -16.879200 -10.959100
C -34.980700 -17.751400 -11.328200
C -34.776700 -20.264600 -12.497900
H -34.745200 -21.115000 -12.922100
H -34.033300 -19.463700 -15.182700
C -33.904300 -18.078400 -12.137300
C -33.773000 -19.328500 -12.758300
O -33.143500 -15.925800 -12.494300
C -33.049600 -19.398300 -15.081900
H -32.964400 -17.321100 -15.046800
H -32.885800 -17.918500 -16.531900
N -32.831800 -17.081300 -12.241000
N -32.687500 -19.575600 -13.656800
H -32.637100 -20.119300 -15.619100
C -32.575500 -18.043500 -15.600500
H -32.392700 -21.577200 -13.653200
C -31.920800 -20.777800 -13.312000
H -31.859300 -20.856300 -12.326900
O -31.693000 -17.446500 -12.000000
N -31.126400 -17.965200 -15.556900
H -30.966800 -15.985200 -15.141200
H -30.830800 -18.492700 -16.167800
H -30.796800 -16.322500 -16.700100
H -30.575800 -20.808300 -14.888000
C -30.570100 -16.624800 -15.785100
C -30.523500 -20.729600 -13.902200
H -30.382400 -18.891000 -13.878600
H -29.989300 -21.490000 -13.559500
N -29.861300 -19.447300 -13.536600
H -29.659900 -16.044800 -11.978500
H -29.158400 -14.188600 -10.666500
C -29.060800 -16.651000 -15.617000
C -28.990700 -15.435800 -12.268200
C -28.701900 -14.323800 -11.488400
H -28.682300 -17.380700 -16.167100
H -28.680200 -15.796300 -15.940300
N -28.676400 -16.853900 -14.204100
H -28.625000 -19.421500 -15.163400
C -28.523600 -19.343200 -14.181900
C -28.327000 -15.678500 -13.457900
H -27.951300 -20.088800 -13.873600
C -27.853800 -18.020700 -13.848500
C -27.744100 -13.405100 -11.910500
H -27.660200 -17.994100 -12.877700
H -27.551800 -12.639100 -11.383300
C -27.368600 -14.732200 -13.845700
C -27.081700 -13.611500 -13.085900
H -26.990800 -17.966500 -14.330700
N -26.613400 -14.895000 -15.100500
O -26.596600 -13.932600 -15.864500
H -26.427600 -12.990800 -13.380700
O -26.040000 -15.959700 -15.309300
56
Fragment
H -36.672700 -18.516000 -3.350200
H -36.449500 -20.646900 -4.274500
C -35.934600 -18.715100 -3.915300
C -35.812200 -19.975400 -4.482600
H -35.061900 -16.879200 -3.805200
C -34.980700 -17.751400 -4.174300
C -34.776700 -20.264600 -5.344000
H -34.745200 -21.115000 -5.768200
H -34.033300 -19.463700 -8.028800
C -33.904300 -18.078400 -4.983400
C -33.773000 -19.328500 -5.604400
O -33.143500 -15.925800 -5.340400
C -33.049600 -19.398300 -7.928000
H -32.964400 -17.321100 -7.892900
H -32.885800 -17.918500 -9.378000
N -32.831800 -17.081300 -5.087100
N -32.687500 -19.575600 -6.502900
H -32.637100 -20.119300 -8.465200
C -32.575500 -18.043500 -8.446600
H -32.392700 -21.577200 -6.499300
C -31.920800 -20.777800 -6.158100
H -31.859300 -20.856300 -5.173000
O -31.693000 -17.446500 -4.846100
N -31.126400 -17.965200 -8.403000
H -30.966800 -15.985200 -7.987300
H -30.830800 -18.492700 -9.013900
H -30.796800 -16.322500 -9.546200
H -30.575800 -20.808300 -7.734100
C -30.570100 -16.624800 -8.631200
C -30.523500 -20.729600 -6.748300
H -30.382400 -18.891000 -6.724700
H -29.989300 -21.490000 -6.405600
N -29.861300 -19.447300 -6.382700
H -29.659900 -16.044800 -4.824600
H -29.158400 -14.188600 -3.512600
C -29.060800 -16.651000 -8.463100
C -28.990700 -15.435800 -5.114300
C -28.701900 -14.323800 -4.334500
H -28.682300 -17.380700 -9.013200
H -28.680200 -15.796300 -8.786400
N -28.676400 -16.853900 -7.050200
H -28.625000 -19.421500 -8.009500
C -28.523600 -19.343200 -7.028000
C -28.327000 -15.678500 -6.304000
H -27.951300 -20.088800 -6.719700
C -27.853800 -18.020700 -6.694600
C -27.744100 -13.405100 -4.756600
H -27.660200 -17.994100 -5.723800
H -27.551800 -12.639100 -4.229400
C -27.368600 -14.732200 -6.691800
C -27.081700 -13.611500 -5.932000
H -26.990800 -17.966500 -7.176800
N -26.613400 -14.895000 -7.946600
O -26.596600 -13.932600 -8.710600
H -26.427600 -12.990800 -6.226800
O -26.040000 -15.959700 -8.155400
112
Fragment
H -36.672700 -18.516000 -10.504100
H -36.449500 -20.646900 -11.428400
C -35.934600 -18.715100 -11.069200
C -35.812200 -19.975400 -11.636500
H -35.061900 -16.879200 -10.959100
C -34.980700 -17.751400 -11.328200
C -34.776700 -20.264600 -12.497900
H -34.745200 -21.115000 -12.922100
H -34.033300 -19.463700 -15.182700
C -33.904300 -18.078400 -12.137300
C -33.773000 -19.328500 -12.758300
O -33.143500 -15.925800 -12.494300
C -33.049600 -19.398300 -15.081900
H -32.964400 -17.321100 -15.046800
H -32.885800 -17.918500 -16.531900
N -32.831800 -17.081300 -12.241000
N -32.687500 -19.575600 -13.656800
H -32.637100 -20.119300 -15.619100
C -32.575500 -18.043500 -15.600500
H -32.392700 -21.577200 -13.653200
C -31.920800 -20.777800 -13.312000
H -31.859300 -20.856300 -12.326900
O -31.693000 -17.446500 -12.000000
N -31.126400 -17.965200 -15.556900
H -30.966800 -15.985200 -15.141200
H -30.830800 -18.492700 -16.167800
H -30.796800 -16.322500 -16.700100
H -30.575800 -20.808300 -14.888000
C -30.570100 -16.624800 -15.785100
C -30.523500 -20.729600 -13.902200
H -30.382400 -18.891000 -13.878600
H -29.989300 -21.490000 -13.559500
N -29.861300 -19.447300 -13.536600
H -29.659900 -16.044800 -11.978500
H -29.158400 -14.188600 -10.666500
C -29.060800 -16.651000 -15.617000
C -28.990700 -15.435800 -12.268200
C -28.701900 -14.323800 -11.488400
H -28.682300 -17.380700 -16.167100
H -28.680200 -15.796300 -15.940300
N -28.676400 -16.853900 -14.204100
H -28.625000 -19.421500 -15.163400
C -28.523600 -19.343200 -14.181900
C -28.327000 -15.678500 -13.457900
H -27.951300 -20.088800 -13.873600
C -27.853800 -18.020700 -13.848500
C -27.744100 -13.405100 -11.910500
H -27.660200 -17.994100 -12.877700
H -27.551800 -12.639100 -11.383300
C -27.368600 -14.732200 -13.845700
C -27.081700 -13.611500 -13.085900
H -26.990800 -17.966500 -14.330700
N -26.613400 -14.895000 -15.100500
O -26.596600 -13.932600 -15.864500
H -26.427600 -12.990800 -13.380700
O -26.040000 -15.959700 -15.309300
H -36.672700 -18.516000 -3.350200
H -36.449500 -20.646900 -4.274500
C -35.934600 -18.715100 -3.915300
C -35.812200 -19.975400 -4.482600
H -35.061900 -16.879200 -3.805200
C -34.980700 -17.751400 -4.174300
C -34.776700 -20.264600 -5.344000
H -34.745200 -21.115000 -5.768200
H -34.033300 -19.463700 -8.028800
C -33.904300 -18.078400 -4.983400
C -33.773000 -19.328500 -5.604400
O -33.143500 -15.925800 -5.340400
C -33.049600 -19.398300 -7.928000
H -32.964400 -17.321100 -7.892900
H -32.885800 -17.918500 -9.378000
N -32.831800 -17.081300 -5.087100
N -32.687500 -19.575600 -6.502900
H -32.637100 -20.119300 -8.465200
C -32.575500 -18.043500 -8.446600
H -32.392700 -21.577200 -6.499300
C -31.920800 -20.777800 -6.158100
H -31.859300 -20.856300 -5.173000
O -31.693000 -17.446500 -4.846100
N -31.126400 -17.965200 -8.403000
H -30.966800 -15.985200 -7.987300
H -30.830800 -18.492700 -9.013900
H -30.796800 -16.322500 -9.546200
H -30.575800 -20.808300 -7.734100
C -30.570100 -16.624800 -8.631200
C -30.523500 -20.729600 -6.748300
H -30.382400 -18.891000 -6.724700
H -29.989300 -21.490000 -6.405600
N -29.861300 -19.447300 -6.382700
H -29.659900 -16.044800 -4.824600
H -29.158400 -14.188600 -3.512600
C -29.060800 -16.651000 -8.463100
C -28.990700 -15.435800 -5.114300
C -28.701900 -14.323800 -4.334500
H -28.682300 -17.380700 -9.013200
H -28.680200 -15.796300 -8.786400
N -28.676400 -16.853900 -7.050200
H -28.625000 -19.421500 -8.009500
C -28.523600 -19.343200 -7.028000
C -28.327000 -15.678500 -6.304000
H -27.951300 -20.088800 -6.719700
C -27.853800 -18.020700 -6.694600
C -27.744100 -13.405100 -4.756600
H -27.660200 -17.994100 -5.723800
H -27.551800 -12.639100 -4.229400
C -27.368600 -14.732200 -6.691800
C -27.081700 -13.611500 -5.932000
H -26.990800 -17.966500 -7.176800
N -26.613400 -14.895000 -7.946600
O -26.596600 -13.932600 -8.710600
H -26.427600 -12.990800 -6.226800
O -26.040000 -15.959700 -8.155400
