3
Fragment
H -6.541600 -16.171200 -30.416500
O -6.110000 -16.790300 -30.857000
H -5.331200 -16.936600 -30.499300
3
Fragment
H -8.904600 -15.313400 -33.253400
O -8.125700 -15.459700 -32.895800
H -7.694200 -16.078800 -33.336300
6
Fragment
H -6.541600 -16.171200 -30.416500
O -6.110000 -16.790300 -30.857000
H -5.331200 -16.936600 -30.499300
H -8.904600 -15.313400 -33.253400
O -8.125700 -15.459700 -32.895800
H -7.694200 -16.078800 -33.336300
