48
Fragment
H -14.746600 -22.138100 -22.148700
H -14.692100 -20.701800 -17.707500
H -14.395200 -20.596600 -22.395000
H -14.205400 -19.188000 -17.527700
N -14.133800 -18.960200 -20.388700
C -14.050200 -21.446000 -22.021600
H -13.922200 -18.326200 -19.849400
C -13.917200 -20.124600 -17.541600
N -13.803500 -21.274600 -20.597000
C -13.636300 -20.044000 -19.971200
H -13.516600 -20.356200 -16.678000
O -13.333700 -23.497300 -20.126100
C -13.247400 -22.318500 -19.834600
C -12.874500 -20.326700 -18.665200
H -12.782500 -22.841600 -22.940600
H -12.778800 -21.427100 -23.689600
C -12.772500 -21.861600 -22.800200
H -12.628800 -22.613300 -16.973700
N -12.611100 -21.762900 -18.785100
H -12.283200 -18.677200 -16.780900
C -12.006600 -22.547200 -17.728200
N -11.821800 -19.176800 -22.143700
H -11.803100 -23.445300 -18.063400
H -11.572600 -18.450600 -21.721500
C -11.558400 -19.525300 -18.469500
N -11.552500 -21.491900 -22.095300
C -11.508200 -18.723700 -17.328400
C -11.288300 -20.208800 -21.651800
H -11.179300 -22.113500 -17.432200
C -10.756500 -22.438300 -21.431600
O -10.707700 -23.624700 -21.706900
H -10.411200 -17.464100 -16.155500
C -10.394400 -17.990800 -16.945900
C -10.386100 -19.560900 -19.293400
C -10.172800 -20.325700 -20.621400
N -10.068300 -21.787800 -20.465100
C -9.282300 -18.809100 -18.877400
C -9.268100 -18.038500 -17.726000
H -9.215300 -23.356000 -19.553300
H -8.985600 -18.880900 -21.549000
C -8.978800 -22.425100 -19.747100
C -8.937800 -19.851100 -21.419000
H -8.920800 -20.297200 -22.291400
H -8.817500 -21.947300 -18.906800
H -8.499200 -18.827800 -19.414400
H -8.490500 -17.550900 -17.481200
H -8.167500 -22.401800 -20.296600
H -8.122600 -20.074200 -20.922200
48
Fragment
H -12.781700 -21.387900 -12.887300
H -12.736800 -19.060300 -12.261700
H -12.413800 -23.911200 -9.446300
H -12.405100 -22.634300 -11.379500
H -12.086800 -19.514800 -10.871900
H -11.983500 -21.164900 -14.256500
C -11.966400 -21.611000 -13.384100
C -11.925500 -19.037000 -11.712200
H -11.918700 -22.581200 -13.514100
H -11.688900 -18.106100 -11.518400
C -11.636100 -23.423600 -9.691100
C -11.621900 -22.653000 -10.842500
N -10.835900 -19.674300 -12.430200
C -10.731400 -21.136400 -12.586500
C -10.518200 -21.901200 -11.258500
C -10.509800 -23.471300 -8.911000
H -10.493000 -23.998000 -8.120600
O -10.196600 -17.837400 -13.672000
C -10.147800 -19.023800 -13.396700
H -9.725000 -19.348600 -9.397300
C -9.616000 -21.253300 -13.616900
C -9.396000 -22.738400 -9.293500
N -9.351700 -19.970200 -14.060400
C -9.345900 -21.936800 -10.434600
H -9.331700 -23.011500 -13.686600
H -9.101100 -18.016800 -10.028500
N -9.082500 -22.285300 -14.108800
C -8.897700 -18.914900 -9.693300
H -8.621100 -22.784900 -8.746000
N -8.293100 -19.699200 -10.750200
H -8.275400 -18.848800 -8.938800
C -8.131800 -19.600500 -14.765300
H -8.125500 -20.035000 -15.654700
H -8.121700 -18.620500 -14.905700
C -8.029700 -21.135400 -10.630300
C -7.656800 -19.143600 -11.799700
O -7.570500 -17.964800 -12.091200
H -7.387600 -21.105900 -8.643100
C -7.268000 -21.418100 -11.936300
N -7.100800 -20.187500 -12.562100
C -6.987000 -21.337500 -9.506700
H -6.982000 -23.135900 -11.814500
C -6.854100 -20.016100 -13.986700
N -6.770500 -22.501900 -12.353800
H -6.698900 -22.274100 -9.492800
H -6.509100 -20.865500 -14.360100
H -6.212200 -20.760300 -9.672600
H -6.157600 -19.324000 -14.113800
96
Fragment
H -14.746600 -22.138100 -22.148700
H -14.692100 -20.701800 -17.707500
H -14.395200 -20.596600 -22.395000
H -14.205400 -19.188000 -17.527700
N -14.133800 -18.960200 -20.388700
C -14.050200 -21.446000 -22.021600
H -13.922200 -18.326200 -19.849400
C -13.917200 -20.124600 -17.541600
N -13.803500 -21.274600 -20.597000
C -13.636300 -20.044000 -19.971200
H -13.516600 -20.356200 -16.678000
O -13.333700 -23.497300 -20.126100
C -13.247400 -22.318500 -19.834600
C -12.874500 -20.326700 -18.665200
H -12.782500 -22.841600 -22.940600
H -12.778800 -21.427100 -23.689600
C -12.772500 -21.861600 -22.800200
H -12.628800 -22.613300 -16.973700
N -12.611100 -21.762900 -18.785100
H -12.283200 -18.677200 -16.780900
C -12.006600 -22.547200 -17.728200
N -11.821800 -19.176800 -22.143700
H -11.803100 -23.445300 -18.063400
H -11.572600 -18.450600 -21.721500
C -11.558400 -19.525300 -18.469500
N -11.552500 -21.491900 -22.095300
C -11.508200 -18.723700 -17.328400
C -11.288300 -20.208800 -21.651800
H -11.179300 -22.113500 -17.432200
C -10.756500 -22.438300 -21.431600
O -10.707700 -23.624700 -21.706900
H -10.411200 -17.464100 -16.155500
C -10.394400 -17.990800 -16.945900
C -10.386100 -19.560900 -19.293400
C -10.172800 -20.325700 -20.621400
N -10.068300 -21.787800 -20.465100
C -9.282300 -18.809100 -18.877400
C -9.268100 -18.038500 -17.726000
H -9.215300 -23.356000 -19.553300
H -8.985600 -18.880900 -21.549000
C -8.978800 -22.425100 -19.747100
C -8.937800 -19.851100 -21.419000
H -8.920800 -20.297200 -22.291400
H -8.817500 -21.947300 -18.906800
H -8.499200 -18.827800 -19.414400
H -8.490500 -17.550900 -17.481200
H -8.167500 -22.401800 -20.296600
H -8.122600 -20.074200 -20.922200
H -12.781700 -21.387900 -12.887300
H -12.736800 -19.060300 -12.261700
H -12.413800 -23.911200 -9.446300
H -12.405100 -22.634300 -11.379500
H -12.086800 -19.514800 -10.871900
H -11.983500 -21.164900 -14.256500
C -11.966400 -21.611000 -13.384100
C -11.925500 -19.037000 -11.712200
H -11.918700 -22.581200 -13.514100
H -11.688900 -18.106100 -11.518400
C -11.636100 -23.423600 -9.691100
C -11.621900 -22.653000 -10.842500
N -10.835900 -19.674300 -12.430200
C -10.731400 -21.136400 -12.586500
C -10.518200 -21.901200 -11.258500
C -10.509800 -23.471300 -8.911000
H -10.493000 -23.998000 -8.120600
O -10.196600 -17.837400 -13.672000
C -10.147800 -19.023800 -13.396700
H -9.725000 -19.348600 -9.397300
C -9.616000 -21.253300 -13.616900
C -9.396000 -22.738400 -9.293500
N -9.351700 -19.970200 -14.060400
C -9.345900 -21.936800 -10.434600
H -9.331700 -23.011500 -13.686600
H -9.101100 -18.016800 -10.028500
N -9.082500 -22.285300 -14.108800
C -8.897700 -18.914900 -9.693300
H -8.621100 -22.784900 -8.746000
N -8.293100 -19.699200 -10.750200
H -8.275400 -18.848800 -8.938800
C -8.131800 -19.600500 -14.765300
H -8.125500 -20.035000 -15.654700
H -8.121700 -18.620500 -14.905700
C -8.029700 -21.135400 -10.630300
C -7.656800 -19.143600 -11.799700
O -7.570500 -17.964800 -12.091200
H -7.387600 -21.105900 -8.643100
C -7.268000 -21.418100 -11.936300
N -7.100800 -20.187500 -12.562100
C -6.987000 -21.337500 -9.506700
H -6.982000 -23.135900 -11.814500
C -6.854100 -20.016100 -13.986700
N -6.770500 -22.501900 -12.353800
H -6.698900 -22.274100 -9.492800
H -6.509100 -20.865500 -14.360100
H -6.212200 -20.760300 -9.672600
H -6.157600 -19.324000 -14.113800
