13
Fragment
H -20.778600 -12.280900 -28.393200
H -20.681700 -11.564600 -27.021300
N -20.358100 -12.048600 -27.677400
F -19.200100 -13.724500 -29.518600
C -19.137200 -12.526700 -27.463100
C -18.519400 -13.403300 -28.398900
N -18.488100 -12.179500 -26.346100
C -17.310200 -13.920600 -28.137100
C -17.247700 -12.671100 -26.104100
H -16.900400 -14.528500 -28.742000
N -16.682700 -13.555900 -26.986400
O -16.609500 -12.335000 -25.078500
H -15.893500 -13.897400 -26.803100
13
Fragment
H -20.572900 -17.446300 -30.312400
H -20.373900 -16.570800 -29.071100
N -20.041600 -17.094600 -29.731500
F -18.988600 -18.926300 -31.501200
C -18.811100 -17.566100 -29.545600
C -18.241500 -18.498000 -30.462700
N -18.099000 -17.130000 -28.504500
C -16.987500 -18.930700 -30.274500
C -16.824000 -17.558100 -28.328800
H -16.592700 -19.548300 -30.879400
N -16.292900 -18.472800 -29.208800
O -16.122300 -17.134400 -27.390100
H -15.474700 -18.769100 -29.074700
26
Fragment
H -20.778600 -12.280900 -28.393200
H -20.681700 -11.564600 -27.021300
N -20.358100 -12.048600 -27.677400
F -19.200100 -13.724500 -29.518600
C -19.137200 -12.526700 -27.463100
C -18.519400 -13.403300 -28.398900
N -18.488100 -12.179500 -26.346100
C -17.310200 -13.920600 -28.137100
C -17.247700 -12.671100 -26.104100
H -16.900400 -14.528500 -28.742000
N -16.682700 -13.555900 -26.986400
O -16.609500 -12.335000 -25.078500
H -15.893500 -13.897400 -26.803100
H -20.572900 -17.446300 -30.312400
H -20.373900 -16.570800 -29.071100
N -20.041600 -17.094600 -29.731500
F -18.988600 -18.926300 -31.501200
C -18.811100 -17.566100 -29.545600
C -18.241500 -18.498000 -30.462700
N -18.099000 -17.130000 -28.504500
C -16.987500 -18.930700 -30.274500
C -16.824000 -17.558100 -28.328800
H -16.592700 -19.548300 -30.879400
N -16.292900 -18.472800 -29.208800
O -16.122300 -17.134400 -27.390100
H -15.474700 -18.769100 -29.074700
