13
Fragment
H -20.778600 -12.280900 -28.393200
H -20.681700 -11.564600 -27.021300
N -20.358100 -12.048600 -27.677400
F -19.200100 -13.724500 -29.518600
C -19.137200 -12.526700 -27.463100
C -18.519400 -13.403300 -28.398900
N -18.488100 -12.179500 -26.346100
C -17.310200 -13.920600 -28.137100
C -17.247700 -12.671100 -26.104100
H -16.900400 -14.528500 -28.742000
N -16.682700 -13.555900 -26.986400
O -16.609500 -12.335000 -25.078500
H -15.893500 -13.897400 -26.803100
13
Fragment
H -20.572900 -9.487200 -30.312400
H -20.373900 -8.611700 -29.071100
N -20.041600 -9.135500 -29.731500
F -18.988600 -10.967200 -31.501200
C -18.811100 -9.607000 -29.545600
C -18.241500 -10.538900 -30.462700
N -18.099000 -9.170900 -28.504500
C -16.987500 -10.971600 -30.274500
C -16.824000 -9.599000 -28.328800
H -16.592700 -11.589200 -30.879400
N -16.292900 -10.513700 -29.208800
O -16.122300 -9.175300 -27.390100
H -15.474700 -10.810000 -29.074700
26
Fragment
H -20.778600 -12.280900 -28.393200
H -20.681700 -11.564600 -27.021300
N -20.358100 -12.048600 -27.677400
F -19.200100 -13.724500 -29.518600
C -19.137200 -12.526700 -27.463100
C -18.519400 -13.403300 -28.398900
N -18.488100 -12.179500 -26.346100
C -17.310200 -13.920600 -28.137100
C -17.247700 -12.671100 -26.104100
H -16.900400 -14.528500 -28.742000
N -16.682700 -13.555900 -26.986400
O -16.609500 -12.335000 -25.078500
H -15.893500 -13.897400 -26.803100
H -20.572900 -9.487200 -30.312400
H -20.373900 -8.611700 -29.071100
N -20.041600 -9.135500 -29.731500
F -18.988600 -10.967200 -31.501200
C -18.811100 -9.607000 -29.545600
C -18.241500 -10.538900 -30.462700
N -18.099000 -9.170900 -28.504500
C -16.987500 -10.971600 -30.274500
C -16.824000 -9.599000 -28.328800
H -16.592700 -11.589200 -30.879400
N -16.292900 -10.513700 -29.208800
O -16.122300 -9.175300 -27.390100
H -15.474700 -10.810000 -29.074700
