13
Fragment
H -20.778600 -12.280900 -28.393200
H -20.681700 -11.564600 -27.021300
N -20.358100 -12.048600 -27.677400
F -19.200100 -13.724500 -29.518600
C -19.137200 -12.526700 -27.463100
C -18.519400 -13.403300 -28.398900
N -18.488100 -12.179500 -26.346100
C -17.310200 -13.920600 -28.137100
C -17.247700 -12.671100 -26.104100
H -16.900400 -14.528500 -28.742000
N -16.682700 -13.555900 -26.986400
O -16.609500 -12.335000 -25.078500
H -15.893500 -13.897400 -26.803100
15
Fragment
H -23.113100 -10.864200 -28.382500
N -23.063800 -10.479300 -29.127800
H -22.983300 -9.598700 -29.089000
C -22.659000 -11.180600 -30.207400
N -22.601800 -12.541900 -30.128900
H -22.433200 -14.971100 -30.523500
N -22.322000 -14.549200 -31.301600
C -22.322000 -13.203400 -31.301600
N -22.322000 -10.453500 -31.301600
H -22.210700 -14.971100 -32.079600
N -22.042100 -12.541900 -32.474200
C -21.985000 -11.180600 -32.395700
H -21.660700 -9.598700 -33.514100
N -21.580100 -10.479300 -33.475300
H -21.530900 -10.864200 -34.220700
28
Fragment
H -20.778600 -12.280900 -28.393200
H -20.681700 -11.564600 -27.021300
N -20.358100 -12.048600 -27.677400
F -19.200100 -13.724500 -29.518600
C -19.137200 -12.526700 -27.463100
C -18.519400 -13.403300 -28.398900
N -18.488100 -12.179500 -26.346100
C -17.310200 -13.920600 -28.137100
C -17.247700 -12.671100 -26.104100
H -16.900400 -14.528500 -28.742000
N -16.682700 -13.555900 -26.986400
O -16.609500 -12.335000 -25.078500
H -15.893500 -13.897400 -26.803100
H -23.113100 -10.864200 -28.382500
N -23.063800 -10.479300 -29.127800
H -22.983300 -9.598700 -29.089000
C -22.659000 -11.180600 -30.207400
N -22.601800 -12.541900 -30.128900
H -22.433200 -14.971100 -30.523500
N -22.322000 -14.549200 -31.301600
C -22.322000 -13.203400 -31.301600
N -22.322000 -10.453500 -31.301600
H -22.210700 -14.971100 -32.079600
N -22.042100 -12.541900 -32.474200
C -21.985000 -11.180600 -32.395700
H -21.660700 -9.598700 -33.514100
N -21.580100 -10.479300 -33.475300
H -21.530900 -10.864200 -34.220700
