13
Fragment
H -20.778600 -12.280900 -28.393200
H -20.681700 -11.564600 -27.021300
N -20.358100 -12.048600 -27.677400
F -19.200100 -13.724500 -29.518600
C -19.137200 -12.526700 -27.463100
C -18.519400 -13.403300 -28.398900
N -18.488100 -12.179500 -26.346100
C -17.310200 -13.920600 -28.137100
C -17.247700 -12.671100 -26.104100
H -16.900400 -14.528500 -28.742000
N -16.682700 -13.555900 -26.986400
O -16.609500 -12.335000 -25.078500
H -15.893500 -13.897400 -26.803100
13
Fragment
H -24.101700 -9.087700 -24.585100
O -23.454200 -10.722400 -26.269700
N -23.283600 -9.384100 -24.451000
H -22.983700 -8.308500 -22.780400
C -22.752400 -10.298800 -25.331000
C -22.588900 -8.926100 -23.385300
N -21.477500 -10.726900 -25.155400
C -21.334900 -9.358900 -23.197100
C -20.765400 -10.290700 -24.114200
F -20.587800 -8.930600 -22.158600
N -19.534900 -10.762300 -23.928300
H -19.202500 -11.286000 -24.588700
H -19.003600 -10.410500 -23.347400
26
Fragment
H -20.778600 -12.280900 -28.393200
H -20.681700 -11.564600 -27.021300
N -20.358100 -12.048600 -27.677400
F -19.200100 -13.724500 -29.518600
C -19.137200 -12.526700 -27.463100
C -18.519400 -13.403300 -28.398900
N -18.488100 -12.179500 -26.346100
C -17.310200 -13.920600 -28.137100
C -17.247700 -12.671100 -26.104100
H -16.900400 -14.528500 -28.742000
N -16.682700 -13.555900 -26.986400
O -16.609500 -12.335000 -25.078500
H -15.893500 -13.897400 -26.803100
H -24.101700 -9.087700 -24.585100
O -23.454200 -10.722400 -26.269700
N -23.283600 -9.384100 -24.451000
H -22.983700 -8.308500 -22.780400
C -22.752400 -10.298800 -25.331000
C -22.588900 -8.926100 -23.385300
N -21.477500 -10.726900 -25.155400
C -21.334900 -9.358900 -23.197100
C -20.765400 -10.290700 -24.114200
F -20.587800 -8.930600 -22.158600
N -19.534900 -10.762300 -23.928300
H -19.202500 -11.286000 -24.588700
H -19.003600 -10.410500 -23.347400
