13
Fragment
H -20.778600 -12.280900 -28.393200
H -20.681700 -11.564600 -27.021300
N -20.358100 -12.048600 -27.677400
F -19.200100 -13.724500 -29.518600
C -19.137200 -12.526700 -27.463100
C -18.519400 -13.403300 -28.398900
N -18.488100 -12.179500 -26.346100
C -17.310200 -13.920600 -28.137100
C -17.247700 -12.671100 -26.104100
H -16.900400 -14.528500 -28.742000
N -16.682700 -13.555900 -26.986400
O -16.609500 -12.335000 -25.078500
H -15.893500 -13.897400 -26.803100
13
Fragment
H -14.930200 -13.067300 -24.585100
O -14.282700 -14.702000 -26.269700
N -14.112100 -13.363600 -24.451000
H -13.812200 -12.288100 -22.780400
C -13.580900 -14.278300 -25.331000
C -13.417400 -12.905700 -23.385300
N -12.306000 -14.706400 -25.155400
C -12.163400 -13.338400 -23.197100
C -11.593900 -14.270300 -24.114200
F -11.416300 -12.910100 -22.158600
N -10.363400 -14.741800 -23.928300
H -10.031000 -15.265600 -24.588700
H -9.832100 -14.390100 -23.347400
26
Fragment
H -20.778600 -12.280900 -28.393200
H -20.681700 -11.564600 -27.021300
N -20.358100 -12.048600 -27.677400
F -19.200100 -13.724500 -29.518600
C -19.137200 -12.526700 -27.463100
C -18.519400 -13.403300 -28.398900
N -18.488100 -12.179500 -26.346100
C -17.310200 -13.920600 -28.137100
C -17.247700 -12.671100 -26.104100
H -16.900400 -14.528500 -28.742000
N -16.682700 -13.555900 -26.986400
O -16.609500 -12.335000 -25.078500
H -15.893500 -13.897400 -26.803100
H -14.930200 -13.067300 -24.585100
O -14.282700 -14.702000 -26.269700
N -14.112100 -13.363600 -24.451000
H -13.812200 -12.288100 -22.780400
C -13.580900 -14.278300 -25.331000
C -13.417400 -12.905700 -23.385300
N -12.306000 -14.706400 -25.155400
C -12.163400 -13.338400 -23.197100
C -11.593900 -14.270300 -24.114200
F -11.416300 -12.910100 -22.158600
N -10.363400 -14.741800 -23.928300
H -10.031000 -15.265600 -24.588700
H -9.832100 -14.390100 -23.347400
