13
Fragment
H -20.778600 -12.280900 -28.393200
H -20.681700 -11.564600 -27.021300
N -20.358100 -12.048600 -27.677400
F -19.200100 -13.724500 -29.518600
C -19.137200 -12.526700 -27.463100
C -18.519400 -13.403300 -28.398900
N -18.488100 -12.179500 -26.346100
C -17.310200 -13.920600 -28.137100
C -17.247700 -12.671100 -26.104100
H -16.900400 -14.528500 -28.742000
N -16.682700 -13.555900 -26.986400
O -16.609500 -12.335000 -25.078500
H -15.893500 -13.897400 -26.803100
13
Fragment
H -23.683000 -13.959500 -26.856700
O -22.966900 -15.521800 -28.581400
N -22.893800 -14.300900 -26.673400
H -22.676100 -13.328300 -24.917800
C -22.328800 -15.185700 -27.555800
C -22.266200 -13.936200 -25.522800
N -21.088300 -15.677400 -27.313700
C -21.057100 -14.453600 -25.260900
C -20.439200 -15.330100 -26.196700
F -20.376400 -14.132300 -24.141200
N -19.218300 -15.808200 -25.982400
H -18.894700 -16.292300 -26.638500
H -18.797900 -15.576000 -25.266600
26
Fragment
H -20.778600 -12.280900 -28.393200
H -20.681700 -11.564600 -27.021300
N -20.358100 -12.048600 -27.677400
F -19.200100 -13.724500 -29.518600
C -19.137200 -12.526700 -27.463100
C -18.519400 -13.403300 -28.398900
N -18.488100 -12.179500 -26.346100
C -17.310200 -13.920600 -28.137100
C -17.247700 -12.671100 -26.104100
H -16.900400 -14.528500 -28.742000
N -16.682700 -13.555900 -26.986400
O -16.609500 -12.335000 -25.078500
H -15.893500 -13.897400 -26.803100
H -23.683000 -13.959500 -26.856700
O -22.966900 -15.521800 -28.581400
N -22.893800 -14.300900 -26.673400
H -22.676100 -13.328300 -24.917800
C -22.328800 -15.185700 -27.555800
C -22.266200 -13.936200 -25.522800
N -21.088300 -15.677400 -27.313700
C -21.057100 -14.453600 -25.260900
C -20.439200 -15.330100 -26.196700
F -20.376400 -14.132300 -24.141200
N -19.218300 -15.808200 -25.982400
H -18.894700 -16.292300 -26.638500
H -18.797900 -15.576000 -25.266600
