19
Fragment
H -19.859400 -23.545500 -15.353400
O -19.435900 -24.248100 -15.173200
O -18.938500 -28.910500 -15.227400
H -18.852900 -26.510100 -15.114500
C -18.218900 -23.940000 -14.795100
C -17.969700 -26.432300 -14.772900
N -17.808600 -28.872400 -14.785700
O -17.780300 -22.820900 -14.662100
C -17.415200 -25.181000 -14.521200
C -17.212200 -27.560400 -14.516600
O -17.128300 -29.858600 -14.552300
C -16.120400 -25.074900 -14.013700
C -15.916800 -27.508000 -14.017700
H -15.734300 -24.225100 -13.836900
C -15.410900 -26.243900 -13.773800
H -15.408600 -28.293500 -13.853600
N -14.046100 -26.135800 -13.222900
O -13.579600 -25.024700 -13.058300
O -13.460300 -27.179500 -12.974000
21
Fragment
H -11.482600 -28.388700 -12.596400
N -10.764700 -30.239900 -12.211000
C -10.749200 -28.905800 -12.285100
H -10.629100 -32.975000 -10.987300
H -10.261600 -33.008400 -12.544600
C -9.894800 -32.999800 -11.636000
N -9.590100 -28.374600 -11.874500
C -9.534600 -30.561700 -11.718700
H -9.464600 -27.414200 -11.811600
H -9.358900 -33.807600 -11.492200
N -9.046400 -31.811500 -11.461400
C -8.789900 -29.430200 -11.499600
C -7.769400 -31.952300 -10.944300
C -7.477000 -29.473600 -10.960400
O -7.286900 -33.039400 -10.691400
N -7.035800 -30.771500 -10.723300
O -6.772500 -28.490000 -10.704300
H -5.728000 -31.483700 -9.355200
C -5.680700 -30.951400 -10.176700
H -5.290600 -30.075200 -9.976100
H -5.121900 -31.415000 -10.834800
40
Fragment
H -19.859400 -23.545500 -15.353400
O -19.435900 -24.248100 -15.173200
O -18.938500 -28.910500 -15.227400
H -18.852900 -26.510100 -15.114500
C -18.218900 -23.940000 -14.795100
C -17.969700 -26.432300 -14.772900
N -17.808600 -28.872400 -14.785700
O -17.780300 -22.820900 -14.662100
C -17.415200 -25.181000 -14.521200
C -17.212200 -27.560400 -14.516600
O -17.128300 -29.858600 -14.552300
C -16.120400 -25.074900 -14.013700
C -15.916800 -27.508000 -14.017700
H -15.734300 -24.225100 -13.836900
C -15.410900 -26.243900 -13.773800
H -15.408600 -28.293500 -13.853600
N -14.046100 -26.135800 -13.222900
O -13.579600 -25.024700 -13.058300
O -13.460300 -27.179500 -12.974000
H -11.482600 -28.388700 -12.596400
N -10.764700 -30.239900 -12.211000
C -10.749200 -28.905800 -12.285100
H -10.629100 -32.975000 -10.987300
H -10.261600 -33.008400 -12.544600
C -9.894800 -32.999800 -11.636000
N -9.590100 -28.374600 -11.874500
C -9.534600 -30.561700 -11.718700
H -9.464600 -27.414200 -11.811600
H -9.358900 -33.807600 -11.492200
N -9.046400 -31.811500 -11.461400
C -8.789900 -29.430200 -11.499600
C -7.769400 -31.952300 -10.944300
C -7.477000 -29.473600 -10.960400
O -7.286900 -33.039400 -10.691400
N -7.035800 -30.771500 -10.723300
O -6.772500 -28.490000 -10.704300
H -5.728000 -31.483700 -9.355200
C -5.680700 -30.951400 -10.176700
H -5.290600 -30.075200 -9.976100
H -5.121900 -31.415000 -10.834800
