19
Fragment
H -19.859400 -23.545500 -15.353400
O -19.435900 -24.248100 -15.173200
O -18.938500 -28.910500 -15.227400
H -18.852900 -26.510100 -15.114500
C -18.218900 -23.940000 -14.795100
C -17.969700 -26.432300 -14.772900
N -17.808600 -28.872400 -14.785700
O -17.780300 -22.820900 -14.662100
C -17.415200 -25.181000 -14.521200
C -17.212200 -27.560400 -14.516600
O -17.128300 -29.858600 -14.552300
C -16.120400 -25.074900 -14.013700
C -15.916800 -27.508000 -14.017700
H -15.734300 -24.225100 -13.836900
C -15.410900 -26.243900 -13.773800
H -15.408600 -28.293500 -13.853600
N -14.046100 -26.135800 -13.222900
O -13.579600 -25.024700 -13.058300
O -13.460300 -27.179500 -12.974000
21
Fragment
H -11.146400 -22.729600 -11.578000
H -10.977700 -24.069500 -12.436800
C -10.587500 -23.193200 -12.236200
H -10.540300 -22.660900 -13.057600
O -9.495700 -25.654700 -11.708600
N -9.232400 -23.373200 -11.689500
O -8.981300 -21.105300 -11.721500
C -8.791300 -24.671100 -11.452400
C -8.498800 -22.192300 -11.468500
C -7.478400 -24.714400 -10.913300
N -7.221900 -22.333100 -10.951500
H -6.909300 -20.337000 -10.920700
H -6.803700 -26.730400 -10.601300
C -6.733600 -23.582900 -10.694200
N -6.678100 -25.770100 -10.538300
C -6.373500 -21.144900 -10.776900
H -6.006600 -21.136200 -9.868300
H -5.639100 -21.169600 -11.425500
C -5.519100 -25.238800 -10.127700
N -5.503600 -23.904700 -10.201900
H -4.785600 -25.756000 -9.816500
40
Fragment
H -19.859400 -23.545500 -15.353400
O -19.435900 -24.248100 -15.173200
O -18.938500 -28.910500 -15.227400
H -18.852900 -26.510100 -15.114500
C -18.218900 -23.940000 -14.795100
C -17.969700 -26.432300 -14.772900
N -17.808600 -28.872400 -14.785700
O -17.780300 -22.820900 -14.662100
C -17.415200 -25.181000 -14.521200
C -17.212200 -27.560400 -14.516600
O -17.128300 -29.858600 -14.552300
C -16.120400 -25.074900 -14.013700
C -15.916800 -27.508000 -14.017700
H -15.734300 -24.225100 -13.836900
C -15.410900 -26.243900 -13.773800
H -15.408600 -28.293500 -13.853600
N -14.046100 -26.135800 -13.222900
O -13.579600 -25.024700 -13.058300
O -13.460300 -27.179500 -12.974000
H -11.146400 -22.729600 -11.578000
H -10.977700 -24.069500 -12.436800
C -10.587500 -23.193200 -12.236200
H -10.540300 -22.660900 -13.057600
O -9.495700 -25.654700 -11.708600
N -9.232400 -23.373200 -11.689500
O -8.981300 -21.105300 -11.721500
C -8.791300 -24.671100 -11.452400
C -8.498800 -22.192300 -11.468500
C -7.478400 -24.714400 -10.913300
N -7.221900 -22.333100 -10.951500
H -6.909300 -20.337000 -10.920700
H -6.803700 -26.730400 -10.601300
C -6.733600 -23.582900 -10.694200
N -6.678100 -25.770100 -10.538300
C -6.373500 -21.144900 -10.776900
H -6.006600 -21.136200 -9.868300
H -5.639100 -21.169600 -11.425500
C -5.519100 -25.238800 -10.127700
N -5.503600 -23.904700 -10.201900
H -4.785600 -25.756000 -9.816500
