19
Fragment
H -19.859400 -23.545500 -15.353400
O -19.435900 -24.248100 -15.173200
O -18.938500 -28.910500 -15.227400
H -18.852900 -26.510100 -15.114500
C -18.218900 -23.940000 -14.795100
C -17.969700 -26.432300 -14.772900
N -17.808600 -28.872400 -14.785700
O -17.780300 -22.820900 -14.662100
C -17.415200 -25.181000 -14.521200
C -17.212200 -27.560400 -14.516600
O -17.128300 -29.858600 -14.552300
C -16.120400 -25.074900 -14.013700
C -15.916800 -27.508000 -14.017700
H -15.734300 -24.225100 -13.836900
C -15.410900 -26.243900 -13.773800
H -15.408600 -28.293500 -13.853600
N -14.046100 -26.135800 -13.222900
O -13.579600 -25.024700 -13.058300
O -13.460300 -27.179500 -12.974000
19
Fragment
O -18.601600 -19.444600 -15.042000
O -18.482200 -17.289800 -14.957800
N -18.015800 -18.400800 -14.793100
H -16.653300 -20.558600 -14.162400
C -16.651000 -18.509000 -14.242200
H -16.327500 -16.490100 -14.179100
C -16.145100 -19.773000 -13.998400
C -15.941500 -17.339900 -14.002300
O -14.933500 -22.123700 -13.463700
C -14.849700 -19.825500 -13.499500
C -14.646700 -17.446000 -13.494900
O -14.281600 -15.085900 -13.353900
N -14.253200 -21.137500 -13.230300
C -14.092200 -18.697400 -13.243200
C -13.843000 -16.205000 -13.221000
H -13.209000 -18.775200 -12.901500
O -13.123400 -21.175500 -12.788700
O -12.626000 -16.513200 -12.842900
H -12.202500 -15.810500 -12.662700
38
Fragment
H -19.859400 -23.545500 -15.353400
O -19.435900 -24.248100 -15.173200
O -18.938500 -28.910500 -15.227400
H -18.852900 -26.510100 -15.114500
C -18.218900 -23.940000 -14.795100
C -17.969700 -26.432300 -14.772900
N -17.808600 -28.872400 -14.785700
O -17.780300 -22.820900 -14.662100
C -17.415200 -25.181000 -14.521200
C -17.212200 -27.560400 -14.516600
O -17.128300 -29.858600 -14.552300
C -16.120400 -25.074900 -14.013700
C -15.916800 -27.508000 -14.017700
H -15.734300 -24.225100 -13.836900
C -15.410900 -26.243900 -13.773800
H -15.408600 -28.293500 -13.853600
N -14.046100 -26.135800 -13.222900
O -13.579600 -25.024700 -13.058300
O -13.460300 -27.179500 -12.974000
O -18.601600 -19.444600 -15.042000
O -18.482200 -17.289800 -14.957800
N -18.015800 -18.400800 -14.793100
H -16.653300 -20.558600 -14.162400
C -16.651000 -18.509000 -14.242200
H -16.327500 -16.490100 -14.179100
C -16.145100 -19.773000 -13.998400
C -15.941500 -17.339900 -14.002300
O -14.933500 -22.123700 -13.463700
C -14.849700 -19.825500 -13.499500
C -14.646700 -17.446000 -13.494900
O -14.281600 -15.085900 -13.353900
N -14.253200 -21.137500 -13.230300
C -14.092200 -18.697400 -13.243200
C -13.843000 -16.205000 -13.221000
H -13.209000 -18.775200 -12.901500
O -13.123400 -21.175500 -12.788700
O -12.626000 -16.513200 -12.842900
H -12.202500 -15.810500 -12.662700
