21
Fragment
O -12.717100 -37.457600 -21.708600
H -12.378000 -39.885400 -22.015000
H -12.185200 -43.228700 -21.212000
O -12.176500 -42.300900 -21.650800
C -12.105200 -37.397200 -22.752900
H -12.094100 -35.587300 -22.842000
C -11.876900 -39.862600 -22.868200
O -11.780900 -36.279100 -23.355300
C -11.635400 -38.623900 -23.462500
C -11.591900 -42.366800 -22.831100
C -11.396900 -41.023800 -23.464600
O -11.220000 -43.400300 -23.351500
C -10.920200 -38.542700 -24.655000
H -10.733200 -37.656600 -25.063800
C -10.703100 -40.950200 -24.668100
C -10.476800 -39.715500 -25.268400
H -10.385500 -41.817800 -25.065400
C -9.778100 -39.611800 -26.589000
O -9.516600 -40.804900 -27.113500
O -9.501600 -38.560400 -27.116600
H -9.013000 -40.680600 -27.832700
21
Fragment
H -14.681100 -34.418800 -19.578900
H -14.576300 -33.982700 -18.139200
H -14.435400 -31.443200 -17.886500
C -14.064500 -34.031700 -18.910200
C -13.948200 -31.530400 -18.732900
N -13.681100 -32.690100 -19.352200
N -13.518000 -30.464100 -19.410800
H -13.386700 -34.504300 -18.811100
C -13.029300 -32.356100 -20.528700
C -12.955300 -30.978900 -20.533200
H -12.911000 -28.433400 -20.938500
H -12.535700 -28.464700 -22.458100
C -12.486000 -33.147000 -21.575800
O -12.484400 -34.377700 -21.649800
N -12.395700 -30.282000 -21.567900
C -12.305000 -28.807900 -21.579000
N -11.932900 -32.354700 -22.574200
C -11.881100 -30.976900 -22.632900
H -11.580900 -32.811300 -23.353900
H -11.428000 -28.544600 -21.418400
O -11.401000 -30.398300 -23.609000
42
Fragment
O -12.717100 -37.457600 -21.708600
H -12.378000 -39.885400 -22.015000
H -12.185200 -43.228700 -21.212000
O -12.176500 -42.300900 -21.650800
C -12.105200 -37.397200 -22.752900
H -12.094100 -35.587300 -22.842000
C -11.876900 -39.862600 -22.868200
O -11.780900 -36.279100 -23.355300
C -11.635400 -38.623900 -23.462500
C -11.591900 -42.366800 -22.831100
C -11.396900 -41.023800 -23.464600
O -11.220000 -43.400300 -23.351500
C -10.920200 -38.542700 -24.655000
H -10.733200 -37.656600 -25.063800
C -10.703100 -40.950200 -24.668100
C -10.476800 -39.715500 -25.268400
H -10.385500 -41.817800 -25.065400
C -9.778100 -39.611800 -26.589000
O -9.516600 -40.804900 -27.113500
O -9.501600 -38.560400 -27.116600
H -9.013000 -40.680600 -27.832700
H -14.681100 -34.418800 -19.578900
H -14.576300 -33.982700 -18.139200
H -14.435400 -31.443200 -17.886500
C -14.064500 -34.031700 -18.910200
C -13.948200 -31.530400 -18.732900
N -13.681100 -32.690100 -19.352200
N -13.518000 -30.464100 -19.410800
H -13.386700 -34.504300 -18.811100
C -13.029300 -32.356100 -20.528700
C -12.955300 -30.978900 -20.533200
H -12.911000 -28.433400 -20.938500
H -12.535700 -28.464700 -22.458100
C -12.486000 -33.147000 -21.575800
O -12.484400 -34.377700 -21.649800
N -12.395700 -30.282000 -21.567900
C -12.305000 -28.807900 -21.579000
N -11.932900 -32.354700 -22.574200
C -11.881100 -30.976900 -22.632900
H -11.580900 -32.811300 -23.353900
H -11.428000 -28.544600 -21.418400
O -11.401000 -30.398300 -23.609000
