21
Fragment
O -12.717100 -37.457600 -21.708600
H -12.378000 -39.885400 -22.015000
H -12.185200 -43.228700 -21.212000
O -12.176500 -42.300900 -21.650800
C -12.105200 -37.397200 -22.752900
H -12.094100 -35.587300 -22.842000
C -11.876900 -39.862600 -22.868200
O -11.780900 -36.279100 -23.355300
C -11.635400 -38.623900 -23.462500
C -11.591900 -42.366800 -22.831100
C -11.396900 -41.023800 -23.464600
O -11.220000 -43.400300 -23.351500
C -10.920200 -38.542700 -24.655000
H -10.733200 -37.656600 -25.063800
C -10.703100 -40.950200 -24.668100
C -10.476800 -39.715500 -25.268400
H -10.385500 -41.817800 -25.065400
C -9.778100 -39.611800 -26.589000
O -9.516600 -40.804900 -27.113500
O -9.501600 -38.560400 -27.116600
H -9.013000 -40.680600 -27.832700
21
Fragment
O -11.069700 -33.487900 -24.975900
H -10.728200 -31.098300 -25.145400
H -10.692100 -35.319400 -27.864700
H -10.536400 -35.442000 -26.329100
C -10.525100 -32.912200 -25.915400
N -10.360800 -31.544400 -25.910700
C -10.150200 -35.051800 -27.075600
N -10.051700 -33.589100 -27.015200
C -9.729800 -30.741200 -26.848500
O -9.596300 -29.529600 -26.674500
C -9.428400 -32.874300 -28.001500
H -9.322600 -35.427700 -27.048900
C -9.260200 -31.515000 -27.955200
N -8.870100 -33.395600 -29.120500
H -8.583900 -29.231400 -29.304300
N -8.545700 -31.190700 -29.089300
C -8.334200 -32.339900 -29.739400
C -8.010400 -29.877900 -29.450800
H -7.820100 -32.415100 -30.561600
H -7.726800 -29.901200 -30.344000
H -7.179300 -29.730200 -28.952400
42
Fragment
O -12.717100 -37.457600 -21.708600
H -12.378000 -39.885400 -22.015000
H -12.185200 -43.228700 -21.212000
O -12.176500 -42.300900 -21.650800
C -12.105200 -37.397200 -22.752900
H -12.094100 -35.587300 -22.842000
C -11.876900 -39.862600 -22.868200
O -11.780900 -36.279100 -23.355300
C -11.635400 -38.623900 -23.462500
C -11.591900 -42.366800 -22.831100
C -11.396900 -41.023800 -23.464600
O -11.220000 -43.400300 -23.351500
C -10.920200 -38.542700 -24.655000
H -10.733200 -37.656600 -25.063800
C -10.703100 -40.950200 -24.668100
C -10.476800 -39.715500 -25.268400
H -10.385500 -41.817800 -25.065400
C -9.778100 -39.611800 -26.589000
O -9.516600 -40.804900 -27.113500
O -9.501600 -38.560400 -27.116600
H -9.013000 -40.680600 -27.832700
O -11.069700 -33.487900 -24.975900
H -10.728200 -31.098300 -25.145400
H -10.692100 -35.319400 -27.864700
H -10.536400 -35.442000 -26.329100
C -10.525100 -32.912200 -25.915400
N -10.360800 -31.544400 -25.910700
C -10.150200 -35.051800 -27.075600
N -10.051700 -33.589100 -27.015200
C -9.729800 -30.741200 -26.848500
O -9.596300 -29.529600 -26.674500
C -9.428400 -32.874300 -28.001500
H -9.322600 -35.427700 -27.048900
C -9.260200 -31.515000 -27.955200
N -8.870100 -33.395600 -29.120500
H -8.583900 -29.231400 -29.304300
N -8.545700 -31.190700 -29.089300
C -8.334200 -32.339900 -29.739400
C -8.010400 -29.877900 -29.450800
H -7.820100 -32.415100 -30.561600
H -7.726800 -29.901200 -30.344000
H -7.179300 -29.730200 -28.952400
