21
Fragment
O -12.717100 -37.457600 -21.708600
H -12.378000 -39.885400 -22.015000
H -12.185200 -43.228700 -21.212000
O -12.176500 -42.300900 -21.650800
C -12.105200 -37.397200 -22.752900
H -12.094100 -35.587300 -22.842000
C -11.876900 -39.862600 -22.868200
O -11.780900 -36.279100 -23.355300
C -11.635400 -38.623900 -23.462500
C -11.591900 -42.366800 -22.831100
C -11.396900 -41.023800 -23.464600
O -11.220000 -43.400300 -23.351500
C -10.920200 -38.542700 -24.655000
H -10.733200 -37.656600 -25.063800
C -10.703100 -40.950200 -24.668100
C -10.476800 -39.715500 -25.268400
H -10.385500 -41.817800 -25.065400
C -9.778100 -39.611800 -26.589000
O -9.516600 -40.804900 -27.113500
O -9.501600 -38.560400 -27.116600
H -9.013000 -40.680600 -27.832700
21
Fragment
H -14.199300 -36.835700 -27.576800
H -14.094500 -37.271800 -26.137200
H -13.953700 -39.811300 -25.884400
C -13.582800 -37.222800 -26.908100
C -13.466500 -39.724100 -26.730800
N -13.199400 -38.564400 -27.350100
N -13.036200 -40.790400 -27.408700
H -12.905000 -36.750200 -26.809000
C -12.547600 -38.898400 -28.526600
C -12.473500 -40.275600 -28.531100
H -12.429300 -42.821100 -28.936400
H -12.054000 -42.789800 -30.456000
C -12.004300 -38.107500 -29.573700
O -12.002700 -36.876800 -29.647800
N -11.914000 -40.972500 -29.565900
C -11.823200 -42.446600 -29.576900
N -11.451200 -38.899800 -30.572100
C -11.399400 -40.277600 -30.630900
H -11.099200 -38.443200 -31.351800
H -10.946200 -42.709900 -29.416300
O -10.919300 -40.856200 -31.606900
42
Fragment
O -12.717100 -37.457600 -21.708600
H -12.378000 -39.885400 -22.015000
H -12.185200 -43.228700 -21.212000
O -12.176500 -42.300900 -21.650800
C -12.105200 -37.397200 -22.752900
H -12.094100 -35.587300 -22.842000
C -11.876900 -39.862600 -22.868200
O -11.780900 -36.279100 -23.355300
C -11.635400 -38.623900 -23.462500
C -11.591900 -42.366800 -22.831100
C -11.396900 -41.023800 -23.464600
O -11.220000 -43.400300 -23.351500
C -10.920200 -38.542700 -24.655000
H -10.733200 -37.656600 -25.063800
C -10.703100 -40.950200 -24.668100
C -10.476800 -39.715500 -25.268400
H -10.385500 -41.817800 -25.065400
C -9.778100 -39.611800 -26.589000
O -9.516600 -40.804900 -27.113500
O -9.501600 -38.560400 -27.116600
H -9.013000 -40.680600 -27.832700
H -14.199300 -36.835700 -27.576800
H -14.094500 -37.271800 -26.137200
H -13.953700 -39.811300 -25.884400
C -13.582800 -37.222800 -26.908100
C -13.466500 -39.724100 -26.730800
N -13.199400 -38.564400 -27.350100
N -13.036200 -40.790400 -27.408700
H -12.905000 -36.750200 -26.809000
C -12.547600 -38.898400 -28.526600
C -12.473500 -40.275600 -28.531100
H -12.429300 -42.821100 -28.936400
H -12.054000 -42.789800 -30.456000
C -12.004300 -38.107500 -29.573700
O -12.002700 -36.876800 -29.647800
N -11.914000 -40.972500 -29.565900
C -11.823200 -42.446600 -29.576900
N -11.451200 -38.899800 -30.572100
C -11.399400 -40.277600 -30.630900
H -11.099200 -38.443200 -31.351800
H -10.946200 -42.709900 -29.416300
O -10.919300 -40.856200 -31.606900
