21
Fragment
O -12.717100 -37.457600 -21.708600
H -12.378000 -39.885400 -22.015000
H -12.185200 -43.228700 -21.212000
O -12.176500 -42.300900 -21.650800
C -12.105200 -37.397200 -22.752900
H -12.094100 -35.587300 -22.842000
C -11.876900 -39.862600 -22.868200
O -11.780900 -36.279100 -23.355300
C -11.635400 -38.623900 -23.462500
C -11.591900 -42.366800 -22.831100
C -11.396900 -41.023800 -23.464600
O -11.220000 -43.400300 -23.351500
C -10.920200 -38.542700 -24.655000
H -10.733200 -37.656600 -25.063800
C -10.703100 -40.950200 -24.668100
C -10.476800 -39.715500 -25.268400
H -10.385500 -41.817800 -25.065400
C -9.778100 -39.611800 -26.589000
O -9.516600 -40.804900 -27.113500
O -9.501600 -38.560400 -27.116600
H -9.013000 -40.680600 -27.832700
21
Fragment
O -16.103100 -30.581000 -21.559200
H -16.092300 -36.262800 -21.704700
O -15.959600 -35.390700 -21.928500
H -15.937200 -32.999400 -22.042200
C -15.543600 -30.457000 -22.629800
H -15.493000 -28.647200 -22.586100
C -15.463400 -32.904200 -22.935900
C -15.427500 -35.416900 -23.130900
O -15.212800 -29.305300 -23.163900
O -15.208800 -36.428200 -23.770700
C -15.155500 -31.643000 -23.442500
C -15.116900 -34.045400 -23.648400
C -14.500600 -31.523800 -24.671100
C -14.470700 -33.929100 -24.872800
H -14.240500 -30.593800 -25.009400
H -14.207200 -34.775000 -25.326200
C -14.169700 -32.673600 -25.384500
C -13.503900 -32.541900 -26.722800
O -13.336700 -33.723000 -27.307100
O -13.169500 -31.486200 -27.209500
H -12.974900 -33.617900 -28.120600
42
Fragment
O -12.717100 -37.457600 -21.708600
H -12.378000 -39.885400 -22.015000
H -12.185200 -43.228700 -21.212000
O -12.176500 -42.300900 -21.650800
C -12.105200 -37.397200 -22.752900
H -12.094100 -35.587300 -22.842000
C -11.876900 -39.862600 -22.868200
O -11.780900 -36.279100 -23.355300
C -11.635400 -38.623900 -23.462500
C -11.591900 -42.366800 -22.831100
C -11.396900 -41.023800 -23.464600
O -11.220000 -43.400300 -23.351500
C -10.920200 -38.542700 -24.655000
H -10.733200 -37.656600 -25.063800
C -10.703100 -40.950200 -24.668100
C -10.476800 -39.715500 -25.268400
H -10.385500 -41.817800 -25.065400
C -9.778100 -39.611800 -26.589000
O -9.516600 -40.804900 -27.113500
O -9.501600 -38.560400 -27.116600
H -9.013000 -40.680600 -27.832700
O -16.103100 -30.581000 -21.559200
H -16.092300 -36.262800 -21.704700
O -15.959600 -35.390700 -21.928500
H -15.937200 -32.999400 -22.042200
C -15.543600 -30.457000 -22.629800
H -15.493000 -28.647200 -22.586100
C -15.463400 -32.904200 -22.935900
C -15.427500 -35.416900 -23.130900
O -15.212800 -29.305300 -23.163900
O -15.208800 -36.428200 -23.770700
C -15.155500 -31.643000 -23.442500
C -15.116900 -34.045400 -23.648400
C -14.500600 -31.523800 -24.671100
C -14.470700 -33.929100 -24.872800
H -14.240500 -30.593800 -25.009400
H -14.207200 -34.775000 -25.326200
C -14.169700 -32.673600 -25.384500
C -13.503900 -32.541900 -26.722800
O -13.336700 -33.723000 -27.307100
O -13.169500 -31.486200 -27.209500
H -12.974900 -33.617900 -28.120600
