21
Fragment
O -12.717100 -37.457600 -21.708600
H -12.378000 -39.885400 -22.015000
H -12.185200 -43.228700 -21.212000
O -12.176500 -42.300900 -21.650800
C -12.105200 -37.397200 -22.752900
H -12.094100 -35.587300 -22.842000
C -11.876900 -39.862600 -22.868200
O -11.780900 -36.279100 -23.355300
C -11.635400 -38.623900 -23.462500
C -11.591900 -42.366800 -22.831100
C -11.396900 -41.023800 -23.464600
O -11.220000 -43.400300 -23.351500
C -10.920200 -38.542700 -24.655000
H -10.733200 -37.656600 -25.063800
C -10.703100 -40.950200 -24.668100
C -10.476800 -39.715500 -25.268400
H -10.385500 -41.817800 -25.065400
C -9.778100 -39.611800 -26.589000
O -9.516600 -40.804900 -27.113500
O -9.501600 -38.560400 -27.116600
H -9.013000 -40.680600 -27.832700
21
Fragment
H -16.469300 -44.824800 -20.154700
O -15.980800 -46.945000 -20.870900
O -15.965700 -44.700500 -20.873900
C -15.704300 -45.893600 -21.398400
H -15.096800 -43.687600 -22.922000
C -15.005500 -45.789900 -22.719000
C -14.779200 -44.555200 -23.319300
H -14.749200 -47.848800 -22.923600
C -14.562100 -46.962700 -23.332400
O -14.262300 -42.105100 -24.635900
C -14.085400 -44.481600 -24.522900
C -13.890500 -43.138600 -25.156300
C -13.846900 -46.881500 -24.524900
O -13.701400 -49.226300 -24.632100
C -13.605400 -45.642800 -25.119200
H -13.388200 -49.918100 -25.145400
C -13.377200 -48.108200 -25.234500
O -13.305800 -43.204500 -26.336600
H -13.297100 -42.276700 -26.775400
H -13.104300 -45.620000 -25.972400
O -12.765200 -48.047800 -26.278900
42
Fragment
O -12.717100 -37.457600 -21.708600
H -12.378000 -39.885400 -22.015000
H -12.185200 -43.228700 -21.212000
O -12.176500 -42.300900 -21.650800
C -12.105200 -37.397200 -22.752900
H -12.094100 -35.587300 -22.842000
C -11.876900 -39.862600 -22.868200
O -11.780900 -36.279100 -23.355300
C -11.635400 -38.623900 -23.462500
C -11.591900 -42.366800 -22.831100
C -11.396900 -41.023800 -23.464600
O -11.220000 -43.400300 -23.351500
C -10.920200 -38.542700 -24.655000
H -10.733200 -37.656600 -25.063800
C -10.703100 -40.950200 -24.668100
C -10.476800 -39.715500 -25.268400
H -10.385500 -41.817800 -25.065400
C -9.778100 -39.611800 -26.589000
O -9.516600 -40.804900 -27.113500
O -9.501600 -38.560400 -27.116600
H -9.013000 -40.680600 -27.832700
H -16.469300 -44.824800 -20.154700
O -15.980800 -46.945000 -20.870900
O -15.965700 -44.700500 -20.873900
C -15.704300 -45.893600 -21.398400
H -15.096800 -43.687600 -22.922000
C -15.005500 -45.789900 -22.719000
C -14.779200 -44.555200 -23.319300
H -14.749200 -47.848800 -22.923600
C -14.562100 -46.962700 -23.332400
O -14.262300 -42.105100 -24.635900
C -14.085400 -44.481600 -24.522900
C -13.890500 -43.138600 -25.156300
C -13.846900 -46.881500 -24.524900
O -13.701400 -49.226300 -24.632100
C -13.605400 -45.642800 -25.119200
H -13.388200 -49.918100 -25.145400
C -13.377200 -48.108200 -25.234500
O -13.305800 -43.204500 -26.336600
H -13.297100 -42.276700 -26.775400
H -13.104300 -45.620000 -25.972400
O -12.765200 -48.047800 -26.278900
