20
Fragment
O -23.198600 -9.221000 -14.850100
H -22.713600 -6.957000 -15.062100
C -22.338000 -8.604800 -14.247500
H -22.234600 -11.093900 -13.092900
O -22.132000 -7.315000 -14.403300
H -21.675800 -8.923200 -12.346100
C -21.402500 -9.215600 -13.251700
C -21.332000 -10.725200 -13.264400
H -21.203700 -13.133300 -12.068300
H -21.045400 -11.029300 -14.161600
H -20.652300 -10.963400 -11.324200
H -20.493900 -8.859400 -13.417400
C -20.365700 -11.267500 -12.221300
C -20.295200 -12.777100 -12.234000
H -20.021900 -13.069500 -13.139600
O -19.565600 -14.677700 -11.082500
H -19.463100 -10.898800 -12.392900
C -19.359700 -13.387900 -11.238300
H -18.984100 -15.035700 -10.423700
O -18.499100 -12.771700 -10.635600
17
Fragment
H -18.584200 -17.710700 -9.621700
N -18.185000 -15.823300 -9.183400
C -18.104600 -17.149500 -9.023900
H -17.580000 -14.099500 -8.429000
C -17.520900 -15.042100 -8.325100
H -17.429300 -13.387700 -6.201500
C -17.354700 -17.732700 -8.030200
H -17.317500 -18.678400 -7.947300
C -16.751900 -15.548300 -7.291100
C -16.658900 -16.929700 -7.158500
N -16.595100 -13.538500 -5.978100
H -16.121200 -17.312700 -6.475100
N -16.025200 -12.659700 -5.022500
C -15.991800 -14.674100 -6.348900
H -15.718400 -13.179500 -4.370800
H -15.271500 -12.279300 -5.421700
O -14.880200 -15.005700 -5.934900
37
Fragment
O -23.198600 -9.221000 -14.850100
H -22.713600 -6.957000 -15.062100
C -22.338000 -8.604800 -14.247500
H -22.234600 -11.093900 -13.092900
O -22.132000 -7.315000 -14.403300
H -21.675800 -8.923200 -12.346100
C -21.402500 -9.215600 -13.251700
C -21.332000 -10.725200 -13.264400
H -21.203700 -13.133300 -12.068300
H -21.045400 -11.029300 -14.161600
H -20.652300 -10.963400 -11.324200
H -20.493900 -8.859400 -13.417400
C -20.365700 -11.267500 -12.221300
C -20.295200 -12.777100 -12.234000
H -20.021900 -13.069500 -13.139600
O -19.565600 -14.677700 -11.082500
H -19.463100 -10.898800 -12.392900
C -19.359700 -13.387900 -11.238300
H -18.984100 -15.035700 -10.423700
O -18.499100 -12.771700 -10.635600
H -18.584200 -17.710700 -9.621700
N -18.185000 -15.823300 -9.183400
C -18.104600 -17.149500 -9.023900
H -17.580000 -14.099500 -8.429000
C -17.520900 -15.042100 -8.325100
H -17.429300 -13.387700 -6.201500
C -17.354700 -17.732700 -8.030200
H -17.317500 -18.678400 -7.947300
C -16.751900 -15.548300 -7.291100
C -16.658900 -16.929700 -7.158500
N -16.595100 -13.538500 -5.978100
H -16.121200 -17.312700 -6.475100
N -16.025200 -12.659700 -5.022500
C -15.991800 -14.674100 -6.348900
H -15.718400 -13.179500 -4.370800
H -15.271500 -12.279300 -5.421700
O -14.880200 -15.005700 -5.934900
