17
Fragment
H -22.285000 -14.210800 -11.525400
H -21.545800 -12.059000 -11.984200
C -21.366800 -14.067000 -11.720900
C -20.932300 -12.784200 -11.985000
N -20.536600 -15.110800 -11.731100
C -19.595400 -12.568000 -12.249700
H -19.274600 -11.686600 -12.402900
C -19.248200 -14.904900 -12.013400
C -18.725300 -13.643900 -12.289900
H -18.661300 -15.651800 -12.025100
C -17.285000 -13.408000 -12.637800
H -16.909500 -15.279400 -12.968900
O -16.809900 -12.267000 -12.627600
N -16.559100 -14.475600 -12.965300
N -15.191200 -14.388700 -13.327800
H -15.142100 -13.976000 -14.063100
H -14.799900 -13.872500 -12.720900
17
Fragment
H -19.239500 -8.700100 -12.808500
H -18.897200 -8.803500 -11.466400
N -18.848100 -9.216300 -12.201600
N -17.480300 -9.303200 -12.564100
O -17.229500 -7.094500 -12.901800
H -17.129900 -10.107000 -12.560500
C -16.754300 -8.235600 -12.891600
H -15.378000 -10.479400 -13.504300
C -15.314000 -8.471400 -13.239600
C -14.791100 -9.732500 -13.516000
H -14.764700 -6.514200 -13.126500
C -14.444000 -7.395600 -13.279700
N -13.502800 -9.938300 -13.798300
C -13.107100 -7.611800 -13.544400
C -12.672600 -8.894500 -13.808500
H -12.493500 -6.886600 -13.545200
H -11.754300 -9.038300 -14.004000
34
Fragment
H -22.285000 -14.210800 -11.525400
H -21.545800 -12.059000 -11.984200
C -21.366800 -14.067000 -11.720900
C -20.932300 -12.784200 -11.985000
N -20.536600 -15.110800 -11.731100
C -19.595400 -12.568000 -12.249700
H -19.274600 -11.686600 -12.402900
C -19.248200 -14.904900 -12.013400
C -18.725300 -13.643900 -12.289900
H -18.661300 -15.651800 -12.025100
C -17.285000 -13.408000 -12.637800
H -16.909500 -15.279400 -12.968900
O -16.809900 -12.267000 -12.627600
N -16.559100 -14.475600 -12.965300
N -15.191200 -14.388700 -13.327800
H -15.142100 -13.976000 -14.063100
H -14.799900 -13.872500 -12.720900
H -19.239500 -8.700100 -12.808500
H -18.897200 -8.803500 -11.466400
N -18.848100 -9.216300 -12.201600
N -17.480300 -9.303200 -12.564100
O -17.229500 -7.094500 -12.901800
H -17.129900 -10.107000 -12.560500
C -16.754300 -8.235600 -12.891600
H -15.378000 -10.479400 -13.504300
C -15.314000 -8.471400 -13.239600
C -14.791100 -9.732500 -13.516000
H -14.764700 -6.514200 -13.126500
C -14.444000 -7.395600 -13.279700
N -13.502800 -9.938300 -13.798300
C -13.107100 -7.611800 -13.544400
C -12.672600 -8.894500 -13.808500
H -12.493500 -6.886600 -13.545200
H -11.754300 -9.038300 -14.004000
