17
Fragment
H -11.397700 -41.588500 -12.733600
H -11.248800 -43.510600 -13.367900
H -11.092500 -39.692900 -11.157600
N -10.961800 -45.407300 -12.910500
N -10.947700 -39.873200 -11.996300
N -10.890500 -41.275600 -12.155000
C -10.870700 -44.089400 -12.717100
H -10.506100 -47.166200 -12.162800
C -10.431500 -46.228300 -12.028700
C -10.262800 -43.536200 -11.633900
H -10.225600 -39.541400 -12.294500
C -10.177400 -42.059800 -11.401400
C -9.785500 -45.767000 -10.941200
C -9.704800 -44.402900 -10.730300
O -9.481000 -41.598800 -10.533900
H -9.389700 -46.371300 -10.324900
H -9.263200 -44.066300 -9.959500
17
Fragment
H -8.912000 -40.144900 -8.875900
N -8.870600 -38.295800 -8.195500
H -8.611000 -36.571700 -7.286500
C -8.536800 -39.586300 -8.206100
C -8.371800 -37.492400 -7.280300
H -8.178400 -42.043100 -8.977800
N -7.710900 -42.326200 -8.336700
C -7.695400 -40.130200 -7.314100
H -7.677200 -44.148700 -7.754600
C -7.535100 -37.947300 -6.343300
N -7.426900 -43.699400 -8.468500
C -7.294500 -41.570400 -7.332600
C -7.193800 -39.277600 -6.358100
H -7.184300 -37.364000 -5.680700
H -6.640600 -43.779200 -8.577900
O -6.606700 -42.020000 -6.460400
H -6.600700 -39.615800 -5.696400
34
Fragment
H -11.397700 -41.588500 -12.733600
H -11.248800 -43.510600 -13.367900
H -11.092500 -39.692900 -11.157600
N -10.961800 -45.407300 -12.910500
N -10.947700 -39.873200 -11.996300
N -10.890500 -41.275600 -12.155000
C -10.870700 -44.089400 -12.717100
H -10.506100 -47.166200 -12.162800
C -10.431500 -46.228300 -12.028700
C -10.262800 -43.536200 -11.633900
H -10.225600 -39.541400 -12.294500
C -10.177400 -42.059800 -11.401400
C -9.785500 -45.767000 -10.941200
C -9.704800 -44.402900 -10.730300
O -9.481000 -41.598800 -10.533900
H -9.389700 -46.371300 -10.324900
H -9.263200 -44.066300 -9.959500
H -8.912000 -40.144900 -8.875900
N -8.870600 -38.295800 -8.195500
H -8.611000 -36.571700 -7.286500
C -8.536800 -39.586300 -8.206100
C -8.371800 -37.492400 -7.280300
H -8.178400 -42.043100 -8.977800
N -7.710900 -42.326200 -8.336700
C -7.695400 -40.130200 -7.314100
H -7.677200 -44.148700 -7.754600
C -7.535100 -37.947300 -6.343300
N -7.426900 -43.699400 -8.468500
C -7.294500 -41.570400 -7.332600
C -7.193800 -39.277600 -6.358100
H -7.184300 -37.364000 -5.680700
H -6.640600 -43.779200 -8.577900
O -6.606700 -42.020000 -6.460400
H -6.600700 -39.615800 -5.696400
