17
Fragment
H -11.397700 -41.588500 -12.733600
H -11.248800 -43.510600 -13.367900
H -11.092500 -39.692900 -11.157600
N -10.961800 -45.407300 -12.910500
N -10.947700 -39.873200 -11.996300
N -10.890500 -41.275600 -12.155000
C -10.870700 -44.089400 -12.717100
H -10.506100 -47.166200 -12.162800
C -10.431500 -46.228300 -12.028700
C -10.262800 -43.536200 -11.633900
H -10.225600 -39.541400 -12.294500
C -10.177400 -42.059800 -11.401400
C -9.785500 -45.767000 -10.941200
C -9.704800 -44.402900 -10.730300
O -9.481000 -41.598800 -10.533900
H -9.389700 -46.371300 -10.324900
H -9.263200 -44.066300 -9.959500
17
Fragment
H -10.387500 -51.462500 -16.654100
H -10.238600 -49.540400 -17.288400
H -10.082300 -53.358100 -15.078000
N -9.951600 -47.643700 -16.830900
N -9.937600 -53.177800 -15.916800
N -9.880300 -51.775400 -16.075500
C -9.860500 -48.961600 -16.637600
H -9.495900 -45.884800 -16.083200
C -9.421400 -46.822700 -15.949200
C -9.252600 -49.514800 -15.554400
H -9.215500 -53.509600 -16.215000
C -9.167200 -50.991200 -15.321900
C -8.775300 -47.284000 -14.861600
C -8.694600 -48.648100 -14.650700
O -8.470800 -51.452200 -14.454400
H -8.379600 -46.679700 -14.245300
H -8.253000 -48.984700 -13.879900
34
Fragment
H -11.397700 -41.588500 -12.733600
H -11.248800 -43.510600 -13.367900
H -11.092500 -39.692900 -11.157600
N -10.961800 -45.407300 -12.910500
N -10.947700 -39.873200 -11.996300
N -10.890500 -41.275600 -12.155000
C -10.870700 -44.089400 -12.717100
H -10.506100 -47.166200 -12.162800
C -10.431500 -46.228300 -12.028700
C -10.262800 -43.536200 -11.633900
H -10.225600 -39.541400 -12.294500
C -10.177400 -42.059800 -11.401400
C -9.785500 -45.767000 -10.941200
C -9.704800 -44.402900 -10.730300
O -9.481000 -41.598800 -10.533900
H -9.389700 -46.371300 -10.324900
H -9.263200 -44.066300 -9.959500
H -10.387500 -51.462500 -16.654100
H -10.238600 -49.540400 -17.288400
H -10.082300 -53.358100 -15.078000
N -9.951600 -47.643700 -16.830900
N -9.937600 -53.177800 -15.916800
N -9.880300 -51.775400 -16.075500
C -9.860500 -48.961600 -16.637600
H -9.495900 -45.884800 -16.083200
C -9.421400 -46.822700 -15.949200
C -9.252600 -49.514800 -15.554400
H -9.215500 -53.509600 -16.215000
C -9.167200 -50.991200 -15.321900
C -8.775300 -47.284000 -14.861600
C -8.694600 -48.648100 -14.650700
O -8.470800 -51.452200 -14.454400
H -8.379600 -46.679700 -14.245300
H -8.253000 -48.984700 -13.879900
