20
Fragment
O -23.198600 -9.221000 -14.850100
H -22.713600 -6.957000 -15.062100
C -22.338000 -8.604800 -14.247500
H -22.234600 -11.093900 -13.092900
O -22.132000 -7.315000 -14.403300
H -21.675800 -8.923200 -12.346100
C -21.402500 -9.215600 -13.251700
C -21.332000 -10.725200 -13.264400
H -21.203700 -13.133300 -12.068300
H -21.045400 -11.029300 -14.161600
H -20.652300 -10.963400 -11.324200
H -20.493900 -8.859400 -13.417400
C -20.365700 -11.267500 -12.221300
C -20.295200 -12.777100 -12.234000
H -20.021900 -13.069500 -13.139600
O -19.565600 -14.677700 -11.082500
H -19.463100 -10.898800 -12.392900
C -19.359700 -13.387900 -11.238300
H -18.984100 -15.035700 -10.423700
O -18.499100 -12.771700 -10.635600
17
Fragment
O -27.855200 -4.009300 -15.303200
H -27.463900 -1.282900 -15.816400
H -27.017000 -2.183100 -16.867300
C -26.743600 -3.677800 -14.889200
N -26.710300 -1.663300 -16.215600
H -26.614200 -6.316300 -14.763000
N -26.140400 -2.542100 -15.260000
C -26.076500 -5.933300 -14.079600
C -25.983500 -4.552000 -13.947000
H -25.417900 -7.682100 -13.290800
C -25.380700 -6.736400 -13.207900
H -25.306100 -2.391300 -15.036600
C -25.214500 -4.045700 -12.913000
H -25.155400 -3.103200 -12.809100
C -24.630800 -6.153100 -12.214200
N -24.550400 -4.827000 -12.054800
H -24.151300 -6.714400 -11.616400
37
Fragment
O -23.198600 -9.221000 -14.850100
H -22.713600 -6.957000 -15.062100
C -22.338000 -8.604800 -14.247500
H -22.234600 -11.093900 -13.092900
O -22.132000 -7.315000 -14.403300
H -21.675800 -8.923200 -12.346100
C -21.402500 -9.215600 -13.251700
C -21.332000 -10.725200 -13.264400
H -21.203700 -13.133300 -12.068300
H -21.045400 -11.029300 -14.161600
H -20.652300 -10.963400 -11.324200
H -20.493900 -8.859400 -13.417400
C -20.365700 -11.267500 -12.221300
C -20.295200 -12.777100 -12.234000
H -20.021900 -13.069500 -13.139600
O -19.565600 -14.677700 -11.082500
H -19.463100 -10.898800 -12.392900
C -19.359700 -13.387900 -11.238300
H -18.984100 -15.035700 -10.423700
O -18.499100 -12.771700 -10.635600
O -27.855200 -4.009300 -15.303200
H -27.463900 -1.282900 -15.816400
H -27.017000 -2.183100 -16.867300
C -26.743600 -3.677800 -14.889200
N -26.710300 -1.663300 -16.215600
H -26.614200 -6.316300 -14.763000
N -26.140400 -2.542100 -15.260000
C -26.076500 -5.933300 -14.079600
C -25.983500 -4.552000 -13.947000
H -25.417900 -7.682100 -13.290800
C -25.380700 -6.736400 -13.207900
H -25.306100 -2.391300 -15.036600
C -25.214500 -4.045700 -12.913000
H -25.155400 -3.103200 -12.809100
C -24.630800 -6.153100 -12.214200
N -24.550400 -4.827000 -12.054800
H -24.151300 -6.714400 -11.616400
