17
Fragment
H -22.285000 -14.210800 -11.525400
H -21.545800 -12.059000 -11.984200
C -21.366800 -14.067000 -11.720900
C -20.932300 -12.784200 -11.985000
N -20.536600 -15.110800 -11.731100
C -19.595400 -12.568000 -12.249700
H -19.274600 -11.686600 -12.402900
C -19.248200 -14.904900 -12.013400
C -18.725300 -13.643900 -12.289900
H -18.661300 -15.651800 -12.025100
C -17.285000 -13.408000 -12.637800
H -16.909500 -15.279400 -12.968900
O -16.809900 -12.267000 -12.627600
N -16.559100 -14.475600 -12.965300
N -15.191200 -14.388700 -13.327800
H -15.142100 -13.976000 -14.063100
H -14.799900 -13.872500 -12.720900
17
Fragment
H -19.239500 -19.045000 -12.808500
H -18.897200 -19.148400 -11.466400
N -18.848100 -19.561200 -12.201600
N -17.480300 -19.648100 -12.564100
O -17.229500 -17.439400 -12.901800
H -17.129900 -20.451900 -12.560500
C -16.754300 -18.580500 -12.891600
H -15.378000 -20.824300 -13.504300
C -15.314000 -18.816300 -13.239600
C -14.791100 -20.077400 -13.516000
H -14.764700 -16.859100 -13.126500
C -14.444000 -17.740500 -13.279700
N -13.502800 -20.283200 -13.798300
C -13.107100 -17.956700 -13.544400
C -12.672600 -19.239400 -13.808500
H -12.493500 -17.231500 -13.545200
H -11.754300 -19.383200 -14.004000
34
Fragment
H -22.285000 -14.210800 -11.525400
H -21.545800 -12.059000 -11.984200
C -21.366800 -14.067000 -11.720900
C -20.932300 -12.784200 -11.985000
N -20.536600 -15.110800 -11.731100
C -19.595400 -12.568000 -12.249700
H -19.274600 -11.686600 -12.402900
C -19.248200 -14.904900 -12.013400
C -18.725300 -13.643900 -12.289900
H -18.661300 -15.651800 -12.025100
C -17.285000 -13.408000 -12.637800
H -16.909500 -15.279400 -12.968900
O -16.809900 -12.267000 -12.627600
N -16.559100 -14.475600 -12.965300
N -15.191200 -14.388700 -13.327800
H -15.142100 -13.976000 -14.063100
H -14.799900 -13.872500 -12.720900
H -19.239500 -19.045000 -12.808500
H -18.897200 -19.148400 -11.466400
N -18.848100 -19.561200 -12.201600
N -17.480300 -19.648100 -12.564100
O -17.229500 -17.439400 -12.901800
H -17.129900 -20.451900 -12.560500
C -16.754300 -18.580500 -12.891600
H -15.378000 -20.824300 -13.504300
C -15.314000 -18.816300 -13.239600
C -14.791100 -20.077400 -13.516000
H -14.764700 -16.859100 -13.126500
C -14.444000 -17.740500 -13.279700
N -13.502800 -20.283200 -13.798300
C -13.107100 -17.956700 -13.544400
C -12.672600 -19.239400 -13.808500
H -12.493500 -17.231500 -13.545200
H -11.754300 -19.383200 -14.004000
