20
Fragment
O -23.198600 -9.221000 -14.850100
H -22.713600 -6.957000 -15.062100
C -22.338000 -8.604800 -14.247500
H -22.234600 -11.093900 -13.092900
O -22.132000 -7.315000 -14.403300
H -21.675800 -8.923200 -12.346100
C -21.402500 -9.215600 -13.251700
C -21.332000 -10.725200 -13.264400
H -21.203700 -13.133300 -12.068300
H -21.045400 -11.029300 -14.161600
H -20.652300 -10.963400 -11.324200
H -20.493900 -8.859400 -13.417400
C -20.365700 -11.267500 -12.221300
C -20.295200 -12.777100 -12.234000
H -20.021900 -13.069500 -13.139600
O -19.565600 -14.677700 -11.082500
H -19.463100 -10.898800 -12.392900
C -19.359700 -13.387900 -11.238300
H -18.984100 -15.035700 -10.423700
O -18.499100 -12.771700 -10.635600
17
Fragment
O -27.855200 -11.340200 -15.303200
H -27.463900 -8.613800 -15.816400
H -27.017000 -9.514000 -16.867300
C -26.743600 -11.008700 -14.889200
N -26.710300 -8.994200 -16.215600
H -26.614200 -13.647200 -14.763000
N -26.140400 -9.873000 -15.260000
C -26.076500 -13.264200 -14.079600
C -25.983500 -11.882900 -13.947000
H -25.417900 -15.013000 -13.290800
C -25.380700 -14.067300 -13.207900
H -25.306100 -9.722200 -15.036600
C -25.214500 -11.376600 -12.913000
H -25.155400 -10.434100 -12.809100
C -24.630800 -13.484000 -12.214200
N -24.550400 -12.157900 -12.054800
H -24.151300 -14.045300 -11.616400
37
Fragment
O -23.198600 -9.221000 -14.850100
H -22.713600 -6.957000 -15.062100
C -22.338000 -8.604800 -14.247500
H -22.234600 -11.093900 -13.092900
O -22.132000 -7.315000 -14.403300
H -21.675800 -8.923200 -12.346100
C -21.402500 -9.215600 -13.251700
C -21.332000 -10.725200 -13.264400
H -21.203700 -13.133300 -12.068300
H -21.045400 -11.029300 -14.161600
H -20.652300 -10.963400 -11.324200
H -20.493900 -8.859400 -13.417400
C -20.365700 -11.267500 -12.221300
C -20.295200 -12.777100 -12.234000
H -20.021900 -13.069500 -13.139600
O -19.565600 -14.677700 -11.082500
H -19.463100 -10.898800 -12.392900
C -19.359700 -13.387900 -11.238300
H -18.984100 -15.035700 -10.423700
O -18.499100 -12.771700 -10.635600
O -27.855200 -11.340200 -15.303200
H -27.463900 -8.613800 -15.816400
H -27.017000 -9.514000 -16.867300
C -26.743600 -11.008700 -14.889200
N -26.710300 -8.994200 -16.215600
H -26.614200 -13.647200 -14.763000
N -26.140400 -9.873000 -15.260000
C -26.076500 -13.264200 -14.079600
C -25.983500 -11.882900 -13.947000
H -25.417900 -15.013000 -13.290800
C -25.380700 -14.067300 -13.207900
H -25.306100 -9.722200 -15.036600
C -25.214500 -11.376600 -12.913000
H -25.155400 -10.434100 -12.809100
C -24.630800 -13.484000 -12.214200
N -24.550400 -12.157900 -12.054800
H -24.151300 -14.045300 -11.616400
