20
Fragment
O -23.198600 -9.221000 -14.850100
H -22.713600 -6.957000 -15.062100
C -22.338000 -8.604800 -14.247500
H -22.234600 -11.093900 -13.092900
O -22.132000 -7.315000 -14.403300
H -21.675800 -8.923200 -12.346100
C -21.402500 -9.215600 -13.251700
C -21.332000 -10.725200 -13.264400
H -21.203700 -13.133300 -12.068300
H -21.045400 -11.029300 -14.161600
H -20.652300 -10.963400 -11.324200
H -20.493900 -8.859400 -13.417400
C -20.365700 -11.267500 -12.221300
C -20.295200 -12.777100 -12.234000
H -20.021900 -13.069500 -13.139600
O -19.565600 -14.677700 -11.082500
H -19.463100 -10.898800 -12.392900
C -19.359700 -13.387900 -11.238300
H -18.984100 -15.035700 -10.423700
O -18.499100 -12.771700 -10.635600
20
Fragment
O -22.160900 -9.106200 -19.097700
H -21.675800 -11.370200 -19.309700
C -21.300300 -9.722500 -18.495100
H -21.196900 -7.233400 -17.340500
O -21.094300 -11.012300 -18.650900
H -20.638100 -9.404100 -16.593800
C -20.364700 -9.111600 -17.499400
C -20.294200 -7.602100 -17.512000
H -20.166000 -5.193900 -16.316000
H -20.007600 -7.297900 -18.409200
H -19.614600 -7.363900 -15.571800
H -19.456200 -9.467900 -17.665000
C -19.328000 -7.059700 -16.469000
C -19.257500 -5.550200 -16.481600
H -18.984100 -5.257700 -17.387200
O -18.527900 -3.649500 -15.330100
H -18.425300 -7.428400 -16.640500
C -18.322000 -4.939300 -15.485900
H -17.946400 -3.291600 -14.671300
O -17.461300 -5.555600 -14.883200
40
Fragment
O -23.198600 -9.221000 -14.850100
H -22.713600 -6.957000 -15.062100
C -22.338000 -8.604800 -14.247500
H -22.234600 -11.093900 -13.092900
O -22.132000 -7.315000 -14.403300
H -21.675800 -8.923200 -12.346100
C -21.402500 -9.215600 -13.251700
C -21.332000 -10.725200 -13.264400
H -21.203700 -13.133300 -12.068300
H -21.045400 -11.029300 -14.161600
H -20.652300 -10.963400 -11.324200
H -20.493900 -8.859400 -13.417400
C -20.365700 -11.267500 -12.221300
C -20.295200 -12.777100 -12.234000
H -20.021900 -13.069500 -13.139600
O -19.565600 -14.677700 -11.082500
H -19.463100 -10.898800 -12.392900
C -19.359700 -13.387900 -11.238300
H -18.984100 -15.035700 -10.423700
O -18.499100 -12.771700 -10.635600
O -22.160900 -9.106200 -19.097700
H -21.675800 -11.370200 -19.309700
C -21.300300 -9.722500 -18.495100
H -21.196900 -7.233400 -17.340500
O -21.094300 -11.012300 -18.650900
H -20.638100 -9.404100 -16.593800
C -20.364700 -9.111600 -17.499400
C -20.294200 -7.602100 -17.512000
H -20.166000 -5.193900 -16.316000
H -20.007600 -7.297900 -18.409200
H -19.614600 -7.363900 -15.571800
H -19.456200 -9.467900 -17.665000
C -19.328000 -7.059700 -16.469000
C -19.257500 -5.550200 -16.481600
H -18.984100 -5.257700 -17.387200
O -18.527900 -3.649500 -15.330100
H -18.425300 -7.428400 -16.640500
C -18.322000 -4.939300 -15.485900
H -17.946400 -3.291600 -14.671300
O -17.461300 -5.555600 -14.883200
