17
Fragment
H -22.285000 -14.210800 -11.525400
H -21.545800 -12.059000 -11.984200
C -21.366800 -14.067000 -11.720900
C -20.932300 -12.784200 -11.985000
N -20.536600 -15.110800 -11.731100
C -19.595400 -12.568000 -12.249700
H -19.274600 -11.686600 -12.402900
C -19.248200 -14.904900 -12.013400
C -18.725300 -13.643900 -12.289900
H -18.661300 -15.651800 -12.025100
C -17.285000 -13.408000 -12.637800
H -16.909500 -15.279400 -12.968900
O -16.809900 -12.267000 -12.627600
N -16.559100 -14.475600 -12.965300
N -15.191200 -14.388700 -13.327800
H -15.142100 -13.976000 -14.063100
H -14.799900 -13.872500 -12.720900
17
Fragment
H -21.494500 -11.651500 -15.172500
H -20.755300 -13.803200 -15.631300
C -20.576300 -11.795300 -15.368000
C -20.141800 -13.078000 -15.632000
N -19.746100 -10.751500 -15.378200
C -18.804900 -13.294200 -15.896800
H -18.484100 -14.175600 -16.050000
C -18.457700 -10.957300 -15.660500
C -17.934800 -12.218400 -15.936900
H -17.870800 -10.210400 -15.672100
C -16.494500 -12.454200 -16.284800
H -16.118900 -10.582800 -16.616000
O -16.019300 -13.595300 -16.274600
N -15.768600 -11.386600 -16.612400
N -14.400700 -11.473500 -16.974900
H -14.351600 -11.886300 -17.710100
H -14.009400 -11.989700 -16.368000
34
Fragment
H -22.285000 -14.210800 -11.525400
H -21.545800 -12.059000 -11.984200
C -21.366800 -14.067000 -11.720900
C -20.932300 -12.784200 -11.985000
N -20.536600 -15.110800 -11.731100
C -19.595400 -12.568000 -12.249700
H -19.274600 -11.686600 -12.402900
C -19.248200 -14.904900 -12.013400
C -18.725300 -13.643900 -12.289900
H -18.661300 -15.651800 -12.025100
C -17.285000 -13.408000 -12.637800
H -16.909500 -15.279400 -12.968900
O -16.809900 -12.267000 -12.627600
N -16.559100 -14.475600 -12.965300
N -15.191200 -14.388700 -13.327800
H -15.142100 -13.976000 -14.063100
H -14.799900 -13.872500 -12.720900
H -21.494500 -11.651500 -15.172500
H -20.755300 -13.803200 -15.631300
C -20.576300 -11.795300 -15.368000
C -20.141800 -13.078000 -15.632000
N -19.746100 -10.751500 -15.378200
C -18.804900 -13.294200 -15.896800
H -18.484100 -14.175600 -16.050000
C -18.457700 -10.957300 -15.660500
C -17.934800 -12.218400 -15.936900
H -17.870800 -10.210400 -15.672100
C -16.494500 -12.454200 -16.284800
H -16.118900 -10.582800 -16.616000
O -16.019300 -13.595300 -16.274600
N -15.768600 -11.386600 -16.612400
N -14.400700 -11.473500 -16.974900
H -14.351600 -11.886300 -17.710100
H -14.009400 -11.989700 -16.368000
