20
Fragment
O -23.198600 -9.221000 -14.850100
H -22.713600 -6.957000 -15.062100
C -22.338000 -8.604800 -14.247500
H -22.234600 -11.093900 -13.092900
O -22.132000 -7.315000 -14.403300
H -21.675800 -8.923200 -12.346100
C -21.402500 -9.215600 -13.251700
C -21.332000 -10.725200 -13.264400
H -21.203700 -13.133300 -12.068300
H -21.045400 -11.029300 -14.161600
H -20.652300 -10.963400 -11.324200
H -20.493900 -8.859400 -13.417400
C -20.365700 -11.267500 -12.221300
C -20.295200 -12.777100 -12.234000
H -20.021900 -13.069500 -13.139600
O -19.565600 -14.677700 -11.082500
H -19.463100 -10.898800 -12.392900
C -19.359700 -13.387900 -11.238300
H -18.984100 -15.035700 -10.423700
O -18.499100 -12.771700 -10.635600
20
Fragment
O -24.236300 -16.437100 -10.602500
H -23.751300 -18.701100 -10.814400
C -23.375700 -17.053400 -9.999800
H -23.272300 -14.564300 -8.845200
O -23.169800 -18.343200 -10.155600
H -22.713500 -16.735000 -8.098500
C -22.440200 -16.442500 -9.004100
C -22.369700 -14.933000 -9.016800
H -22.241500 -12.524800 -7.820700
H -22.083100 -14.628800 -9.914000
H -21.690000 -14.694800 -7.076500
H -21.531700 -16.798800 -9.169800
C -21.403400 -14.390600 -7.973700
C -21.332900 -12.881100 -7.986400
H -21.059600 -12.588600 -8.892000
O -20.603400 -10.980400 -6.834800
H -20.500800 -14.759300 -8.145200
C -20.397400 -12.270200 -6.990700
H -20.021800 -10.622500 -6.176000
O -19.536800 -12.886500 -6.388000
40
Fragment
O -23.198600 -9.221000 -14.850100
H -22.713600 -6.957000 -15.062100
C -22.338000 -8.604800 -14.247500
H -22.234600 -11.093900 -13.092900
O -22.132000 -7.315000 -14.403300
H -21.675800 -8.923200 -12.346100
C -21.402500 -9.215600 -13.251700
C -21.332000 -10.725200 -13.264400
H -21.203700 -13.133300 -12.068300
H -21.045400 -11.029300 -14.161600
H -20.652300 -10.963400 -11.324200
H -20.493900 -8.859400 -13.417400
C -20.365700 -11.267500 -12.221300
C -20.295200 -12.777100 -12.234000
H -20.021900 -13.069500 -13.139600
O -19.565600 -14.677700 -11.082500
H -19.463100 -10.898800 -12.392900
C -19.359700 -13.387900 -11.238300
H -18.984100 -15.035700 -10.423700
O -18.499100 -12.771700 -10.635600
O -24.236300 -16.437100 -10.602500
H -23.751300 -18.701100 -10.814400
C -23.375700 -17.053400 -9.999800
H -23.272300 -14.564300 -8.845200
O -23.169800 -18.343200 -10.155600
H -22.713500 -16.735000 -8.098500
C -22.440200 -16.442500 -9.004100
C -22.369700 -14.933000 -9.016800
H -22.241500 -12.524800 -7.820700
H -22.083100 -14.628800 -9.914000
H -21.690000 -14.694800 -7.076500
H -21.531700 -16.798800 -9.169800
C -21.403400 -14.390600 -7.973700
C -21.332900 -12.881100 -7.986400
H -21.059600 -12.588600 -8.892000
O -20.603400 -10.980400 -6.834800
H -20.500800 -14.759300 -8.145200
C -20.397400 -12.270200 -6.990700
H -20.021800 -10.622500 -6.176000
O -19.536800 -12.886500 -6.388000
