20
Fragment
O -23.198600 -9.221000 -14.850100
H -22.713600 -6.957000 -15.062100
C -22.338000 -8.604800 -14.247500
H -22.234600 -11.093900 -13.092900
O -22.132000 -7.315000 -14.403300
H -21.675800 -8.923200 -12.346100
C -21.402500 -9.215600 -13.251700
C -21.332000 -10.725200 -13.264400
H -21.203700 -13.133300 -12.068300
H -21.045400 -11.029300 -14.161600
H -20.652300 -10.963400 -11.324200
H -20.493900 -8.859400 -13.417400
C -20.365700 -11.267500 -12.221300
C -20.295200 -12.777100 -12.234000
H -20.021900 -13.069500 -13.139600
O -19.565600 -14.677700 -11.082500
H -19.463100 -10.898800 -12.392900
C -19.359700 -13.387900 -11.238300
H -18.984100 -15.035700 -10.423700
O -18.499100 -12.771700 -10.635600
20
Fragment
O -22.160900 -16.437100 -19.097700
H -21.675800 -18.701100 -19.309700
C -21.300300 -17.053400 -18.495100
H -21.196900 -14.564300 -17.340500
O -21.094300 -18.343200 -18.650900
H -20.638100 -16.735000 -16.593800
C -20.364700 -16.442500 -17.499400
C -20.294200 -14.933000 -17.512000
H -20.166000 -12.524800 -16.316000
H -20.007600 -14.628800 -18.409200
H -19.614600 -14.694800 -15.571800
H -19.456200 -16.798800 -17.665000
C -19.328000 -14.390600 -16.469000
C -19.257500 -12.881100 -16.481600
H -18.984100 -12.588600 -17.387200
O -18.527900 -10.980400 -15.330100
H -18.425300 -14.759300 -16.640500
C -18.322000 -12.270200 -15.485900
H -17.946400 -10.622500 -14.671300
O -17.461300 -12.886500 -14.883200
40
Fragment
O -23.198600 -9.221000 -14.850100
H -22.713600 -6.957000 -15.062100
C -22.338000 -8.604800 -14.247500
H -22.234600 -11.093900 -13.092900
O -22.132000 -7.315000 -14.403300
H -21.675800 -8.923200 -12.346100
C -21.402500 -9.215600 -13.251700
C -21.332000 -10.725200 -13.264400
H -21.203700 -13.133300 -12.068300
H -21.045400 -11.029300 -14.161600
H -20.652300 -10.963400 -11.324200
H -20.493900 -8.859400 -13.417400
C -20.365700 -11.267500 -12.221300
C -20.295200 -12.777100 -12.234000
H -20.021900 -13.069500 -13.139600
O -19.565600 -14.677700 -11.082500
H -19.463100 -10.898800 -12.392900
C -19.359700 -13.387900 -11.238300
H -18.984100 -15.035700 -10.423700
O -18.499100 -12.771700 -10.635600
O -22.160900 -16.437100 -19.097700
H -21.675800 -18.701100 -19.309700
C -21.300300 -17.053400 -18.495100
H -21.196900 -14.564300 -17.340500
O -21.094300 -18.343200 -18.650900
H -20.638100 -16.735000 -16.593800
C -20.364700 -16.442500 -17.499400
C -20.294200 -14.933000 -17.512000
H -20.166000 -12.524800 -16.316000
H -20.007600 -14.628800 -18.409200
H -19.614600 -14.694800 -15.571800
H -19.456200 -16.798800 -17.665000
C -19.328000 -14.390600 -16.469000
C -19.257500 -12.881100 -16.481600
H -18.984100 -12.588600 -17.387200
O -18.527900 -10.980400 -15.330100
H -18.425300 -14.759300 -16.640500
C -18.322000 -12.270200 -15.485900
H -17.946400 -10.622500 -14.671300
O -17.461300 -12.886500 -14.883200
