17
Fragment
H -11.397700 -41.588500 -12.733600
H -11.248800 -43.510600 -13.367900
H -11.092500 -39.692900 -11.157600
N -10.961800 -45.407300 -12.910500
N -10.947700 -39.873200 -11.996300
N -10.890500 -41.275600 -12.155000
C -10.870700 -44.089400 -12.717100
H -10.506100 -47.166200 -12.162800
C -10.431500 -46.228300 -12.028700
C -10.262800 -43.536200 -11.633900
H -10.225600 -39.541400 -12.294500
C -10.177400 -42.059800 -11.401400
C -9.785500 -45.767000 -10.941200
C -9.704800 -44.402900 -10.730300
O -9.481000 -41.598800 -10.533900
H -9.389700 -46.371300 -10.324900
H -9.263200 -44.066300 -9.959500
17
Fragment
H -11.587300 -40.142200 -17.826300
O -11.581300 -37.738000 -17.062300
H -11.547300 -35.978800 -14.944700
H -11.003700 -42.394000 -17.842000
C -10.994200 -40.480400 -17.164600
C -10.893400 -38.187600 -16.190000
N -10.761000 -36.058600 -15.054200
C -10.652900 -41.810700 -17.179400
H -10.510700 -35.609300 -15.768000
C -10.492600 -39.627800 -16.208600
N -10.477100 -37.431800 -15.186000
H -10.009500 -37.714900 -14.544900
C -9.816100 -42.265600 -16.242400
C -9.651200 -40.171700 -15.316600
H -9.577000 -43.186300 -16.236100
N -9.317300 -41.462200 -15.327100
H -9.276000 -39.613100 -14.646800
34
Fragment
H -11.397700 -41.588500 -12.733600
H -11.248800 -43.510600 -13.367900
H -11.092500 -39.692900 -11.157600
N -10.961800 -45.407300 -12.910500
N -10.947700 -39.873200 -11.996300
N -10.890500 -41.275600 -12.155000
C -10.870700 -44.089400 -12.717100
H -10.506100 -47.166200 -12.162800
C -10.431500 -46.228300 -12.028700
C -10.262800 -43.536200 -11.633900
H -10.225600 -39.541400 -12.294500
C -10.177400 -42.059800 -11.401400
C -9.785500 -45.767000 -10.941200
C -9.704800 -44.402900 -10.730300
O -9.481000 -41.598800 -10.533900
H -9.389700 -46.371300 -10.324900
H -9.263200 -44.066300 -9.959500
H -11.587300 -40.142200 -17.826300
O -11.581300 -37.738000 -17.062300
H -11.547300 -35.978800 -14.944700
H -11.003700 -42.394000 -17.842000
C -10.994200 -40.480400 -17.164600
C -10.893400 -38.187600 -16.190000
N -10.761000 -36.058600 -15.054200
C -10.652900 -41.810700 -17.179400
H -10.510700 -35.609300 -15.768000
C -10.492600 -39.627800 -16.208600
N -10.477100 -37.431800 -15.186000
H -10.009500 -37.714900 -14.544900
C -9.816100 -42.265600 -16.242400
C -9.651200 -40.171700 -15.316600
H -9.577000 -43.186300 -16.236100
N -9.317300 -41.462200 -15.327100
H -9.276000 -39.613100 -14.646800
