20
Fragment
O -23.198600 -9.221000 -14.850100
H -22.713600 -6.957000 -15.062100
C -22.338000 -8.604800 -14.247500
H -22.234600 -11.093900 -13.092900
O -22.132000 -7.315000 -14.403300
H -21.675800 -8.923200 -12.346100
C -21.402500 -9.215600 -13.251700
C -21.332000 -10.725200 -13.264400
H -21.203700 -13.133300 -12.068300
H -21.045400 -11.029300 -14.161600
H -20.652300 -10.963400 -11.324200
H -20.493900 -8.859400 -13.417400
C -20.365700 -11.267500 -12.221300
C -20.295200 -12.777100 -12.234000
H -20.021900 -13.069500 -13.139600
O -19.565600 -14.677700 -11.082500
H -19.463100 -10.898800 -12.392900
C -19.359700 -13.387900 -11.238300
H -18.984100 -15.035700 -10.423700
O -18.499100 -12.771700 -10.635600
17
Fragment
O -26.817500 -14.317900 -19.550900
H -26.426100 -17.044300 -20.064100
H -25.979300 -16.144100 -21.114900
C -25.705800 -14.649500 -19.136800
N -25.672500 -16.663900 -20.463300
H -25.576400 -12.010900 -19.010700
N -25.102600 -15.785100 -19.507600
C -25.038800 -12.393900 -18.327200
C -24.945800 -13.775300 -18.194600
H -24.380200 -10.645200 -17.538400
C -24.342900 -11.590900 -17.455500
H -24.268400 -15.935900 -19.284200
C -24.176800 -14.281500 -17.160600
H -24.117700 -15.224100 -17.056800
C -23.593000 -12.174100 -16.461800
N -23.512700 -13.500300 -16.302400
H -23.113500 -11.612900 -15.864000
37
Fragment
O -23.198600 -9.221000 -14.850100
H -22.713600 -6.957000 -15.062100
C -22.338000 -8.604800 -14.247500
H -22.234600 -11.093900 -13.092900
O -22.132000 -7.315000 -14.403300
H -21.675800 -8.923200 -12.346100
C -21.402500 -9.215600 -13.251700
C -21.332000 -10.725200 -13.264400
H -21.203700 -13.133300 -12.068300
H -21.045400 -11.029300 -14.161600
H -20.652300 -10.963400 -11.324200
H -20.493900 -8.859400 -13.417400
C -20.365700 -11.267500 -12.221300
C -20.295200 -12.777100 -12.234000
H -20.021900 -13.069500 -13.139600
O -19.565600 -14.677700 -11.082500
H -19.463100 -10.898800 -12.392900
C -19.359700 -13.387900 -11.238300
H -18.984100 -15.035700 -10.423700
O -18.499100 -12.771700 -10.635600
O -26.817500 -14.317900 -19.550900
H -26.426100 -17.044300 -20.064100
H -25.979300 -16.144100 -21.114900
C -25.705800 -14.649500 -19.136800
N -25.672500 -16.663900 -20.463300
H -25.576400 -12.010900 -19.010700
N -25.102600 -15.785100 -19.507600
C -25.038800 -12.393900 -18.327200
C -24.945800 -13.775300 -18.194600
H -24.380200 -10.645200 -17.538400
C -24.342900 -11.590900 -17.455500
H -24.268400 -15.935900 -19.284200
C -24.176800 -14.281500 -17.160600
H -24.117700 -15.224100 -17.056800
C -23.593000 -12.174100 -16.461800
N -23.512700 -13.500300 -16.302400
H -23.113500 -11.612900 -15.864000
