17
Fragment
H -11.397700 -41.588500 -12.733600
H -11.248800 -43.510600 -13.367900
H -11.092500 -39.692900 -11.157600
N -10.961800 -45.407300 -12.910500
N -10.947700 -39.873200 -11.996300
N -10.890500 -41.275600 -12.155000
C -10.870700 -44.089400 -12.717100
H -10.506100 -47.166200 -12.162800
C -10.431500 -46.228300 -12.028700
C -10.262800 -43.536200 -11.633900
H -10.225600 -39.541400 -12.294500
C -10.177400 -42.059800 -11.401400
C -9.785500 -45.767000 -10.941200
C -9.704800 -44.402900 -10.730300
O -9.481000 -41.598800 -10.533900
H -9.389700 -46.371300 -10.324900
H -9.263200 -44.066300 -9.959500
14
Fragment
H -15.415200 -51.061100 -18.065400
O -14.877400 -50.903700 -17.326300
O -14.877300 -48.838200 -18.153300
C -14.552400 -49.627600 -17.309600
H -14.341700 -47.339000 -15.917000
H -14.190500 -49.596200 -15.327400
C -13.733900 -49.284100 -16.148300
C -13.476200 -47.805100 -16.037800
H -13.079800 -47.485300 -16.886900
H -12.867300 -49.758400 -16.211800
C -12.591800 -47.440900 -14.941800
O -12.409900 -46.142400 -14.865000
O -12.096700 -48.242700 -14.209400
H -11.846400 -45.959200 -14.129300
31
Fragment
H -11.397700 -41.588500 -12.733600
H -11.248800 -43.510600 -13.367900
H -11.092500 -39.692900 -11.157600
N -10.961800 -45.407300 -12.910500
N -10.947700 -39.873200 -11.996300
N -10.890500 -41.275600 -12.155000
C -10.870700 -44.089400 -12.717100
H -10.506100 -47.166200 -12.162800
C -10.431500 -46.228300 -12.028700
C -10.262800 -43.536200 -11.633900
H -10.225600 -39.541400 -12.294500
C -10.177400 -42.059800 -11.401400
C -9.785500 -45.767000 -10.941200
C -9.704800 -44.402900 -10.730300
O -9.481000 -41.598800 -10.533900
H -9.389700 -46.371300 -10.324900
H -9.263200 -44.066300 -9.959500
H -15.415200 -51.061100 -18.065400
O -14.877400 -50.903700 -17.326300
O -14.877300 -48.838200 -18.153300
C -14.552400 -49.627600 -17.309600
H -14.341700 -47.339000 -15.917000
H -14.190500 -49.596200 -15.327400
C -13.733900 -49.284100 -16.148300
C -13.476200 -47.805100 -16.037800
H -13.079800 -47.485300 -16.886900
H -12.867300 -49.758400 -16.211800
C -12.591800 -47.440900 -14.941800
O -12.409900 -46.142400 -14.865000
O -12.096700 -48.242700 -14.209400
H -11.846400 -45.959200 -14.129300
