45
Fragment
H -19.397800 -13.957600 -22.892900
H -19.089500 -15.396800 -23.428700
C -18.682900 -14.564200 -23.143100
H -18.378900 -15.187400 -21.223900
O -17.972000 -14.006600 -24.229900
C -17.835100 -14.828900 -21.943100
H -17.361600 -14.971400 -25.832600
O -17.237300 -13.603900 -21.536200
H -17.234800 -15.809400 -24.514700
H -17.147600 -15.477400 -22.159300
C -17.110100 -14.926500 -24.897200
H -16.794000 -13.970600 -19.644000
C -16.315700 -13.754300 -20.460200
H -16.174500 -11.730300 -20.228300
H -15.699200 -14.478200 -20.652700
C -15.674900 -14.558600 -24.801600
C -15.564000 -12.481000 -20.285300
H -15.487300 -14.193600 -23.921300
O -15.369000 -13.591100 -25.798400
H -15.123800 -15.345800 -24.927400
H -15.030000 -12.509400 -19.476300
O -14.720700 -12.358100 -21.440800
H -14.325700 -10.243800 -19.924300
H -14.277600 -11.261500 -25.582400
C -14.187700 -11.130900 -21.699400
C -14.073700 -10.112900 -20.809900
C -13.998200 -13.253000 -25.866700
O -13.901200 -12.071800 -23.820100
C -13.771300 -10.955300 -23.042200
H -13.727300 -13.215400 -26.798100
C -13.696900 -11.949700 -25.223400
H -13.642300 -7.914400 -19.417400
C -13.574600 -8.849700 -21.216000
H -13.478200 -13.948100 -25.434400
C -13.427900 -7.788600 -20.313400
C -13.305600 -9.743900 -23.465400
C -13.217700 -8.661100 -22.560100
H -13.044100 -9.631400 -24.349600
C -12.974900 -6.572900 -20.731300
H -12.876300 -5.878700 -20.120900
H -12.777100 -11.697300 -25.401600
C -12.769600 -7.377300 -22.967600
C -12.660500 -6.370300 -22.071500
H -12.548900 -7.227800 -23.858400
H -12.371400 -5.531900 -22.354500
45
Fragment
H -13.336500 -15.317100 -16.946600
H -13.159000 -13.621200 -15.442700
C -13.047500 -14.478700 -17.229600
C -12.938300 -13.471600 -16.333500
H -12.930800 -9.151600 -13.899500
H -12.831600 -14.970200 -19.180200
C -12.733000 -14.276000 -18.569800
H -12.663800 -11.217600 -14.951400
C -12.490300 -12.187900 -16.741000
C -12.402300 -11.105100 -15.835700
C -12.280000 -13.060400 -18.987700
H -12.229800 -6.900800 -13.866700
C -12.133400 -11.999200 -18.085100
H -12.065700 -12.934600 -19.883700
C -12.011100 -8.899300 -14.077700
H -11.980700 -7.633500 -12.503000
C -11.936700 -9.893600 -16.258900
O -11.806800 -8.777200 -15.481000
C -11.709800 -7.596000 -13.434400
C -11.634200 -10.736100 -18.491200
C -11.520300 -9.718000 -17.601700
H -11.430300 -9.587400 -13.718700
H -11.382300 -10.605100 -19.376700
O -10.987200 -8.490900 -17.860300
H -10.678000 -8.339500 -19.824800
H -10.584200 -5.503100 -14.373700
O -10.339000 -7.257800 -13.502700
H -10.220600 -6.655400 -15.379800
C -10.144000 -8.367900 -19.015800
C -10.033100 -6.290300 -14.499500
H -10.008800 -6.370700 -18.648400
H -9.533500 -9.118700 -19.072800
C -9.392200 -7.094600 -18.840900
H -8.914000 -6.878400 -19.657100
C -8.597800 -5.922400 -14.403900
H -8.560400 -5.371500 -17.141800
H -8.473200 -5.039500 -14.786400
O -8.470600 -7.245000 -17.764900
H -8.346400 -5.877600 -13.468500
C -7.872900 -6.020000 -17.358000
O -7.735900 -6.842400 -15.071200
H -7.329000 -5.661500 -18.077200
C -7.025000 -6.284800 -16.158000
H -6.618400 -5.452200 -15.872400
H -6.310100 -6.891300 -16.408200
90
Fragment
H -19.397800 -13.957600 -22.892900
H -19.089500 -15.396800 -23.428700
C -18.682900 -14.564200 -23.143100
H -18.378900 -15.187400 -21.223900
O -17.972000 -14.006600 -24.229900
C -17.835100 -14.828900 -21.943100
H -17.361600 -14.971400 -25.832600
O -17.237300 -13.603900 -21.536200
H -17.234800 -15.809400 -24.514700
H -17.147600 -15.477400 -22.159300
C -17.110100 -14.926500 -24.897200
H -16.794000 -13.970600 -19.644000
C -16.315700 -13.754300 -20.460200
H -16.174500 -11.730300 -20.228300
H -15.699200 -14.478200 -20.652700
C -15.674900 -14.558600 -24.801600
C -15.564000 -12.481000 -20.285300
H -15.487300 -14.193600 -23.921300
O -15.369000 -13.591100 -25.798400
H -15.123800 -15.345800 -24.927400
H -15.030000 -12.509400 -19.476300
O -14.720700 -12.358100 -21.440800
H -14.325700 -10.243800 -19.924300
H -14.277600 -11.261500 -25.582400
C -14.187700 -11.130900 -21.699400
C -14.073700 -10.112900 -20.809900
C -13.998200 -13.253000 -25.866700
O -13.901200 -12.071800 -23.820100
C -13.771300 -10.955300 -23.042200
H -13.727300 -13.215400 -26.798100
C -13.696900 -11.949700 -25.223400
H -13.642300 -7.914400 -19.417400
C -13.574600 -8.849700 -21.216000
H -13.478200 -13.948100 -25.434400
C -13.427900 -7.788600 -20.313400
C -13.305600 -9.743900 -23.465400
C -13.217700 -8.661100 -22.560100
H -13.044100 -9.631400 -24.349600
C -12.974900 -6.572900 -20.731300
H -12.876300 -5.878700 -20.120900
H -12.777100 -11.697300 -25.401600
C -12.769600 -7.377300 -22.967600
C -12.660500 -6.370300 -22.071500
H -12.548900 -7.227800 -23.858400
H -12.371400 -5.531900 -22.354500
H -13.336500 -15.317100 -16.946600
H -13.159000 -13.621200 -15.442700
C -13.047500 -14.478700 -17.229600
C -12.938300 -13.471600 -16.333500
H -12.930800 -9.151600 -13.899500
H -12.831600 -14.970200 -19.180200
C -12.733000 -14.276000 -18.569800
H -12.663800 -11.217600 -14.951400
C -12.490300 -12.187900 -16.741000
C -12.402300 -11.105100 -15.835700
C -12.280000 -13.060400 -18.987700
H -12.229800 -6.900800 -13.866700
C -12.133400 -11.999200 -18.085100
H -12.065700 -12.934600 -19.883700
C -12.011100 -8.899300 -14.077700
H -11.980700 -7.633500 -12.503000
C -11.936700 -9.893600 -16.258900
O -11.806800 -8.777200 -15.481000
C -11.709800 -7.596000 -13.434400
C -11.634200 -10.736100 -18.491200
C -11.520300 -9.718000 -17.601700
H -11.430300 -9.587400 -13.718700
H -11.382300 -10.605100 -19.376700
O -10.987200 -8.490900 -17.860300
H -10.678000 -8.339500 -19.824800
H -10.584200 -5.503100 -14.373700
O -10.339000 -7.257800 -13.502700
H -10.220600 -6.655400 -15.379800
C -10.144000 -8.367900 -19.015800
C -10.033100 -6.290300 -14.499500
H -10.008800 -6.370700 -18.648400
H -9.533500 -9.118700 -19.072800
C -9.392200 -7.094600 -18.840900
H -8.914000 -6.878400 -19.657100
C -8.597800 -5.922400 -14.403900
H -8.560400 -5.371500 -17.141800
H -8.473200 -5.039500 -14.786400
O -8.470600 -7.245000 -17.764900
H -8.346400 -5.877600 -13.468500
C -7.872900 -6.020000 -17.358000
O -7.735900 -6.842400 -15.071200
H -7.329000 -5.661500 -18.077200
C -7.025000 -6.284800 -16.158000
H -6.618400 -5.452200 -15.872400
H -6.310100 -6.891300 -16.408200
