45
Fragment
H -19.397800 -13.957600 -22.892900
H -19.089500 -15.396800 -23.428700
C -18.682900 -14.564200 -23.143100
H -18.378900 -15.187400 -21.223900
O -17.972000 -14.006600 -24.229900
C -17.835100 -14.828900 -21.943100
H -17.361600 -14.971400 -25.832600
O -17.237300 -13.603900 -21.536200
H -17.234800 -15.809400 -24.514700
H -17.147600 -15.477400 -22.159300
C -17.110100 -14.926500 -24.897200
H -16.794000 -13.970600 -19.644000
C -16.315700 -13.754300 -20.460200
H -16.174500 -11.730300 -20.228300
H -15.699200 -14.478200 -20.652700
C -15.674900 -14.558600 -24.801600
C -15.564000 -12.481000 -20.285300
H -15.487300 -14.193600 -23.921300
O -15.369000 -13.591100 -25.798400
H -15.123800 -15.345800 -24.927400
H -15.030000 -12.509400 -19.476300
O -14.720700 -12.358100 -21.440800
H -14.325700 -10.243800 -19.924300
H -14.277600 -11.261500 -25.582400
C -14.187700 -11.130900 -21.699400
C -14.073700 -10.112900 -20.809900
C -13.998200 -13.253000 -25.866700
O -13.901200 -12.071800 -23.820100
C -13.771300 -10.955300 -23.042200
H -13.727300 -13.215400 -26.798100
C -13.696900 -11.949700 -25.223400
H -13.642300 -7.914400 -19.417400
C -13.574600 -8.849700 -21.216000
H -13.478200 -13.948100 -25.434400
C -13.427900 -7.788600 -20.313400
C -13.305600 -9.743900 -23.465400
C -13.217700 -8.661100 -22.560100
H -13.044100 -9.631400 -24.349600
C -12.974900 -6.572900 -20.731300
H -12.876300 -5.878700 -20.120900
H -12.777100 -11.697300 -25.401600
C -12.769600 -7.377300 -22.967600
C -12.660500 -6.370300 -22.071500
H -12.548900 -7.227800 -23.858400
H -12.371400 -5.531900 -22.354500
45
Fragment
H -12.178800 -13.957600 -22.892900
H -11.870500 -15.396800 -23.428700
C -11.463900 -14.564200 -23.143100
H -11.159900 -15.187400 -21.223900
O -10.753000 -14.006600 -24.229900
C -10.616100 -14.828900 -21.943100
H -10.142600 -14.971400 -25.832600
O -10.018300 -13.603900 -21.536200
H -10.015800 -15.809400 -24.514700
H -9.928600 -15.477400 -22.159300
C -9.891100 -14.926500 -24.897200
H -9.575000 -13.970600 -19.644000
C -9.096700 -13.754300 -20.460200
H -8.955500 -11.730300 -20.228300
H -8.480200 -14.478200 -20.652700
C -8.455900 -14.558600 -24.801600
C -8.345000 -12.481000 -20.285300
H -8.268300 -14.193600 -23.921300
O -8.150000 -13.591100 -25.798400
H -7.904800 -15.345800 -24.927400
H -7.811000 -12.509400 -19.476300
O -7.501700 -12.358100 -21.440800
H -7.106700 -10.243800 -19.924300
H -7.058600 -11.261500 -25.582400
C -6.968700 -11.130900 -21.699400
C -6.854700 -10.112900 -20.809900
C -6.779200 -13.253000 -25.866700
O -6.682200 -12.071800 -23.820100
C -6.552300 -10.955300 -23.042200
H -6.508300 -13.215400 -26.798100
C -6.477900 -11.949700 -25.223400
H -6.423300 -7.914400 -19.417400
C -6.355600 -8.849700 -21.216000
H -6.259200 -13.948100 -25.434400
C -6.208900 -7.788600 -20.313400
C -6.086600 -9.743900 -23.465400
C -5.998700 -8.661100 -22.560100
H -5.825100 -9.631400 -24.349600
C -5.755900 -6.572900 -20.731300
H -5.657300 -5.878700 -20.120900
H -5.558100 -11.697300 -25.401600
C -5.550600 -7.377300 -22.967600
C -5.441500 -6.370300 -22.071500
H -5.329900 -7.227800 -23.858400
H -5.152400 -5.531900 -22.354500
90
Fragment
H -19.397800 -13.957600 -22.892900
H -19.089500 -15.396800 -23.428700
C -18.682900 -14.564200 -23.143100
H -18.378900 -15.187400 -21.223900
O -17.972000 -14.006600 -24.229900
C -17.835100 -14.828900 -21.943100
H -17.361600 -14.971400 -25.832600
O -17.237300 -13.603900 -21.536200
H -17.234800 -15.809400 -24.514700
H -17.147600 -15.477400 -22.159300
C -17.110100 -14.926500 -24.897200
H -16.794000 -13.970600 -19.644000
C -16.315700 -13.754300 -20.460200
H -16.174500 -11.730300 -20.228300
H -15.699200 -14.478200 -20.652700
C -15.674900 -14.558600 -24.801600
C -15.564000 -12.481000 -20.285300
H -15.487300 -14.193600 -23.921300
O -15.369000 -13.591100 -25.798400
H -15.123800 -15.345800 -24.927400
H -15.030000 -12.509400 -19.476300
O -14.720700 -12.358100 -21.440800
H -14.325700 -10.243800 -19.924300
H -14.277600 -11.261500 -25.582400
C -14.187700 -11.130900 -21.699400
C -14.073700 -10.112900 -20.809900
C -13.998200 -13.253000 -25.866700
O -13.901200 -12.071800 -23.820100
C -13.771300 -10.955300 -23.042200
H -13.727300 -13.215400 -26.798100
C -13.696900 -11.949700 -25.223400
H -13.642300 -7.914400 -19.417400
C -13.574600 -8.849700 -21.216000
H -13.478200 -13.948100 -25.434400
C -13.427900 -7.788600 -20.313400
C -13.305600 -9.743900 -23.465400
C -13.217700 -8.661100 -22.560100
H -13.044100 -9.631400 -24.349600
C -12.974900 -6.572900 -20.731300
H -12.876300 -5.878700 -20.120900
H -12.777100 -11.697300 -25.401600
C -12.769600 -7.377300 -22.967600
C -12.660500 -6.370300 -22.071500
H -12.548900 -7.227800 -23.858400
H -12.371400 -5.531900 -22.354500
H -12.178800 -13.957600 -22.892900
H -11.870500 -15.396800 -23.428700
C -11.463900 -14.564200 -23.143100
H -11.159900 -15.187400 -21.223900
O -10.753000 -14.006600 -24.229900
C -10.616100 -14.828900 -21.943100
H -10.142600 -14.971400 -25.832600
O -10.018300 -13.603900 -21.536200
H -10.015800 -15.809400 -24.514700
H -9.928600 -15.477400 -22.159300
C -9.891100 -14.926500 -24.897200
H -9.575000 -13.970600 -19.644000
C -9.096700 -13.754300 -20.460200
H -8.955500 -11.730300 -20.228300
H -8.480200 -14.478200 -20.652700
C -8.455900 -14.558600 -24.801600
C -8.345000 -12.481000 -20.285300
H -8.268300 -14.193600 -23.921300
O -8.150000 -13.591100 -25.798400
H -7.904800 -15.345800 -24.927400
H -7.811000 -12.509400 -19.476300
O -7.501700 -12.358100 -21.440800
H -7.106700 -10.243800 -19.924300
H -7.058600 -11.261500 -25.582400
C -6.968700 -11.130900 -21.699400
C -6.854700 -10.112900 -20.809900
C -6.779200 -13.253000 -25.866700
O -6.682200 -12.071800 -23.820100
C -6.552300 -10.955300 -23.042200
H -6.508300 -13.215400 -26.798100
C -6.477900 -11.949700 -25.223400
H -6.423300 -7.914400 -19.417400
C -6.355600 -8.849700 -21.216000
H -6.259200 -13.948100 -25.434400
C -6.208900 -7.788600 -20.313400
C -6.086600 -9.743900 -23.465400
C -5.998700 -8.661100 -22.560100
H -5.825100 -9.631400 -24.349600
C -5.755900 -6.572900 -20.731300
H -5.657300 -5.878700 -20.120900
H -5.558100 -11.697300 -25.401600
C -5.550600 -7.377300 -22.967600
C -5.441500 -6.370300 -22.071500
H -5.329900 -7.227800 -23.858400
H -5.152400 -5.531900 -22.354500
