45
Fragment
H -19.397800 -13.957600 -22.892900
H -19.089500 -15.396800 -23.428700
C -18.682900 -14.564200 -23.143100
H -18.378900 -15.187400 -21.223900
O -17.972000 -14.006600 -24.229900
C -17.835100 -14.828900 -21.943100
H -17.361600 -14.971400 -25.832600
O -17.237300 -13.603900 -21.536200
H -17.234800 -15.809400 -24.514700
H -17.147600 -15.477400 -22.159300
C -17.110100 -14.926500 -24.897200
H -16.794000 -13.970600 -19.644000
C -16.315700 -13.754300 -20.460200
H -16.174500 -11.730300 -20.228300
H -15.699200 -14.478200 -20.652700
C -15.674900 -14.558600 -24.801600
C -15.564000 -12.481000 -20.285300
H -15.487300 -14.193600 -23.921300
O -15.369000 -13.591100 -25.798400
H -15.123800 -15.345800 -24.927400
H -15.030000 -12.509400 -19.476300
O -14.720700 -12.358100 -21.440800
H -14.325700 -10.243800 -19.924300
H -14.277600 -11.261500 -25.582400
C -14.187700 -11.130900 -21.699400
C -14.073700 -10.112900 -20.809900
C -13.998200 -13.253000 -25.866700
O -13.901200 -12.071800 -23.820100
C -13.771300 -10.955300 -23.042200
H -13.727300 -13.215400 -26.798100
C -13.696900 -11.949700 -25.223400
H -13.642300 -7.914400 -19.417400
C -13.574600 -8.849700 -21.216000
H -13.478200 -13.948100 -25.434400
C -13.427900 -7.788600 -20.313400
C -13.305600 -9.743900 -23.465400
C -13.217700 -8.661100 -22.560100
H -13.044100 -9.631400 -24.349600
C -12.974900 -6.572900 -20.731300
H -12.876300 -5.878700 -20.120900
H -12.777100 -11.697300 -25.401600
C -12.769600 -7.377300 -22.967600
C -12.660500 -6.370300 -22.071500
H -12.548900 -7.227800 -23.858400
H -12.371400 -5.531900 -22.354500
45
Fragment
H -21.155200 -24.808200 -22.892900
H -20.846900 -26.247400 -23.428700
C -20.440300 -25.414800 -23.143100
H -20.136300 -26.038000 -21.223900
O -19.729400 -24.857200 -24.229900
C -19.592500 -25.679500 -21.943100
H -19.119000 -25.822000 -25.832600
O -18.994700 -24.454500 -21.536200
H -18.992200 -26.660000 -24.514700
H -18.905000 -26.328000 -22.159300
C -18.867500 -25.777100 -24.897200
H -18.551400 -24.821200 -19.644000
C -18.073100 -24.604900 -20.460200
H -17.931900 -22.580900 -20.228300
H -17.456600 -25.328800 -20.652700
C -17.432300 -25.409200 -24.801600
C -17.321400 -23.331600 -20.285300
H -17.244700 -25.044200 -23.921300
O -17.126400 -24.441700 -25.798400
H -16.881200 -26.196400 -24.927400
H -16.787400 -23.360000 -19.476300
O -16.478200 -23.208700 -21.440800
H -16.083100 -21.094400 -19.924300
H -16.035100 -22.112100 -25.582400
C -15.945100 -21.981500 -21.699400
C -15.831100 -20.963500 -20.809900
C -15.755600 -24.103600 -25.866700
O -15.658600 -22.922400 -23.820100
C -15.528700 -21.805900 -23.042200
H -15.484700 -24.066000 -26.798100
C -15.454300 -22.800300 -25.223400
H -15.399700 -18.765000 -19.417400
C -15.332000 -19.700300 -21.216000
H -15.235600 -24.798700 -25.434400
C -15.185300 -18.639200 -20.313400
C -15.063000 -20.594500 -23.465400
C -14.975100 -19.511700 -22.560100
H -14.801500 -20.482000 -24.349600
C -14.732400 -17.423500 -20.731300
H -14.633800 -16.729300 -20.120900
H -14.534600 -22.547900 -25.401600
C -14.527100 -18.227900 -22.967600
C -14.417900 -17.220900 -22.071500
H -14.306400 -18.078400 -23.858400
H -14.128900 -16.382500 -22.354500
90
Fragment
H -19.397800 -13.957600 -22.892900
H -19.089500 -15.396800 -23.428700
C -18.682900 -14.564200 -23.143100
H -18.378900 -15.187400 -21.223900
O -17.972000 -14.006600 -24.229900
C -17.835100 -14.828900 -21.943100
H -17.361600 -14.971400 -25.832600
O -17.237300 -13.603900 -21.536200
H -17.234800 -15.809400 -24.514700
H -17.147600 -15.477400 -22.159300
C -17.110100 -14.926500 -24.897200
H -16.794000 -13.970600 -19.644000
C -16.315700 -13.754300 -20.460200
H -16.174500 -11.730300 -20.228300
H -15.699200 -14.478200 -20.652700
C -15.674900 -14.558600 -24.801600
C -15.564000 -12.481000 -20.285300
H -15.487300 -14.193600 -23.921300
O -15.369000 -13.591100 -25.798400
H -15.123800 -15.345800 -24.927400
H -15.030000 -12.509400 -19.476300
O -14.720700 -12.358100 -21.440800
H -14.325700 -10.243800 -19.924300
H -14.277600 -11.261500 -25.582400
C -14.187700 -11.130900 -21.699400
C -14.073700 -10.112900 -20.809900
C -13.998200 -13.253000 -25.866700
O -13.901200 -12.071800 -23.820100
C -13.771300 -10.955300 -23.042200
H -13.727300 -13.215400 -26.798100
C -13.696900 -11.949700 -25.223400
H -13.642300 -7.914400 -19.417400
C -13.574600 -8.849700 -21.216000
H -13.478200 -13.948100 -25.434400
C -13.427900 -7.788600 -20.313400
C -13.305600 -9.743900 -23.465400
C -13.217700 -8.661100 -22.560100
H -13.044100 -9.631400 -24.349600
C -12.974900 -6.572900 -20.731300
H -12.876300 -5.878700 -20.120900
H -12.777100 -11.697300 -25.401600
C -12.769600 -7.377300 -22.967600
C -12.660500 -6.370300 -22.071500
H -12.548900 -7.227800 -23.858400
H -12.371400 -5.531900 -22.354500
H -21.155200 -24.808200 -22.892900
H -20.846900 -26.247400 -23.428700
C -20.440300 -25.414800 -23.143100
H -20.136300 -26.038000 -21.223900
O -19.729400 -24.857200 -24.229900
C -19.592500 -25.679500 -21.943100
H -19.119000 -25.822000 -25.832600
O -18.994700 -24.454500 -21.536200
H -18.992200 -26.660000 -24.514700
H -18.905000 -26.328000 -22.159300
C -18.867500 -25.777100 -24.897200
H -18.551400 -24.821200 -19.644000
C -18.073100 -24.604900 -20.460200
H -17.931900 -22.580900 -20.228300
H -17.456600 -25.328800 -20.652700
C -17.432300 -25.409200 -24.801600
C -17.321400 -23.331600 -20.285300
H -17.244700 -25.044200 -23.921300
O -17.126400 -24.441700 -25.798400
H -16.881200 -26.196400 -24.927400
H -16.787400 -23.360000 -19.476300
O -16.478200 -23.208700 -21.440800
H -16.083100 -21.094400 -19.924300
H -16.035100 -22.112100 -25.582400
C -15.945100 -21.981500 -21.699400
C -15.831100 -20.963500 -20.809900
C -15.755600 -24.103600 -25.866700
O -15.658600 -22.922400 -23.820100
C -15.528700 -21.805900 -23.042200
H -15.484700 -24.066000 -26.798100
C -15.454300 -22.800300 -25.223400
H -15.399700 -18.765000 -19.417400
C -15.332000 -19.700300 -21.216000
H -15.235600 -24.798700 -25.434400
C -15.185300 -18.639200 -20.313400
C -15.063000 -20.594500 -23.465400
C -14.975100 -19.511700 -22.560100
H -14.801500 -20.482000 -24.349600
C -14.732400 -17.423500 -20.731300
H -14.633800 -16.729300 -20.120900
H -14.534600 -22.547900 -25.401600
C -14.527100 -18.227900 -22.967600
C -14.417900 -17.220900 -22.071500
H -14.306400 -18.078400 -23.858400
H -14.128900 -16.382500 -22.354500
