19
Fragment
O -4.981900 -2.297000 -8.484300
H -4.565700 -3.189700 -13.458200
H -4.465500 -4.205500 -14.694800
H -4.435200 -4.734200 -13.206000
C -4.141400 -4.009300 -13.777900
H -4.102700 -3.408000 -10.839000
N -3.820600 -1.888600 -8.410500
O -3.361500 -1.248700 -7.469100
C -3.279400 -2.950300 -10.654600
C -2.960300 -2.180300 -9.536100
C -2.654000 -3.909500 -13.752400
C -2.124600 -2.864000 -11.415300
N -1.906700 -4.267200 -14.759700
C -1.786600 -3.423400 -12.716300
N -1.740200 -1.648900 -9.572600
N -1.237900 -2.085200 -10.734300
O -0.589900 -4.030500 -14.383800
N -0.542100 -3.508800 -13.112900
H -0.440700 -1.770400 -11.009400
19
Fragment
H -0.706600 -2.978000 -18.201000
N -0.605300 -1.239600 -16.097400
O -0.557400 -0.717900 -14.826600
N 0.090600 -2.663200 -18.476000
N 0.592800 -3.099500 -19.637700
C 0.639300 -1.325000 -16.494100
N 0.759400 -0.481200 -14.450700
C 0.977300 -1.884400 -17.795100
C 1.506700 -0.838900 -15.457900
C 1.813000 -2.568100 -19.674300
C 2.132100 -1.798100 -18.555800
O 2.214200 -3.499700 -21.741300
N 2.673300 -2.859800 -20.799800
H 2.955400 -1.340400 -18.371400
C 2.994100 -0.739100 -15.432400
H 3.287900 -0.014200 -16.004400
H 3.318200 -0.542900 -14.515600
H 3.418400 -1.558700 -15.752200
O 3.834600 -2.451400 -20.726000
38
Fragment
O -4.981900 -2.297000 -8.484300
H -4.565700 -3.189700 -13.458200
H -4.465500 -4.205500 -14.694800
H -4.435200 -4.734200 -13.206000
C -4.141400 -4.009300 -13.777900
H -4.102700 -3.408000 -10.839000
N -3.820600 -1.888600 -8.410500
O -3.361500 -1.248700 -7.469100
C -3.279400 -2.950300 -10.654600
C -2.960300 -2.180300 -9.536100
C -2.654000 -3.909500 -13.752400
C -2.124600 -2.864000 -11.415300
N -1.906700 -4.267200 -14.759700
C -1.786600 -3.423400 -12.716300
N -1.740200 -1.648900 -9.572600
N -1.237900 -2.085200 -10.734300
O -0.589900 -4.030500 -14.383800
N -0.542100 -3.508800 -13.112900
H -0.440700 -1.770400 -11.009400
H -0.706600 -2.978000 -18.201000
N -0.605300 -1.239600 -16.097400
O -0.557400 -0.717900 -14.826600
N 0.090600 -2.663200 -18.476000
N 0.592800 -3.099500 -19.637700
C 0.639300 -1.325000 -16.494100
N 0.759400 -0.481200 -14.450700
C 0.977300 -1.884400 -17.795100
C 1.506700 -0.838900 -15.457900
C 1.813000 -2.568100 -19.674300
C 2.132100 -1.798100 -18.555800
O 2.214200 -3.499700 -21.741300
N 2.673300 -2.859800 -20.799800
H 2.955400 -1.340400 -18.371400
C 2.994100 -0.739100 -15.432400
H 3.287900 -0.014200 -16.004400
H 3.318200 -0.542900 -14.515600
H 3.418400 -1.558700 -15.752200
O 3.834600 -2.451400 -20.726000
