19
Fragment
O -4.981900 -2.297000 -8.484300
H -4.565700 -3.189700 -13.458200
H -4.465500 -4.205500 -14.694800
H -4.435200 -4.734200 -13.206000
C -4.141400 -4.009300 -13.777900
H -4.102700 -3.408000 -10.839000
N -3.820600 -1.888600 -8.410500
O -3.361500 -1.248700 -7.469100
C -3.279400 -2.950300 -10.654600
C -2.960300 -2.180300 -9.536100
C -2.654000 -3.909500 -13.752400
C -2.124600 -2.864000 -11.415300
N -1.906700 -4.267200 -14.759700
C -1.786600 -3.423400 -12.716300
N -1.740200 -1.648900 -9.572600
N -1.237900 -2.085200 -10.734300
O -0.589900 -4.030500 -14.383800
N -0.542100 -3.508800 -13.112900
H -0.440700 -1.770400 -11.009400
19
Fragment
H -3.215800 -5.985200 -8.464200
N -3.114500 -4.246800 -6.360700
O -3.066700 -3.725100 -5.089800
N -2.418600 -5.670500 -8.739300
N -1.916400 -6.106700 -9.901000
C -1.870000 -4.332300 -6.757300
N -1.749900 -3.488500 -4.713900
C -1.532000 -4.891600 -8.058300
C -1.002600 -3.846100 -5.721100
C -0.696300 -5.575300 -9.937500
C -0.377100 -4.805400 -8.819000
O -0.295100 -6.506900 -12.004500
N 0.164100 -5.867000 -11.063000
H 0.446100 -4.347700 -8.634600
C 0.484800 -3.746300 -5.695600
H 0.778600 -3.021500 -6.267600
H 0.808900 -3.550100 -4.778800
H 0.909100 -4.565900 -6.015400
O 1.325400 -5.458600 -10.989200
38
Fragment
O -4.981900 -2.297000 -8.484300
H -4.565700 -3.189700 -13.458200
H -4.465500 -4.205500 -14.694800
H -4.435200 -4.734200 -13.206000
C -4.141400 -4.009300 -13.777900
H -4.102700 -3.408000 -10.839000
N -3.820600 -1.888600 -8.410500
O -3.361500 -1.248700 -7.469100
C -3.279400 -2.950300 -10.654600
C -2.960300 -2.180300 -9.536100
C -2.654000 -3.909500 -13.752400
C -2.124600 -2.864000 -11.415300
N -1.906700 -4.267200 -14.759700
C -1.786600 -3.423400 -12.716300
N -1.740200 -1.648900 -9.572600
N -1.237900 -2.085200 -10.734300
O -0.589900 -4.030500 -14.383800
N -0.542100 -3.508800 -13.112900
H -0.440700 -1.770400 -11.009400
H -3.215800 -5.985200 -8.464200
N -3.114500 -4.246800 -6.360700
O -3.066700 -3.725100 -5.089800
N -2.418600 -5.670500 -8.739300
N -1.916400 -6.106700 -9.901000
C -1.870000 -4.332300 -6.757300
N -1.749900 -3.488500 -4.713900
C -1.532000 -4.891600 -8.058300
C -1.002600 -3.846100 -5.721100
C -0.696300 -5.575300 -9.937500
C -0.377100 -4.805400 -8.819000
O -0.295100 -6.506900 -12.004500
N 0.164100 -5.867000 -11.063000
H 0.446100 -4.347700 -8.634600
C 0.484800 -3.746300 -5.695600
H 0.778600 -3.021500 -6.267600
H 0.808900 -3.550100 -4.778800
H 0.909100 -4.565900 -6.015400
O 1.325400 -5.458600 -10.989200
