3
Fragment
H -11.479000 -10.995700 -19.970800
O -10.884000 -10.410300 -19.941800
H -10.185200 -10.783800 -19.657600
21
Fragment
O -15.446700 -10.099500 -15.730800
N -14.346700 -10.428400 -16.158700
O -14.144600 -11.264200 -17.022400
N -13.414800 -8.607800 -14.968700
C -13.191600 -9.737200 -15.610700
N -12.192900 -8.131900 -14.687000
H -12.122600 -7.361300 -14.153200
C -11.823000 -9.994700 -15.757100
O -11.682200 -12.234000 -16.209300
C -11.202500 -8.917700 -15.147000
N -11.139700 -11.143600 -16.296700
O -10.029700 -10.952600 -16.780700
C -9.788900 -8.565700 -14.950500
H -9.557600 -8.658800 -17.752000
H -9.395000 -7.162700 -17.550600
N -9.270700 -8.528400 -13.756300
C -8.967900 -8.010100 -17.393900
C -8.806800 -8.182500 -15.927600
H -8.155900 -7.943900 -17.788300
O -7.964900 -8.139800 -13.939600
N -7.697800 -7.935700 -15.292900
24
Fragment
H -11.479000 -10.995700 -19.970800
O -10.884000 -10.410300 -19.941800
H -10.185200 -10.783800 -19.657600
O -15.446700 -10.099500 -15.730800
N -14.346700 -10.428400 -16.158700
O -14.144600 -11.264200 -17.022400
N -13.414800 -8.607800 -14.968700
C -13.191600 -9.737200 -15.610700
N -12.192900 -8.131900 -14.687000
H -12.122600 -7.361300 -14.153200
C -11.823000 -9.994700 -15.757100
O -11.682200 -12.234000 -16.209300
C -11.202500 -8.917700 -15.147000
N -11.139700 -11.143600 -16.296700
O -10.029700 -10.952600 -16.780700
C -9.788900 -8.565700 -14.950500
H -9.557600 -8.658800 -17.752000
H -9.395000 -7.162700 -17.550600
N -9.270700 -8.528400 -13.756300
C -8.967900 -8.010100 -17.393900
C -8.806800 -8.182500 -15.927600
H -8.155900 -7.943900 -17.788300
O -7.964900 -8.139800 -13.939600
N -7.697800 -7.935700 -15.292900
