3
Fragment
H -11.479000 -10.995700 -19.970800
O -10.884000 -10.410300 -19.941800
H -10.185200 -10.783800 -19.657600
21
Fragment
O -14.174400 -13.070200 -22.721400
N -13.074400 -12.741300 -23.149300
O -12.872300 -11.905500 -24.013000
N -12.142500 -14.561900 -21.959300
C -11.919300 -13.432400 -22.601400
N -10.920600 -15.037800 -21.677600
H -10.850300 -15.808300 -21.143800
C -10.550700 -13.175000 -22.747700
O -10.409900 -10.935700 -23.199900
C -9.930200 -14.251900 -22.137600
N -9.867400 -12.026000 -23.287300
O -8.757400 -12.217000 -23.771300
C -8.516600 -14.604000 -21.941200
H -8.285300 -14.510800 -24.742600
H -8.122700 -16.006900 -24.541200
N -7.998400 -14.641200 -20.746900
C -7.695600 -15.159600 -24.384500
C -7.534500 -14.987200 -22.918200
H -6.883600 -15.225800 -24.778900
O -6.692600 -15.029800 -20.930200
N -6.425500 -15.233900 -22.283600
24
Fragment
H -11.479000 -10.995700 -19.970800
O -10.884000 -10.410300 -19.941800
H -10.185200 -10.783800 -19.657600
O -14.174400 -13.070200 -22.721400
N -13.074400 -12.741300 -23.149300
O -12.872300 -11.905500 -24.013000
N -12.142500 -14.561900 -21.959300
C -11.919300 -13.432400 -22.601400
N -10.920600 -15.037800 -21.677600
H -10.850300 -15.808300 -21.143800
C -10.550700 -13.175000 -22.747700
O -10.409900 -10.935700 -23.199900
C -9.930200 -14.251900 -22.137600
N -9.867400 -12.026000 -23.287300
O -8.757400 -12.217000 -23.771300
C -8.516600 -14.604000 -21.941200
H -8.285300 -14.510800 -24.742600
H -8.122700 -16.006900 -24.541200
N -7.998400 -14.641200 -20.746900
C -7.695600 -15.159600 -24.384500
C -7.534500 -14.987200 -22.918200
H -6.883600 -15.225800 -24.778900
O -6.692600 -15.029800 -20.930200
N -6.425500 -15.233900 -22.283600
