19
Fragment
O -4.981900 -2.297000 -8.484300
H -4.565700 -3.189700 -13.458200
H -4.465500 -4.205500 -14.694800
H -4.435200 -4.734200 -13.206000
C -4.141400 -4.009300 -13.777900
H -4.102700 -3.408000 -10.839000
N -3.820600 -1.888600 -8.410500
O -3.361500 -1.248700 -7.469100
C -3.279400 -2.950300 -10.654600
C -2.960300 -2.180300 -9.536100
C -2.654000 -3.909500 -13.752400
C -2.124600 -2.864000 -11.415300
N -1.906700 -4.267200 -14.759700
C -1.786600 -3.423400 -12.716300
N -1.740200 -1.648900 -9.572600
N -1.237900 -2.085200 -10.734300
O -0.589900 -4.030500 -14.383800
N -0.542100 -3.508800 -13.112900
H -0.440700 -1.770400 -11.009400
19
Fragment
O -6.810200 -6.174800 -18.221100
H -6.394000 -7.067600 -23.195000
H -6.293800 -8.083300 -24.431600
H -6.263500 -8.612000 -22.942800
C -5.969700 -7.887100 -23.514700
H -5.931000 -7.285800 -20.575800
N -5.648900 -5.766400 -18.147300
O -5.189800 -5.126500 -17.205900
C -5.107700 -6.828100 -20.391400
C -4.788600 -6.058100 -19.272900
C -4.482300 -7.787300 -23.489200
C -3.952800 -6.741800 -21.152100
N -3.735000 -8.145000 -24.496500
C -3.614900 -7.301200 -22.453000
N -3.568400 -5.526800 -19.309400
N -3.066200 -5.963000 -20.471100
O -2.418200 -7.908300 -24.120600
N -2.370300 -7.386600 -22.849700
H -2.269000 -5.648200 -20.746200
38
Fragment
O -4.981900 -2.297000 -8.484300
H -4.565700 -3.189700 -13.458200
H -4.465500 -4.205500 -14.694800
H -4.435200 -4.734200 -13.206000
C -4.141400 -4.009300 -13.777900
H -4.102700 -3.408000 -10.839000
N -3.820600 -1.888600 -8.410500
O -3.361500 -1.248700 -7.469100
C -3.279400 -2.950300 -10.654600
C -2.960300 -2.180300 -9.536100
C -2.654000 -3.909500 -13.752400
C -2.124600 -2.864000 -11.415300
N -1.906700 -4.267200 -14.759700
C -1.786600 -3.423400 -12.716300
N -1.740200 -1.648900 -9.572600
N -1.237900 -2.085200 -10.734300
O -0.589900 -4.030500 -14.383800
N -0.542100 -3.508800 -13.112900
H -0.440700 -1.770400 -11.009400
O -6.810200 -6.174800 -18.221100
H -6.394000 -7.067600 -23.195000
H -6.293800 -8.083300 -24.431600
H -6.263500 -8.612000 -22.942800
C -5.969700 -7.887100 -23.514700
H -5.931000 -7.285800 -20.575800
N -5.648900 -5.766400 -18.147300
O -5.189800 -5.126500 -17.205900
C -5.107700 -6.828100 -20.391400
C -4.788600 -6.058100 -19.272900
C -4.482300 -7.787300 -23.489200
C -3.952800 -6.741800 -21.152100
N -3.735000 -8.145000 -24.496500
C -3.614900 -7.301200 -22.453000
N -3.568400 -5.526800 -19.309400
N -3.066200 -5.963000 -20.471100
O -2.418200 -7.908300 -24.120600
N -2.370300 -7.386600 -22.849700
H -2.269000 -5.648200 -20.746200
