19
Fragment
O -4.981900 -2.297000 -8.484300
H -4.565700 -3.189700 -13.458200
H -4.465500 -4.205500 -14.694800
H -4.435200 -4.734200 -13.206000
C -4.141400 -4.009300 -13.777900
H -4.102700 -3.408000 -10.839000
N -3.820600 -1.888600 -8.410500
O -3.361500 -1.248700 -7.469100
C -3.279400 -2.950300 -10.654600
C -2.960300 -2.180300 -9.536100
C -2.654000 -3.909500 -13.752400
C -2.124600 -2.864000 -11.415300
N -1.906700 -4.267200 -14.759700
C -1.786600 -3.423400 -12.716300
N -1.740200 -1.648900 -9.572600
N -1.237900 -2.085200 -10.734300
O -0.589900 -4.030500 -14.383800
N -0.542100 -3.508800 -13.112900
H -0.440700 -1.770400 -11.009400
19
Fragment
O -3.153700 1.580800 1.252400
H -2.737400 0.688100 -3.721400
H -2.637200 -0.327700 -4.958000
H -2.606900 -0.856300 -3.469200
C -2.313100 -0.131500 -4.041200
H -2.274400 0.469900 -1.102200
N -1.992400 1.989200 1.326200
O -1.533200 2.629100 2.267700
C -1.451200 0.927600 -0.917800
C -1.132000 1.697500 0.200700
C -0.825700 -0.031700 -4.015600
C -0.296300 1.013800 -1.678500
N -0.078400 -0.389300 -5.022900
C 0.041700 0.454400 -2.979500
N 0.088100 2.228900 0.164200
N 0.590400 1.792600 -0.997500
O 1.238400 -0.152700 -4.647000
N 1.286200 0.369000 -3.376100
H 1.387500 2.107400 -1.272600
38
Fragment
O -4.981900 -2.297000 -8.484300
H -4.565700 -3.189700 -13.458200
H -4.465500 -4.205500 -14.694800
H -4.435200 -4.734200 -13.206000
C -4.141400 -4.009300 -13.777900
H -4.102700 -3.408000 -10.839000
N -3.820600 -1.888600 -8.410500
O -3.361500 -1.248700 -7.469100
C -3.279400 -2.950300 -10.654600
C -2.960300 -2.180300 -9.536100
C -2.654000 -3.909500 -13.752400
C -2.124600 -2.864000 -11.415300
N -1.906700 -4.267200 -14.759700
C -1.786600 -3.423400 -12.716300
N -1.740200 -1.648900 -9.572600
N -1.237900 -2.085200 -10.734300
O -0.589900 -4.030500 -14.383800
N -0.542100 -3.508800 -13.112900
H -0.440700 -1.770400 -11.009400
O -3.153700 1.580800 1.252400
H -2.737400 0.688100 -3.721400
H -2.637200 -0.327700 -4.958000
H -2.606900 -0.856300 -3.469200
C -2.313100 -0.131500 -4.041200
H -2.274400 0.469900 -1.102200
N -1.992400 1.989200 1.326200
O -1.533200 2.629100 2.267700
C -1.451200 0.927600 -0.917800
C -1.132000 1.697500 0.200700
C -0.825700 -0.031700 -4.015600
C -0.296300 1.013800 -1.678500
N -0.078400 -0.389300 -5.022900
C 0.041700 0.454400 -2.979500
N 0.088100 2.228900 0.164200
N 0.590400 1.792600 -0.997500
O 1.238400 -0.152700 -4.647000
N 1.286200 0.369000 -3.376100
H 1.387500 2.107400 -1.272600
