19
Fragment
O -4.981900 -2.297000 -8.484300
H -4.565700 -3.189700 -13.458200
H -4.465500 -4.205500 -14.694800
H -4.435200 -4.734200 -13.206000
C -4.141400 -4.009300 -13.777900
H -4.102700 -3.408000 -10.839000
N -3.820600 -1.888600 -8.410500
O -3.361500 -1.248700 -7.469100
C -3.279400 -2.950300 -10.654600
C -2.960300 -2.180300 -9.536100
C -2.654000 -3.909500 -13.752400
C -2.124600 -2.864000 -11.415300
N -1.906700 -4.267200 -14.759700
C -1.786600 -3.423400 -12.716300
N -1.740200 -1.648900 -9.572600
N -1.237900 -2.085200 -10.734300
O -0.589900 -4.030500 -14.383800
N -0.542100 -3.508800 -13.112900
H -0.440700 -1.770400 -11.009400
3
Fragment
H 1.026200 -0.813300 -12.369600
O 1.093300 -1.112000 -11.615300
H 1.513100 -0.522500 -11.126200
22
Fragment
O -4.981900 -2.297000 -8.484300
H -4.565700 -3.189700 -13.458200
H -4.465500 -4.205500 -14.694800
H -4.435200 -4.734200 -13.206000
C -4.141400 -4.009300 -13.777900
H -4.102700 -3.408000 -10.839000
N -3.820600 -1.888600 -8.410500
O -3.361500 -1.248700 -7.469100
C -3.279400 -2.950300 -10.654600
C -2.960300 -2.180300 -9.536100
C -2.654000 -3.909500 -13.752400
C -2.124600 -2.864000 -11.415300
N -1.906700 -4.267200 -14.759700
C -1.786600 -3.423400 -12.716300
N -1.740200 -1.648900 -9.572600
N -1.237900 -2.085200 -10.734300
O -0.589900 -4.030500 -14.383800
N -0.542100 -3.508800 -13.112900
H -0.440700 -1.770400 -11.009400
H 1.026200 -0.813300 -12.369600
O 1.093300 -1.112000 -11.615300
H 1.513100 -0.522500 -11.126200
