19
Fragment
O -4.981900 -2.297000 -8.484300
H -4.565700 -3.189700 -13.458200
H -4.465500 -4.205500 -14.694800
H -4.435200 -4.734200 -13.206000
C -4.141400 -4.009300 -13.777900
H -4.102700 -3.408000 -10.839000
N -3.820600 -1.888600 -8.410500
O -3.361500 -1.248700 -7.469100
C -3.279400 -2.950300 -10.654600
C -2.960300 -2.180300 -9.536100
C -2.654000 -3.909500 -13.752400
C -2.124600 -2.864000 -11.415300
N -1.906700 -4.267200 -14.759700
C -1.786600 -3.423400 -12.716300
N -1.740200 -1.648900 -9.572600
N -1.237900 -2.085200 -10.734300
O -0.589900 -4.030500 -14.383800
N -0.542100 -3.508800 -13.112900
H -0.440700 -1.770400 -11.009400
19
Fragment
H -5.703600 0.899800 -8.464200
N -5.602300 2.638200 -6.360700
O -5.554400 3.159900 -5.089800
N -4.906400 1.214600 -8.739300
N -4.404200 0.778400 -9.901000
C -4.357700 2.552800 -6.757300
N -4.237600 3.396600 -4.713900
C -4.019800 1.993400 -8.058300
C -3.490300 3.038900 -5.721100
C -3.184000 1.309700 -9.937500
C -2.864900 2.079700 -8.819000
O -2.782800 0.378100 -12.004500
N -2.323700 1.018000 -11.063000
H -2.041600 2.537400 -8.634600
C -2.002900 3.138700 -5.695600
H -1.709100 3.863600 -6.267600
H -1.678800 3.334900 -4.778800
H -1.578600 2.319200 -6.015400
O -1.162400 1.426400 -10.989200
38
Fragment
O -4.981900 -2.297000 -8.484300
H -4.565700 -3.189700 -13.458200
H -4.465500 -4.205500 -14.694800
H -4.435200 -4.734200 -13.206000
C -4.141400 -4.009300 -13.777900
H -4.102700 -3.408000 -10.839000
N -3.820600 -1.888600 -8.410500
O -3.361500 -1.248700 -7.469100
C -3.279400 -2.950300 -10.654600
C -2.960300 -2.180300 -9.536100
C -2.654000 -3.909500 -13.752400
C -2.124600 -2.864000 -11.415300
N -1.906700 -4.267200 -14.759700
C -1.786600 -3.423400 -12.716300
N -1.740200 -1.648900 -9.572600
N -1.237900 -2.085200 -10.734300
O -0.589900 -4.030500 -14.383800
N -0.542100 -3.508800 -13.112900
H -0.440700 -1.770400 -11.009400
H -5.703600 0.899800 -8.464200
N -5.602300 2.638200 -6.360700
O -5.554400 3.159900 -5.089800
N -4.906400 1.214600 -8.739300
N -4.404200 0.778400 -9.901000
C -4.357700 2.552800 -6.757300
N -4.237600 3.396600 -4.713900
C -4.019800 1.993400 -8.058300
C -3.490300 3.038900 -5.721100
C -3.184000 1.309700 -9.937500
C -2.864900 2.079700 -8.819000
O -2.782800 0.378100 -12.004500
N -2.323700 1.018000 -11.063000
H -2.041600 2.537400 -8.634600
C -2.002900 3.138700 -5.695600
H -1.709100 3.863600 -6.267600
H -1.678800 3.334900 -4.778800
H -1.578600 2.319200 -6.015400
O -1.162400 1.426400 -10.989200
