23
Fragment
O -11.101700 -6.777400 -36.477100
H -10.569600 -5.947900 -34.041900
C -10.054300 -6.652800 -35.880800
N -9.902000 -6.170800 -34.579200
O -9.518200 -8.969300 -42.220200
N -8.783600 -6.924500 -36.332200
C -8.604700 -6.097600 -34.195600
N -8.598200 -7.377500 -37.611600
N -8.297200 -9.047100 -42.378200
O -8.190900 -5.716400 -33.113000
O -8.074100 -8.300000 -40.156500
C -7.762800 -6.578300 -35.357300
O -7.748800 -9.392000 -43.428600
C -7.450100 -8.699600 -41.294500
C -7.371800 -7.514600 -37.972200
H -7.239100 -7.359000 -35.058900
H -7.169600 -5.842400 -35.675500
C -7.050400 -7.981500 -39.300500
H -6.630900 -7.312900 -37.415900
C -6.103100 -8.646200 -41.206100
C -5.840700 -8.181300 -39.899700
H -5.504800 -8.888800 -41.889700
H -5.018500 -8.031600 -39.490000
23
Fragment
H -12.226100 -4.734600 -27.243100
H -11.739800 -5.591800 -24.843400
C -11.403900 -4.884200 -26.833400
C -11.141500 -5.349100 -25.527000
H -10.613700 -4.015800 -29.317200
C -10.194200 -4.684400 -27.432600
H -10.075000 -2.545300 -31.057600
H -10.005500 -4.062000 -31.674200
C -9.872800 -4.217600 -28.760900
C -9.794500 -5.402500 -25.438700
O -9.495800 -6.094900 -23.304500
C -9.481800 -3.281200 -31.375800
O -9.170500 -5.002900 -26.576600
O -9.053800 -2.419400 -33.620100
N -8.947400 -5.750100 -24.354900
N -8.646400 -4.080400 -29.121500
C -8.639900 -2.800500 -32.537500
N -8.461000 -3.627400 -30.400900
O -7.726400 -5.672200 -24.512900
N -7.342700 -2.873700 -32.153900
C -7.190300 -3.355700 -30.852300
H -6.675000 -2.650800 -32.691200
O -6.142900 -3.480400 -30.256000
46
Fragment
O -11.101700 -6.777400 -36.477100
H -10.569600 -5.947900 -34.041900
C -10.054300 -6.652800 -35.880800
N -9.902000 -6.170800 -34.579200
O -9.518200 -8.969300 -42.220200
N -8.783600 -6.924500 -36.332200
C -8.604700 -6.097600 -34.195600
N -8.598200 -7.377500 -37.611600
N -8.297200 -9.047100 -42.378200
O -8.190900 -5.716400 -33.113000
O -8.074100 -8.300000 -40.156500
C -7.762800 -6.578300 -35.357300
O -7.748800 -9.392000 -43.428600
C -7.450100 -8.699600 -41.294500
C -7.371800 -7.514600 -37.972200
H -7.239100 -7.359000 -35.058900
H -7.169600 -5.842400 -35.675500
C -7.050400 -7.981500 -39.300500
H -6.630900 -7.312900 -37.415900
C -6.103100 -8.646200 -41.206100
C -5.840700 -8.181300 -39.899700
H -5.504800 -8.888800 -41.889700
H -5.018500 -8.031600 -39.490000
H -12.226100 -4.734600 -27.243100
H -11.739800 -5.591800 -24.843400
C -11.403900 -4.884200 -26.833400
C -11.141500 -5.349100 -25.527000
H -10.613700 -4.015800 -29.317200
C -10.194200 -4.684400 -27.432600
H -10.075000 -2.545300 -31.057600
H -10.005500 -4.062000 -31.674200
C -9.872800 -4.217600 -28.760900
C -9.794500 -5.402500 -25.438700
O -9.495800 -6.094900 -23.304500
C -9.481800 -3.281200 -31.375800
O -9.170500 -5.002900 -26.576600
O -9.053800 -2.419400 -33.620100
N -8.947400 -5.750100 -24.354900
N -8.646400 -4.080400 -29.121500
C -8.639900 -2.800500 -32.537500
N -8.461000 -3.627400 -30.400900
O -7.726400 -5.672200 -24.512900
N -7.342700 -2.873700 -32.153900
C -7.190300 -3.355700 -30.852300
H -6.675000 -2.650800 -32.691200
O -6.142900 -3.480400 -30.256000
