23
Fragment
O -11.101700 -6.777400 -36.477100
H -10.569600 -5.947900 -34.041900
C -10.054300 -6.652800 -35.880800
N -9.902000 -6.170800 -34.579200
O -9.518200 -8.969300 -42.220200
N -8.783600 -6.924500 -36.332200
C -8.604700 -6.097600 -34.195600
N -8.598200 -7.377500 -37.611600
N -8.297200 -9.047100 -42.378200
O -8.190900 -5.716400 -33.113000
O -8.074100 -8.300000 -40.156500
C -7.762800 -6.578300 -35.357300
O -7.748800 -9.392000 -43.428600
C -7.450100 -8.699600 -41.294500
C -7.371800 -7.514600 -37.972200
H -7.239100 -7.359000 -35.058900
H -7.169600 -5.842400 -35.675500
C -7.050400 -7.981500 -39.300500
H -6.630900 -7.312900 -37.415900
C -6.103100 -8.646200 -41.206100
C -5.840700 -8.181300 -39.899700
H -5.504800 -8.888800 -41.889700
H -5.018500 -8.031600 -39.490000
23
Fragment
H -5.421600 -11.750700 -40.589700
H -4.935300 -10.893500 -38.190000
C -4.599400 -11.601000 -40.180000
C -4.337000 -11.136100 -38.873600
H -3.809200 -12.469400 -42.663800
C -3.389600 -11.800800 -40.779300
H -3.270500 -13.939900 -44.404200
H -3.201000 -12.423300 -45.020800
C -3.068300 -12.267700 -42.107500
C -2.990000 -11.082700 -38.785300
O -2.691300 -10.390300 -36.651200
C -2.677300 -13.204000 -44.722400
O -2.366000 -11.482300 -39.923200
O -2.249200 -14.065900 -46.966800
N -2.142900 -10.735200 -37.701500
N -1.841900 -12.404800 -42.468200
C -1.835300 -13.684700 -45.884100
N -1.656500 -12.857800 -43.747600
O -0.921900 -10.813000 -37.859600
N -0.538100 -13.611500 -45.500500
C -0.385800 -13.129500 -44.198900
H 0.129600 -13.834400 -46.037800
O 0.661600 -13.004900 -43.602600
46
Fragment
O -11.101700 -6.777400 -36.477100
H -10.569600 -5.947900 -34.041900
C -10.054300 -6.652800 -35.880800
N -9.902000 -6.170800 -34.579200
O -9.518200 -8.969300 -42.220200
N -8.783600 -6.924500 -36.332200
C -8.604700 -6.097600 -34.195600
N -8.598200 -7.377500 -37.611600
N -8.297200 -9.047100 -42.378200
O -8.190900 -5.716400 -33.113000
O -8.074100 -8.300000 -40.156500
C -7.762800 -6.578300 -35.357300
O -7.748800 -9.392000 -43.428600
C -7.450100 -8.699600 -41.294500
C -7.371800 -7.514600 -37.972200
H -7.239100 -7.359000 -35.058900
H -7.169600 -5.842400 -35.675500
C -7.050400 -7.981500 -39.300500
H -6.630900 -7.312900 -37.415900
C -6.103100 -8.646200 -41.206100
C -5.840700 -8.181300 -39.899700
H -5.504800 -8.888800 -41.889700
H -5.018500 -8.031600 -39.490000
H -5.421600 -11.750700 -40.589700
H -4.935300 -10.893500 -38.190000
C -4.599400 -11.601000 -40.180000
C -4.337000 -11.136100 -38.873600
H -3.809200 -12.469400 -42.663800
C -3.389600 -11.800800 -40.779300
H -3.270500 -13.939900 -44.404200
H -3.201000 -12.423300 -45.020800
C -3.068300 -12.267700 -42.107500
C -2.990000 -11.082700 -38.785300
O -2.691300 -10.390300 -36.651200
C -2.677300 -13.204000 -44.722400
O -2.366000 -11.482300 -39.923200
O -2.249200 -14.065900 -46.966800
N -2.142900 -10.735200 -37.701500
N -1.841900 -12.404800 -42.468200
C -1.835300 -13.684700 -45.884100
N -1.656500 -12.857800 -43.747600
O -0.921900 -10.813000 -37.859600
N -0.538100 -13.611500 -45.500500
C -0.385800 -13.129500 -44.198900
H 0.129600 -13.834400 -46.037800
O 0.661600 -13.004900 -43.602600
