21
Fragment
N -26.091500 -8.931900 -21.682700
N -25.790500 -8.825000 -20.423500
N -25.125100 -8.288700 -22.358900
H -25.087500 -8.207400 -23.214100
N -24.634000 -8.137100 -20.266800
C -24.228100 -7.793600 -21.490300
H -23.278300 -6.971200 -23.828600
C -23.033400 -7.034200 -21.827000
C -22.723000 -6.717500 -23.127500
H -22.410500 -6.855700 -19.891500
C -22.184300 -6.635000 -20.765800
C -21.558000 -6.008900 -23.358400
H -21.343400 -5.680900 -25.327000
C -21.031200 -5.926400 -21.007700
N -21.006500 -5.567800 -24.543700
C -20.692800 -5.594300 -22.321900
H -20.481900 -5.670300 -20.302500
C -19.828300 -4.918200 -24.265700
C -19.597600 -4.907200 -22.929500
H -19.267200 -4.539300 -24.903600
H -18.868000 -4.527100 -22.495100
21
Fragment
N -28.270600 -1.231400 -14.809300
N -27.969500 -1.338300 -13.550100
N -27.304100 -1.874500 -15.485500
H -27.266600 -1.955800 -16.340700
N -26.813000 -2.026100 -13.393400
C -26.407100 -2.369700 -14.616900
H -25.457300 -3.192100 -16.955200
C -25.212500 -3.129100 -14.953700
C -24.902100 -3.445700 -16.254100
H -24.589500 -3.307500 -13.018100
C -24.363300 -3.528300 -13.892400
C -23.737000 -4.154300 -16.485100
H -23.522400 -4.482400 -18.453600
C -23.210300 -4.236900 -14.134400
N -23.185600 -4.595400 -17.670300
C -22.871800 -4.569000 -15.448600
H -22.661000 -4.493000 -13.429200
C -22.007400 -5.245100 -17.392400
C -21.776600 -5.256000 -16.056200
H -21.446200 -5.623900 -18.030200
H -21.047000 -5.636100 -15.621800
42
Fragment
N -26.091500 -8.931900 -21.682700
N -25.790500 -8.825000 -20.423500
N -25.125100 -8.288700 -22.358900
H -25.087500 -8.207400 -23.214100
N -24.634000 -8.137100 -20.266800
C -24.228100 -7.793600 -21.490300
H -23.278300 -6.971200 -23.828600
C -23.033400 -7.034200 -21.827000
C -22.723000 -6.717500 -23.127500
H -22.410500 -6.855700 -19.891500
C -22.184300 -6.635000 -20.765800
C -21.558000 -6.008900 -23.358400
H -21.343400 -5.680900 -25.327000
C -21.031200 -5.926400 -21.007700
N -21.006500 -5.567800 -24.543700
C -20.692800 -5.594300 -22.321900
H -20.481900 -5.670300 -20.302500
C -19.828300 -4.918200 -24.265700
C -19.597600 -4.907200 -22.929500
H -19.267200 -4.539300 -24.903600
H -18.868000 -4.527100 -22.495100
N -28.270600 -1.231400 -14.809300
N -27.969500 -1.338300 -13.550100
N -27.304100 -1.874500 -15.485500
H -27.266600 -1.955800 -16.340700
N -26.813000 -2.026100 -13.393400
C -26.407100 -2.369700 -14.616900
H -25.457300 -3.192100 -16.955200
C -25.212500 -3.129100 -14.953700
C -24.902100 -3.445700 -16.254100
H -24.589500 -3.307500 -13.018100
C -24.363300 -3.528300 -13.892400
C -23.737000 -4.154300 -16.485100
H -23.522400 -4.482400 -18.453600
C -23.210300 -4.236900 -14.134400
N -23.185600 -4.595400 -17.670300
C -22.871800 -4.569000 -15.448600
H -22.661000 -4.493000 -13.429200
C -22.007400 -5.245100 -17.392400
C -21.776600 -5.256000 -16.056200
H -21.446200 -5.623900 -18.030200
H -21.047000 -5.636100 -15.621800
