21
Fragment
N -26.091500 -8.931900 -21.682700
N -25.790500 -8.825000 -20.423500
N -25.125100 -8.288700 -22.358900
H -25.087500 -8.207400 -23.214100
N -24.634000 -8.137100 -20.266800
C -24.228100 -7.793600 -21.490300
H -23.278300 -6.971200 -23.828600
C -23.033400 -7.034200 -21.827000
C -22.723000 -6.717500 -23.127500
H -22.410500 -6.855700 -19.891500
C -22.184300 -6.635000 -20.765800
C -21.558000 -6.008900 -23.358400
H -21.343400 -5.680900 -25.327000
C -21.031200 -5.926400 -21.007700
N -21.006500 -5.567800 -24.543700
C -20.692800 -5.594300 -22.321900
H -20.481900 -5.670300 -20.302500
C -19.828300 -4.918200 -24.265700
C -19.597600 -4.907200 -22.929500
H -19.267200 -4.539300 -24.903600
H -18.868000 -4.527100 -22.495100
21
Fragment
H -17.403800 -2.494500 -25.618400
H -17.004600 -2.506700 -23.210000
C -16.674200 -2.874600 -25.184000
C -16.443400 -2.885500 -23.847800
H -15.789800 -3.637600 -27.811000
C -15.579000 -3.561600 -25.791600
N -15.265200 -3.535200 -23.569900
C -15.240500 -3.893700 -27.105800
H -14.928400 -3.648200 -22.786600
C -14.713700 -3.976300 -24.755100
C -14.087400 -4.602300 -27.347700
H -13.861300 -4.823100 -28.222000
C -13.548700 -4.684900 -24.986000
C -13.238300 -5.001500 -26.286500
H -12.993500 -4.938500 -24.285000
C -12.043600 -5.760900 -26.623300
N -11.637700 -6.104500 -27.846700
H -11.184200 -6.174800 -24.899400
N -11.146700 -6.256100 -25.754600
N -10.481200 -6.792300 -27.690000
N -10.180200 -6.899200 -26.430800
42
Fragment
N -26.091500 -8.931900 -21.682700
N -25.790500 -8.825000 -20.423500
N -25.125100 -8.288700 -22.358900
H -25.087500 -8.207400 -23.214100
N -24.634000 -8.137100 -20.266800
C -24.228100 -7.793600 -21.490300
H -23.278300 -6.971200 -23.828600
C -23.033400 -7.034200 -21.827000
C -22.723000 -6.717500 -23.127500
H -22.410500 -6.855700 -19.891500
C -22.184300 -6.635000 -20.765800
C -21.558000 -6.008900 -23.358400
H -21.343400 -5.680900 -25.327000
C -21.031200 -5.926400 -21.007700
N -21.006500 -5.567800 -24.543700
C -20.692800 -5.594300 -22.321900
H -20.481900 -5.670300 -20.302500
C -19.828300 -4.918200 -24.265700
C -19.597600 -4.907200 -22.929500
H -19.267200 -4.539300 -24.903600
H -18.868000 -4.527100 -22.495100
H -17.403800 -2.494500 -25.618400
H -17.004600 -2.506700 -23.210000
C -16.674200 -2.874600 -25.184000
C -16.443400 -2.885500 -23.847800
H -15.789800 -3.637600 -27.811000
C -15.579000 -3.561600 -25.791600
N -15.265200 -3.535200 -23.569900
C -15.240500 -3.893700 -27.105800
H -14.928400 -3.648200 -22.786600
C -14.713700 -3.976300 -24.755100
C -14.087400 -4.602300 -27.347700
H -13.861300 -4.823100 -28.222000
C -13.548700 -4.684900 -24.986000
C -13.238300 -5.001500 -26.286500
H -12.993500 -4.938500 -24.285000
C -12.043600 -5.760900 -26.623300
N -11.637700 -6.104500 -27.846700
H -11.184200 -6.174800 -24.899400
N -11.146700 -6.256100 -25.754600
N -10.481200 -6.792300 -27.690000
N -10.180200 -6.899200 -26.430800
