21
Fragment
N -26.091500 -8.931900 -21.682700
N -25.790500 -8.825000 -20.423500
N -25.125100 -8.288700 -22.358900
H -25.087500 -8.207400 -23.214100
N -24.634000 -8.137100 -20.266800
C -24.228100 -7.793600 -21.490300
H -23.278300 -6.971200 -23.828600
C -23.033400 -7.034200 -21.827000
C -22.723000 -6.717500 -23.127500
H -22.410500 -6.855700 -19.891500
C -22.184300 -6.635000 -20.765800
C -21.558000 -6.008900 -23.358400
H -21.343400 -5.680900 -25.327000
C -21.031200 -5.926400 -21.007700
N -21.006500 -5.567800 -24.543700
C -20.692800 -5.594300 -22.321900
H -20.481900 -5.670300 -20.302500
C -19.828300 -4.918200 -24.265700
C -19.597600 -4.907200 -22.929500
H -19.267200 -4.539300 -24.903600
H -18.868000 -4.527100 -22.495100
21
Fragment
N -26.091500 -12.997200 -21.682700
N -25.790500 -12.890300 -20.423500
N -25.125100 -12.354000 -22.358900
H -25.087500 -12.272700 -23.214100
N -24.634000 -12.202400 -20.266800
C -24.228100 -11.858900 -21.490300
H -23.278300 -11.036500 -23.828600
C -23.033400 -11.099500 -21.827000
C -22.723000 -10.782800 -23.127500
H -22.410500 -10.921000 -19.891500
C -22.184300 -10.700300 -20.765800
C -21.558000 -10.074200 -23.358400
H -21.343400 -9.746200 -25.327000
C -21.031200 -9.991700 -21.007700
N -21.006500 -9.633100 -24.543700
C -20.692800 -9.659600 -22.321900
H -20.481900 -9.735600 -20.302500
C -19.828300 -8.983500 -24.265700
C -19.597600 -8.972500 -22.929500
H -19.267200 -8.604600 -24.903600
H -18.868000 -8.592400 -22.495100
42
Fragment
N -26.091500 -8.931900 -21.682700
N -25.790500 -8.825000 -20.423500
N -25.125100 -8.288700 -22.358900
H -25.087500 -8.207400 -23.214100
N -24.634000 -8.137100 -20.266800
C -24.228100 -7.793600 -21.490300
H -23.278300 -6.971200 -23.828600
C -23.033400 -7.034200 -21.827000
C -22.723000 -6.717500 -23.127500
H -22.410500 -6.855700 -19.891500
C -22.184300 -6.635000 -20.765800
C -21.558000 -6.008900 -23.358400
H -21.343400 -5.680900 -25.327000
C -21.031200 -5.926400 -21.007700
N -21.006500 -5.567800 -24.543700
C -20.692800 -5.594300 -22.321900
H -20.481900 -5.670300 -20.302500
C -19.828300 -4.918200 -24.265700
C -19.597600 -4.907200 -22.929500
H -19.267200 -4.539300 -24.903600
H -18.868000 -4.527100 -22.495100
N -26.091500 -12.997200 -21.682700
N -25.790500 -12.890300 -20.423500
N -25.125100 -12.354000 -22.358900
H -25.087500 -12.272700 -23.214100
N -24.634000 -12.202400 -20.266800
C -24.228100 -11.858900 -21.490300
H -23.278300 -11.036500 -23.828600
C -23.033400 -11.099500 -21.827000
C -22.723000 -10.782800 -23.127500
H -22.410500 -10.921000 -19.891500
C -22.184300 -10.700300 -20.765800
C -21.558000 -10.074200 -23.358400
H -21.343400 -9.746200 -25.327000
C -21.031200 -9.991700 -21.007700
N -21.006500 -9.633100 -24.543700
C -20.692800 -9.659600 -22.321900
H -20.481900 -9.735600 -20.302500
C -19.828300 -8.983500 -24.265700
C -19.597600 -8.972500 -22.929500
H -19.267200 -8.604600 -24.903600
H -18.868000 -8.592400 -22.495100
