33
Fragment
H -6.444000 -26.004200 -19.802000
N -6.078700 -24.251900 -21.800500
N -6.028600 -23.196400 -22.656300
H -5.921300 -27.328300 -17.987400
C -5.626300 -25.898800 -19.372600
C -5.314600 -26.691600 -18.288400
C -5.082300 -24.077200 -20.953200
N -5.053300 -22.408400 -22.356800
C -4.724500 -24.939600 -19.829800
N -4.450300 -22.953700 -21.292800
C -4.095300 -26.537700 -17.650200
O -3.875300 -27.383400 -16.589700
H -3.695200 -22.506900 -20.880000
C -3.492600 -24.821300 -19.195900
C -3.172500 -25.615600 -18.111900
H -2.996800 -25.402300 -15.126600
H -2.875200 -24.198600 -19.506700
C -2.718900 -27.274400 -15.825600
C -2.442200 -26.148000 -15.075600
H -2.344500 -25.532300 -17.696900
H -2.097400 -29.129100 -16.274400
C -1.910900 -28.379900 -15.755400
C -1.337000 -26.138400 -14.250700
H -1.136600 -25.376700 -13.756500
C -0.818100 -28.375300 -14.910600
C -0.518800 -27.259800 -14.151000
H -0.278700 -29.130800 -14.851900
C 0.624700 -27.242000 -13.232200
N 0.953200 -26.260400 -12.412600
N 1.511300 -28.233400 -13.075500
H 1.623800 -29.044100 -13.542100
N 2.063800 -26.684900 -11.762000
N 2.414200 -27.868700 -12.152800
33
Fragment
H -16.955500 -30.170800 -27.740000
N -16.590200 -31.923100 -29.738400
N -16.540200 -32.978600 -30.594300
H -16.432800 -28.846700 -25.925300
C -16.137800 -30.276200 -27.310500
C -15.826100 -29.483400 -26.226300
C -15.593800 -32.097800 -28.891100
N -15.564900 -33.766600 -30.294700
C -15.236000 -31.235400 -27.767700
N -14.961800 -33.221300 -29.230700
C -14.606900 -29.637300 -25.588100
O -14.386800 -28.791600 -24.527600
H -14.206700 -33.668100 -28.817900
C -14.004100 -31.353700 -27.133800
C -13.684000 -30.559400 -26.049800
H -13.508300 -30.772700 -23.064500
H -13.386700 -31.976400 -27.444700
C -13.230400 -28.900600 -23.763500
C -12.953700 -30.027000 -23.013500
H -12.856000 -30.642700 -25.634800
H -12.608900 -27.045900 -24.212300
C -12.422500 -27.795100 -23.693300
C -11.848500 -30.036600 -22.188600
H -11.648200 -30.798300 -21.694400
C -11.329700 -27.799700 -22.848600
C -11.030300 -28.915200 -22.088900
H -10.790200 -27.044200 -22.789900
C -9.886800 -28.933000 -21.170200
N -9.558300 -29.914600 -20.350500
N -9.000200 -27.941600 -21.013500
H -8.887800 -27.130900 -21.480100
N -8.447700 -29.490100 -19.699900
N -8.097400 -28.306300 -20.090800
66
Fragment
H -6.444000 -26.004200 -19.802000
N -6.078700 -24.251900 -21.800500
N -6.028600 -23.196400 -22.656300
H -5.921300 -27.328300 -17.987400
C -5.626300 -25.898800 -19.372600
C -5.314600 -26.691600 -18.288400
C -5.082300 -24.077200 -20.953200
N -5.053300 -22.408400 -22.356800
C -4.724500 -24.939600 -19.829800
N -4.450300 -22.953700 -21.292800
C -4.095300 -26.537700 -17.650200
O -3.875300 -27.383400 -16.589700
H -3.695200 -22.506900 -20.880000
C -3.492600 -24.821300 -19.195900
C -3.172500 -25.615600 -18.111900
H -2.996800 -25.402300 -15.126600
H -2.875200 -24.198600 -19.506700
C -2.718900 -27.274400 -15.825600
C -2.442200 -26.148000 -15.075600
H -2.344500 -25.532300 -17.696900
H -2.097400 -29.129100 -16.274400
C -1.910900 -28.379900 -15.755400
C -1.337000 -26.138400 -14.250700
H -1.136600 -25.376700 -13.756500
C -0.818100 -28.375300 -14.910600
C -0.518800 -27.259800 -14.151000
H -0.278700 -29.130800 -14.851900
C 0.624700 -27.242000 -13.232200
N 0.953200 -26.260400 -12.412600
N 1.511300 -28.233400 -13.075500
H 1.623800 -29.044100 -13.542100
N 2.063800 -26.684900 -11.762000
N 2.414200 -27.868700 -12.152800
H -16.955500 -30.170800 -27.740000
N -16.590200 -31.923100 -29.738400
N -16.540200 -32.978600 -30.594300
H -16.432800 -28.846700 -25.925300
C -16.137800 -30.276200 -27.310500
C -15.826100 -29.483400 -26.226300
C -15.593800 -32.097800 -28.891100
N -15.564900 -33.766600 -30.294700
C -15.236000 -31.235400 -27.767700
N -14.961800 -33.221300 -29.230700
C -14.606900 -29.637300 -25.588100
O -14.386800 -28.791600 -24.527600
H -14.206700 -33.668100 -28.817900
C -14.004100 -31.353700 -27.133800
C -13.684000 -30.559400 -26.049800
H -13.508300 -30.772700 -23.064500
H -13.386700 -31.976400 -27.444700
C -13.230400 -28.900600 -23.763500
C -12.953700 -30.027000 -23.013500
H -12.856000 -30.642700 -25.634800
H -12.608900 -27.045900 -24.212300
C -12.422500 -27.795100 -23.693300
C -11.848500 -30.036600 -22.188600
H -11.648200 -30.798300 -21.694400
C -11.329700 -27.799700 -22.848600
C -11.030300 -28.915200 -22.088900
H -10.790200 -27.044200 -22.789900
C -9.886800 -28.933000 -21.170200
N -9.558300 -29.914600 -20.350500
N -9.000200 -27.941600 -21.013500
H -8.887800 -27.130900 -21.480100
N -8.447700 -29.490100 -19.699900
N -8.097400 -28.306300 -20.090800
