33
Fragment
H -6.444000 -26.004200 -19.802000
N -6.078700 -24.251900 -21.800500
N -6.028600 -23.196400 -22.656300
H -5.921300 -27.328300 -17.987400
C -5.626300 -25.898800 -19.372600
C -5.314600 -26.691600 -18.288400
C -5.082300 -24.077200 -20.953200
N -5.053300 -22.408400 -22.356800
C -4.724500 -24.939600 -19.829800
N -4.450300 -22.953700 -21.292800
C -4.095300 -26.537700 -17.650200
O -3.875300 -27.383400 -16.589700
H -3.695200 -22.506900 -20.880000
C -3.492600 -24.821300 -19.195900
C -3.172500 -25.615600 -18.111900
H -2.996800 -25.402300 -15.126600
H -2.875200 -24.198600 -19.506700
C -2.718900 -27.274400 -15.825600
C -2.442200 -26.148000 -15.075600
H -2.344500 -25.532300 -17.696900
H -2.097400 -29.129100 -16.274400
C -1.910900 -28.379900 -15.755400
C -1.337000 -26.138400 -14.250700
H -1.136600 -25.376700 -13.756500
C -0.818100 -28.375300 -14.910600
C -0.518800 -27.259800 -14.151000
H -0.278700 -29.130800 -14.851900
C 0.624700 -27.242000 -13.232200
N 0.953200 -26.260400 -12.412600
N 1.511300 -28.233400 -13.075500
H 1.623800 -29.044100 -13.542100
N 2.063800 -26.684900 -11.762000
N 2.414200 -27.868700 -12.152800
33
Fragment
H -1.890100 -30.170800 -11.864100
N -1.524800 -31.923100 -13.862500
N -1.474700 -32.978600 -14.718400
H -1.367400 -28.846700 -10.049400
C -1.072400 -30.276200 -11.434600
C -0.760700 -29.483400 -10.350500
C -0.528400 -32.097800 -13.015200
N -0.499400 -33.766600 -14.418800
C -0.170600 -31.235400 -11.891800
N 0.103700 -33.221300 -13.354800
C 0.458600 -29.637300 -9.712200
O 0.678600 -28.791600 -8.651700
H 0.858700 -33.668100 -12.942000
C 1.061400 -31.353700 -11.257900
C 1.381400 -30.559400 -10.173900
H 1.557100 -30.772700 -7.188600
H 1.678700 -31.976400 -11.568800
C 1.835000 -28.900600 -7.887600
C 2.111700 -30.027000 -7.137600
H 2.209400 -30.642700 -9.758900
H 2.456500 -27.045900 -8.336400
C 2.643000 -27.795100 -7.817500
C 3.216900 -30.036600 -6.312700
H 3.417300 -30.798300 -5.818500
C 3.735800 -27.799700 -6.972700
C 4.035200 -28.915200 -6.213000
H 4.275300 -27.044200 -6.914000
C 5.178600 -28.933000 -5.294300
N 5.507100 -29.914600 -4.474600
N 6.065200 -27.941600 -5.137600
H 6.177700 -27.130900 -5.604200
N 6.617700 -29.490100 -3.824000
N 6.968100 -28.306300 -4.214900
66
Fragment
H -6.444000 -26.004200 -19.802000
N -6.078700 -24.251900 -21.800500
N -6.028600 -23.196400 -22.656300
H -5.921300 -27.328300 -17.987400
C -5.626300 -25.898800 -19.372600
C -5.314600 -26.691600 -18.288400
C -5.082300 -24.077200 -20.953200
N -5.053300 -22.408400 -22.356800
C -4.724500 -24.939600 -19.829800
N -4.450300 -22.953700 -21.292800
C -4.095300 -26.537700 -17.650200
O -3.875300 -27.383400 -16.589700
H -3.695200 -22.506900 -20.880000
C -3.492600 -24.821300 -19.195900
C -3.172500 -25.615600 -18.111900
H -2.996800 -25.402300 -15.126600
H -2.875200 -24.198600 -19.506700
C -2.718900 -27.274400 -15.825600
C -2.442200 -26.148000 -15.075600
H -2.344500 -25.532300 -17.696900
H -2.097400 -29.129100 -16.274400
C -1.910900 -28.379900 -15.755400
C -1.337000 -26.138400 -14.250700
H -1.136600 -25.376700 -13.756500
C -0.818100 -28.375300 -14.910600
C -0.518800 -27.259800 -14.151000
H -0.278700 -29.130800 -14.851900
C 0.624700 -27.242000 -13.232200
N 0.953200 -26.260400 -12.412600
N 1.511300 -28.233400 -13.075500
H 1.623800 -29.044100 -13.542100
N 2.063800 -26.684900 -11.762000
N 2.414200 -27.868700 -12.152800
H -1.890100 -30.170800 -11.864100
N -1.524800 -31.923100 -13.862500
N -1.474700 -32.978600 -14.718400
H -1.367400 -28.846700 -10.049400
C -1.072400 -30.276200 -11.434600
C -0.760700 -29.483400 -10.350500
C -0.528400 -32.097800 -13.015200
N -0.499400 -33.766600 -14.418800
C -0.170600 -31.235400 -11.891800
N 0.103700 -33.221300 -13.354800
C 0.458600 -29.637300 -9.712200
O 0.678600 -28.791600 -8.651700
H 0.858700 -33.668100 -12.942000
C 1.061400 -31.353700 -11.257900
C 1.381400 -30.559400 -10.173900
H 1.557100 -30.772700 -7.188600
H 1.678700 -31.976400 -11.568800
C 1.835000 -28.900600 -7.887600
C 2.111700 -30.027000 -7.137600
H 2.209400 -30.642700 -9.758900
H 2.456500 -27.045900 -8.336400
C 2.643000 -27.795100 -7.817500
C 3.216900 -30.036600 -6.312700
H 3.417300 -30.798300 -5.818500
C 3.735800 -27.799700 -6.972700
C 4.035200 -28.915200 -6.213000
H 4.275300 -27.044200 -6.914000
C 5.178600 -28.933000 -5.294300
N 5.507100 -29.914600 -4.474600
N 6.065200 -27.941600 -5.137600
H 6.177700 -27.130900 -5.604200
N 6.617700 -29.490100 -3.824000
N 6.968100 -28.306300 -4.214900
