39
Fragment
H -32.291500 -13.966600 -16.894200
H -31.543300 -13.153800 -15.787000
C -31.392300 -13.861300 -16.427000
H -31.201900 -14.713000 -15.968100
C -30.276600 -13.480600 -17.341800
H -30.009500 -15.177500 -18.355400
N -29.752300 -14.333800 -18.240200
H -29.733400 -11.519900 -16.996100
C -29.599300 -12.297900 -17.486300
N -28.761200 -13.783000 -18.990200
C -28.682700 -12.539200 -18.520100
O -28.340100 -9.784200 -18.006000
N -27.728300 -11.683600 -19.096900
C -27.626800 -10.373100 -18.823900
H -27.320600 -7.796100 -19.097300
H -27.207400 -12.017600 -19.708300
C -26.609100 -8.231500 -19.554300
C -26.562200 -9.620600 -19.567700
N -25.613900 -10.323200 -20.204600
C -25.613900 -7.532300 -20.204600
H -25.613900 -6.610100 -20.204600
C -24.665700 -9.620600 -20.841400
C -24.618800 -8.231500 -20.854800
H -24.020500 -12.017600 -20.700800
H -23.907300 -7.796100 -21.311800
C -23.601100 -10.373100 -21.585300
N -23.499600 -11.683600 -21.312300
O -22.887800 -9.784200 -22.403100
C -22.545200 -12.539200 -21.889000
N -22.466700 -13.783000 -21.418900
C -21.628600 -12.297900 -22.922800
H -21.494500 -11.519900 -23.413000
N -21.475600 -14.333800 -22.168900
H -21.218400 -15.177500 -22.053700
C -20.951300 -13.480600 -23.067300
H -20.025900 -14.713000 -24.441000
C -19.835600 -13.861300 -23.982200
H -19.684600 -13.153800 -24.622100
H -18.936400 -13.966600 -23.514900
39
Fragment
H -39.834800 -15.061400 -8.812400
H -39.086600 -15.874100 -7.705200
C -38.935500 -15.166700 -8.345100
H -38.745200 -14.314900 -7.886200
C -37.819800 -15.547400 -9.260000
H -37.552800 -13.850500 -10.273600
N -37.295500 -14.694200 -10.158400
H -37.276600 -17.508000 -8.914200
C -37.142500 -16.730100 -9.404500
N -36.304500 -15.245000 -10.908400
C -36.225900 -16.488800 -10.438300
O -35.883300 -19.243700 -9.924200
N -35.271500 -17.344400 -11.015000
C -35.170000 -18.654900 -10.742000
H -34.863800 -21.231900 -11.015500
H -34.750600 -17.010400 -11.626500
C -34.152300 -20.796500 -11.472500
C -34.105400 -19.407300 -11.485900
H -33.157200 -22.417900 -12.122700
C -33.157200 -21.495600 -12.122700
N -33.157200 -18.704800 -12.122700
C -32.208900 -19.407300 -12.759600
C -32.162000 -20.796500 -12.773000
H -31.563700 -17.010400 -12.619000
H -31.450500 -21.231900 -13.229900
C -31.144300 -18.654900 -13.503400
N -31.042800 -17.344400 -13.230400
O -30.431100 -19.243700 -14.321300
C -30.088400 -16.488800 -13.807100
N -30.009900 -15.245000 -13.337100
C -29.171800 -16.730100 -14.841000
H -29.037700 -17.508000 -15.331200
N -29.018800 -14.694200 -14.087100
H -28.761600 -13.850500 -13.971900
C -28.494500 -15.547400 -14.985500
H -27.569200 -14.314900 -16.359200
C -27.378800 -15.166700 -15.900300
H -27.227800 -15.874100 -16.540300
H -26.479600 -15.061400 -15.433000
78
Fragment
H -32.291500 -13.966600 -16.894200
H -31.543300 -13.153800 -15.787000
C -31.392300 -13.861300 -16.427000
H -31.201900 -14.713000 -15.968100
C -30.276600 -13.480600 -17.341800
H -30.009500 -15.177500 -18.355400
N -29.752300 -14.333800 -18.240200
H -29.733400 -11.519900 -16.996100
C -29.599300 -12.297900 -17.486300
N -28.761200 -13.783000 -18.990200
C -28.682700 -12.539200 -18.520100
O -28.340100 -9.784200 -18.006000
N -27.728300 -11.683600 -19.096900
C -27.626800 -10.373100 -18.823900
H -27.320600 -7.796100 -19.097300
H -27.207400 -12.017600 -19.708300
C -26.609100 -8.231500 -19.554300
C -26.562200 -9.620600 -19.567700
N -25.613900 -10.323200 -20.204600
C -25.613900 -7.532300 -20.204600
H -25.613900 -6.610100 -20.204600
C -24.665700 -9.620600 -20.841400
C -24.618800 -8.231500 -20.854800
H -24.020500 -12.017600 -20.700800
H -23.907300 -7.796100 -21.311800
C -23.601100 -10.373100 -21.585300
N -23.499600 -11.683600 -21.312300
O -22.887800 -9.784200 -22.403100
C -22.545200 -12.539200 -21.889000
N -22.466700 -13.783000 -21.418900
C -21.628600 -12.297900 -22.922800
H -21.494500 -11.519900 -23.413000
N -21.475600 -14.333800 -22.168900
H -21.218400 -15.177500 -22.053700
C -20.951300 -13.480600 -23.067300
H -20.025900 -14.713000 -24.441000
C -19.835600 -13.861300 -23.982200
H -19.684600 -13.153800 -24.622100
H -18.936400 -13.966600 -23.514900
H -39.834800 -15.061400 -8.812400
H -39.086600 -15.874100 -7.705200
C -38.935500 -15.166700 -8.345100
H -38.745200 -14.314900 -7.886200
C -37.819800 -15.547400 -9.260000
H -37.552800 -13.850500 -10.273600
N -37.295500 -14.694200 -10.158400
H -37.276600 -17.508000 -8.914200
C -37.142500 -16.730100 -9.404500
N -36.304500 -15.245000 -10.908400
C -36.225900 -16.488800 -10.438300
O -35.883300 -19.243700 -9.924200
N -35.271500 -17.344400 -11.015000
C -35.170000 -18.654900 -10.742000
H -34.863800 -21.231900 -11.015500
H -34.750600 -17.010400 -11.626500
C -34.152300 -20.796500 -11.472500
C -34.105400 -19.407300 -11.485900
H -33.157200 -22.417900 -12.122700
C -33.157200 -21.495600 -12.122700
N -33.157200 -18.704800 -12.122700
C -32.208900 -19.407300 -12.759600
C -32.162000 -20.796500 -12.773000
H -31.563700 -17.010400 -12.619000
H -31.450500 -21.231900 -13.229900
C -31.144300 -18.654900 -13.503400
N -31.042800 -17.344400 -13.230400
O -30.431100 -19.243700 -14.321300
C -30.088400 -16.488800 -13.807100
N -30.009900 -15.245000 -13.337100
C -29.171800 -16.730100 -14.841000
H -29.037700 -17.508000 -15.331200
N -29.018800 -14.694200 -14.087100
H -28.761600 -13.850500 -13.971900
C -28.494500 -15.547400 -14.985500
H -27.569200 -14.314900 -16.359200
C -27.378800 -15.166700 -15.900300
H -27.227800 -15.874100 -16.540300
H -26.479600 -15.061400 -15.433000
