39
Fragment
H -32.291500 -13.966600 -16.894200
H -31.543300 -13.153800 -15.787000
C -31.392300 -13.861300 -16.427000
H -31.201900 -14.713000 -15.968100
C -30.276600 -13.480600 -17.341800
H -30.009500 -15.177500 -18.355400
N -29.752300 -14.333800 -18.240200
H -29.733400 -11.519900 -16.996100
C -29.599300 -12.297900 -17.486300
N -28.761200 -13.783000 -18.990200
C -28.682700 -12.539200 -18.520100
O -28.340100 -9.784200 -18.006000
N -27.728300 -11.683600 -19.096900
C -27.626800 -10.373100 -18.823900
H -27.320600 -7.796100 -19.097300
H -27.207400 -12.017600 -19.708300
C -26.609100 -8.231500 -19.554300
C -26.562200 -9.620600 -19.567700
N -25.613900 -10.323200 -20.204600
C -25.613900 -7.532300 -20.204600
H -25.613900 -6.610100 -20.204600
C -24.665700 -9.620600 -20.841400
C -24.618800 -8.231500 -20.854800
H -24.020500 -12.017600 -20.700800
H -23.907300 -7.796100 -21.311800
C -23.601100 -10.373100 -21.585300
N -23.499600 -11.683600 -21.312300
O -22.887800 -9.784200 -22.403100
C -22.545200 -12.539200 -21.889000
N -22.466700 -13.783000 -21.418900
C -21.628600 -12.297900 -22.922800
H -21.494500 -11.519900 -23.413000
N -21.475600 -14.333800 -22.168900
H -21.218400 -15.177500 -22.053700
C -20.951300 -13.480600 -23.067300
H -20.025900 -14.713000 -24.441000
C -19.835600 -13.861300 -23.982200
H -19.684600 -13.153800 -24.622100
H -18.936400 -13.966600 -23.514900
39
Fragment
H -46.676600 -10.914500 -8.812400
H -45.928400 -11.727300 -7.705200
C -45.777400 -11.019800 -8.345100
H -45.587000 -10.168100 -7.886200
C -44.661700 -11.400500 -9.260000
H -44.394600 -9.703600 -10.273600
N -44.137400 -10.547300 -10.158400
H -44.118500 -13.361200 -8.914200
C -43.984400 -12.583200 -9.404500
N -43.146300 -11.098100 -10.908400
C -43.067800 -12.341900 -10.438300
O -42.725100 -15.096900 -9.924200
N -42.113400 -13.197500 -11.015000
C -42.011900 -14.508000 -10.742000
H -41.705700 -17.085000 -11.015500
H -41.592500 -12.863500 -11.626500
C -40.994200 -16.649600 -11.472500
C -40.947300 -15.260500 -11.485900
H -39.999000 -18.271000 -12.122700
C -39.999000 -17.348800 -12.122700
N -39.999000 -14.557900 -12.122700
C -39.050800 -15.260500 -12.759600
C -39.003900 -16.649600 -12.773000
H -38.405600 -12.863500 -12.619000
H -38.292400 -17.085000 -13.229900
C -37.986200 -14.508000 -13.503400
N -37.884700 -13.197500 -13.230400
O -37.272900 -15.096900 -14.321300
C -36.930300 -12.341900 -13.807100
N -36.851700 -11.098100 -13.337100
C -36.013700 -12.583200 -14.841000
H -35.879600 -13.361200 -15.331200
N -35.860700 -10.547300 -14.087100
H -35.603400 -9.703600 -13.971900
C -35.336400 -11.400500 -14.985500
H -34.411000 -10.168100 -16.359200
C -34.220700 -11.019800 -15.900300
H -34.069600 -11.727300 -16.540300
H -33.321500 -10.914500 -15.433000
78
Fragment
H -32.291500 -13.966600 -16.894200
H -31.543300 -13.153800 -15.787000
C -31.392300 -13.861300 -16.427000
H -31.201900 -14.713000 -15.968100
C -30.276600 -13.480600 -17.341800
H -30.009500 -15.177500 -18.355400
N -29.752300 -14.333800 -18.240200
H -29.733400 -11.519900 -16.996100
C -29.599300 -12.297900 -17.486300
N -28.761200 -13.783000 -18.990200
C -28.682700 -12.539200 -18.520100
O -28.340100 -9.784200 -18.006000
N -27.728300 -11.683600 -19.096900
C -27.626800 -10.373100 -18.823900
H -27.320600 -7.796100 -19.097300
H -27.207400 -12.017600 -19.708300
C -26.609100 -8.231500 -19.554300
C -26.562200 -9.620600 -19.567700
N -25.613900 -10.323200 -20.204600
C -25.613900 -7.532300 -20.204600
H -25.613900 -6.610100 -20.204600
C -24.665700 -9.620600 -20.841400
C -24.618800 -8.231500 -20.854800
H -24.020500 -12.017600 -20.700800
H -23.907300 -7.796100 -21.311800
C -23.601100 -10.373100 -21.585300
N -23.499600 -11.683600 -21.312300
O -22.887800 -9.784200 -22.403100
C -22.545200 -12.539200 -21.889000
N -22.466700 -13.783000 -21.418900
C -21.628600 -12.297900 -22.922800
H -21.494500 -11.519900 -23.413000
N -21.475600 -14.333800 -22.168900
H -21.218400 -15.177500 -22.053700
C -20.951300 -13.480600 -23.067300
H -20.025900 -14.713000 -24.441000
C -19.835600 -13.861300 -23.982200
H -19.684600 -13.153800 -24.622100
H -18.936400 -13.966600 -23.514900
H -46.676600 -10.914500 -8.812400
H -45.928400 -11.727300 -7.705200
C -45.777400 -11.019800 -8.345100
H -45.587000 -10.168100 -7.886200
C -44.661700 -11.400500 -9.260000
H -44.394600 -9.703600 -10.273600
N -44.137400 -10.547300 -10.158400
H -44.118500 -13.361200 -8.914200
C -43.984400 -12.583200 -9.404500
N -43.146300 -11.098100 -10.908400
C -43.067800 -12.341900 -10.438300
O -42.725100 -15.096900 -9.924200
N -42.113400 -13.197500 -11.015000
C -42.011900 -14.508000 -10.742000
H -41.705700 -17.085000 -11.015500
H -41.592500 -12.863500 -11.626500
C -40.994200 -16.649600 -11.472500
C -40.947300 -15.260500 -11.485900
H -39.999000 -18.271000 -12.122700
C -39.999000 -17.348800 -12.122700
N -39.999000 -14.557900 -12.122700
C -39.050800 -15.260500 -12.759600
C -39.003900 -16.649600 -12.773000
H -38.405600 -12.863500 -12.619000
H -38.292400 -17.085000 -13.229900
C -37.986200 -14.508000 -13.503400
N -37.884700 -13.197500 -13.230400
O -37.272900 -15.096900 -14.321300
C -36.930300 -12.341900 -13.807100
N -36.851700 -11.098100 -13.337100
C -36.013700 -12.583200 -14.841000
H -35.879600 -13.361200 -15.331200
N -35.860700 -10.547300 -14.087100
H -35.603400 -9.703600 -13.971900
C -35.336400 -11.400500 -14.985500
H -34.411000 -10.168100 -16.359200
C -34.220700 -11.019800 -15.900300
H -34.069600 -11.727300 -16.540300
H -33.321500 -10.914500 -15.433000
