26
Fragment
H -25.127800 -16.561700 -8.545500
H -24.957400 -18.722600 -9.325400
C -24.845600 -16.710600 -9.419200
C -24.739500 -18.017700 -9.891500
H -24.619800 -14.781100 -9.885300
C -24.543600 -15.648200 -10.213100
C -24.319500 -18.291800 -11.177900
H -24.252800 -19.167100 -11.487200
C -24.118100 -15.872200 -11.525700
C -24.000300 -17.207900 -11.998900
C -23.700900 -15.069100 -12.614100
H -23.637600 -13.071400 -12.489600
N -23.549400 -17.206200 -13.306300
N -23.504000 -13.763300 -12.982100
H -23.415900 -17.898200 -13.798800
C -23.352500 -15.900400 -13.674400
C -23.053200 -13.761700 -14.289500
C -22.935400 -15.097300 -14.762700
H -22.800600 -11.802400 -14.801300
C -22.733900 -12.677800 -15.110600
C -22.509800 -15.321400 -16.075400
H -22.433700 -16.188500 -16.403100
C -22.313900 -12.951800 -16.397000
C -22.207800 -14.258900 -16.869300
H -22.096000 -12.246900 -16.963100
H -21.925600 -14.407900 -17.743000
22
Fragment
H -21.893700 -14.429300 -10.480300
C -20.935300 -14.469000 -10.515400
N -20.917700 -19.645800 -11.461800
N -20.897700 -17.181400 -11.190100
C -20.888300 -18.507400 -11.389000
H -20.615000 -15.073600 -9.841500
H -20.572700 -13.594200 -10.358500
C -20.510200 -16.386700 -12.148800
C -20.505000 -14.952300 -11.864000
C -20.090200 -14.119300 -12.837500
H -20.089600 -13.204800 -12.667500
H -20.064900 -17.764700 -13.620900
C -20.064200 -16.850200 -13.450900
C -19.649400 -16.017200 -14.424500
C -19.644300 -14.582800 -14.139700
H -19.581800 -17.375300 -15.929900
H -19.539400 -15.895900 -16.446900
C -19.266200 -12.462200 -14.899400
N -19.256800 -13.788100 -15.098300
N -19.236700 -11.323800 -14.826700
C -19.219200 -16.500600 -15.773100
H -18.260700 -16.540200 -15.808100
48
Fragment
H -25.127800 -16.561700 -8.545500
H -24.957400 -18.722600 -9.325400
C -24.845600 -16.710600 -9.419200
C -24.739500 -18.017700 -9.891500
H -24.619800 -14.781100 -9.885300
C -24.543600 -15.648200 -10.213100
C -24.319500 -18.291800 -11.177900
H -24.252800 -19.167100 -11.487200
C -24.118100 -15.872200 -11.525700
C -24.000300 -17.207900 -11.998900
C -23.700900 -15.069100 -12.614100
H -23.637600 -13.071400 -12.489600
N -23.549400 -17.206200 -13.306300
N -23.504000 -13.763300 -12.982100
H -23.415900 -17.898200 -13.798800
C -23.352500 -15.900400 -13.674400
C -23.053200 -13.761700 -14.289500
C -22.935400 -15.097300 -14.762700
H -22.800600 -11.802400 -14.801300
C -22.733900 -12.677800 -15.110600
C -22.509800 -15.321400 -16.075400
H -22.433700 -16.188500 -16.403100
C -22.313900 -12.951800 -16.397000
C -22.207800 -14.258900 -16.869300
H -22.096000 -12.246900 -16.963100
H -21.925600 -14.407900 -17.743000
H -21.893700 -14.429300 -10.480300
C -20.935300 -14.469000 -10.515400
N -20.917700 -19.645800 -11.461800
N -20.897700 -17.181400 -11.190100
C -20.888300 -18.507400 -11.389000
H -20.615000 -15.073600 -9.841500
H -20.572700 -13.594200 -10.358500
C -20.510200 -16.386700 -12.148800
C -20.505000 -14.952300 -11.864000
C -20.090200 -14.119300 -12.837500
H -20.089600 -13.204800 -12.667500
H -20.064900 -17.764700 -13.620900
C -20.064200 -16.850200 -13.450900
C -19.649400 -16.017200 -14.424500
C -19.644300 -14.582800 -14.139700
H -19.581800 -17.375300 -15.929900
H -19.539400 -15.895900 -16.446900
C -19.266200 -12.462200 -14.899400
N -19.256800 -13.788100 -15.098300
N -19.236700 -11.323800 -14.826700
C -19.219200 -16.500600 -15.773100
H -18.260700 -16.540200 -15.808100
