26
Fragment
H -25.127800 -16.561700 -8.545500
H -24.957400 -18.722600 -9.325400
C -24.845600 -16.710600 -9.419200
C -24.739500 -18.017700 -9.891500
H -24.619800 -14.781100 -9.885300
C -24.543600 -15.648200 -10.213100
C -24.319500 -18.291800 -11.177900
H -24.252800 -19.167100 -11.487200
C -24.118100 -15.872200 -11.525700
C -24.000300 -17.207900 -11.998900
C -23.700900 -15.069100 -12.614100
H -23.637600 -13.071400 -12.489600
N -23.549400 -17.206200 -13.306300
N -23.504000 -13.763300 -12.982100
H -23.415900 -17.898200 -13.798800
C -23.352500 -15.900400 -13.674400
C -23.053200 -13.761700 -14.289500
C -22.935400 -15.097300 -14.762700
H -22.800600 -11.802400 -14.801300
C -22.733900 -12.677800 -15.110600
C -22.509800 -15.321400 -16.075400
H -22.433700 -16.188500 -16.403100
C -22.313900 -12.951800 -16.397000
C -22.207800 -14.258900 -16.869300
H -22.096000 -12.246900 -16.963100
H -21.925600 -14.407900 -17.743000
26
Fragment
H -28.596100 -14.336300 0.217300
H -28.425700 -16.497300 -0.562600
C -28.313900 -14.485300 -0.656300
C -28.207800 -15.792400 -1.128700
H -28.088100 -12.555800 -1.122500
C -28.011900 -13.422900 -1.450200
C -27.787800 -16.066500 -2.415000
H -27.721100 -16.941800 -2.724400
C -27.586300 -13.646900 -2.762900
C -27.468500 -14.982500 -3.236100
C -27.169200 -12.843800 -3.851300
H -27.105800 -10.846100 -3.726800
N -27.017700 -14.980900 -4.543500
N -26.972300 -11.538000 -4.219300
H -26.884100 -15.672800 -5.036000
C -26.820800 -13.675100 -4.911600
C -26.521500 -11.536400 -5.526700
C -26.403600 -12.872000 -5.999900
H -26.268900 -9.577100 -6.038500
C -26.202200 -10.452500 -6.347800
C -25.978100 -13.096100 -7.312600
H -25.901900 -13.963200 -7.640300
C -25.782200 -10.726500 -7.634200
C -25.676100 -12.033600 -8.106500
H -25.564300 -10.021600 -8.200200
H -25.393900 -12.182600 -8.980100
52
Fragment
H -25.127800 -16.561700 -8.545500
H -24.957400 -18.722600 -9.325400
C -24.845600 -16.710600 -9.419200
C -24.739500 -18.017700 -9.891500
H -24.619800 -14.781100 -9.885300
C -24.543600 -15.648200 -10.213100
C -24.319500 -18.291800 -11.177900
H -24.252800 -19.167100 -11.487200
C -24.118100 -15.872200 -11.525700
C -24.000300 -17.207900 -11.998900
C -23.700900 -15.069100 -12.614100
H -23.637600 -13.071400 -12.489600
N -23.549400 -17.206200 -13.306300
N -23.504000 -13.763300 -12.982100
H -23.415900 -17.898200 -13.798800
C -23.352500 -15.900400 -13.674400
C -23.053200 -13.761700 -14.289500
C -22.935400 -15.097300 -14.762700
H -22.800600 -11.802400 -14.801300
C -22.733900 -12.677800 -15.110600
C -22.509800 -15.321400 -16.075400
H -22.433700 -16.188500 -16.403100
C -22.313900 -12.951800 -16.397000
C -22.207800 -14.258900 -16.869300
H -22.096000 -12.246900 -16.963100
H -21.925600 -14.407900 -17.743000
H -28.596100 -14.336300 0.217300
H -28.425700 -16.497300 -0.562600
C -28.313900 -14.485300 -0.656300
C -28.207800 -15.792400 -1.128700
H -28.088100 -12.555800 -1.122500
C -28.011900 -13.422900 -1.450200
C -27.787800 -16.066500 -2.415000
H -27.721100 -16.941800 -2.724400
C -27.586300 -13.646900 -2.762900
C -27.468500 -14.982500 -3.236100
C -27.169200 -12.843800 -3.851300
H -27.105800 -10.846100 -3.726800
N -27.017700 -14.980900 -4.543500
N -26.972300 -11.538000 -4.219300
H -26.884100 -15.672800 -5.036000
C -26.820800 -13.675100 -4.911600
C -26.521500 -11.536400 -5.526700
C -26.403600 -12.872000 -5.999900
H -26.268900 -9.577100 -6.038500
C -26.202200 -10.452500 -6.347800
C -25.978100 -13.096100 -7.312600
H -25.901900 -13.963200 -7.640300
C -25.782200 -10.726500 -7.634200
C -25.676100 -12.033600 -8.106500
H -25.564300 -10.021600 -8.200200
H -25.393900 -12.182600 -8.980100
