26
Fragment
N -22.265000 -18.411300 -11.743600
H -22.052800 -16.074500 -16.398800
C -22.047700 -17.299100 -11.624000
N -21.853100 -15.246200 -8.953500
C -21.778200 -15.522400 -10.070100
C -21.701500 -15.945500 -11.439500
H -21.667800 -16.617800 -13.900000
C -21.381400 -15.735100 -13.831500
C -21.330100 -15.107000 -12.514100
H -21.323400 -12.227500 -11.160200
C -21.138600 -15.814200 -16.261000
H -21.053500 -13.574700 -10.405100
C -21.022200 -15.065300 -14.965400
C -20.885900 -13.759900 -12.423700
H -20.854500 -15.250600 -16.984000
C -20.769400 -13.011000 -11.128200
H -20.584700 -16.597800 -16.229000
C -20.578000 -13.718300 -14.875100
C -20.526700 -13.090100 -13.557600
H -20.240300 -12.207400 -13.489200
C -20.206600 -12.879800 -15.949600
C -20.129800 -13.302800 -17.319100
N -20.054900 -13.579000 -18.435700
C -19.860400 -11.526100 -15.765200
H -19.855300 -12.750700 -10.990400
N -19.643100 -10.413900 -15.645600
26
Fragment
H -18.434300 -11.841500 -20.521800
H -18.319600 -10.458400 -18.685800
C -18.143000 -10.964400 -20.624100
C -18.063700 -10.133500 -19.519400
H -17.849100 -11.062200 -22.611600
C -17.793400 -10.501300 -21.872100
C -17.617100 -8.847400 -19.628900
H -17.541700 -8.307200 -18.875700
C -17.354400 -9.187700 -22.020000
C -17.280900 -8.364400 -20.869600
C -16.975700 -8.302900 -23.086300
H -16.957400 -8.913000 -24.979800
N -16.847900 -7.092200 -21.213800
N -16.815100 -8.262600 -24.434800
H -16.705600 -6.441800 -20.668800
C -16.687300 -7.051900 -22.562300
C -16.382100 -6.990500 -24.779000
C -16.308500 -6.167200 -23.628600
H -16.121200 -7.047700 -26.772900
C -16.045900 -6.507500 -26.019700
C -15.869600 -4.853500 -23.776500
H -15.813800 -4.292600 -23.037000
C -15.599300 -5.221300 -26.129300
C -15.519900 -4.390500 -25.024600
H -15.343400 -4.896500 -26.962800
H -15.228600 -3.513400 -25.126800
52
Fragment
N -22.265000 -18.411300 -11.743600
H -22.052800 -16.074500 -16.398800
C -22.047700 -17.299100 -11.624000
N -21.853100 -15.246200 -8.953500
C -21.778200 -15.522400 -10.070100
C -21.701500 -15.945500 -11.439500
H -21.667800 -16.617800 -13.900000
C -21.381400 -15.735100 -13.831500
C -21.330100 -15.107000 -12.514100
H -21.323400 -12.227500 -11.160200
C -21.138600 -15.814200 -16.261000
H -21.053500 -13.574700 -10.405100
C -21.022200 -15.065300 -14.965400
C -20.885900 -13.759900 -12.423700
H -20.854500 -15.250600 -16.984000
C -20.769400 -13.011000 -11.128200
H -20.584700 -16.597800 -16.229000
C -20.578000 -13.718300 -14.875100
C -20.526700 -13.090100 -13.557600
H -20.240300 -12.207400 -13.489200
C -20.206600 -12.879800 -15.949600
C -20.129800 -13.302800 -17.319100
N -20.054900 -13.579000 -18.435700
C -19.860400 -11.526100 -15.765200
H -19.855300 -12.750700 -10.990400
N -19.643100 -10.413900 -15.645600
H -18.434300 -11.841500 -20.521800
H -18.319600 -10.458400 -18.685800
C -18.143000 -10.964400 -20.624100
C -18.063700 -10.133500 -19.519400
H -17.849100 -11.062200 -22.611600
C -17.793400 -10.501300 -21.872100
C -17.617100 -8.847400 -19.628900
H -17.541700 -8.307200 -18.875700
C -17.354400 -9.187700 -22.020000
C -17.280900 -8.364400 -20.869600
C -16.975700 -8.302900 -23.086300
H -16.957400 -8.913000 -24.979800
N -16.847900 -7.092200 -21.213800
N -16.815100 -8.262600 -24.434800
H -16.705600 -6.441800 -20.668800
C -16.687300 -7.051900 -22.562300
C -16.382100 -6.990500 -24.779000
C -16.308500 -6.167200 -23.628600
H -16.121200 -7.047700 -26.772900
C -16.045900 -6.507500 -26.019700
C -15.869600 -4.853500 -23.776500
H -15.813800 -4.292600 -23.037000
C -15.599300 -5.221300 -26.129300
C -15.519900 -4.390500 -25.024600
H -15.343400 -4.896500 -26.962800
H -15.228600 -3.513400 -25.126800
