26
Fragment
N -22.265000 -18.411300 -11.743600
H -22.052800 -16.074500 -16.398800
C -22.047700 -17.299100 -11.624000
N -21.853100 -15.246200 -8.953500
C -21.778200 -15.522400 -10.070100
C -21.701500 -15.945500 -11.439500
H -21.667800 -16.617800 -13.900000
C -21.381400 -15.735100 -13.831500
C -21.330100 -15.107000 -12.514100
H -21.323400 -12.227500 -11.160200
C -21.138600 -15.814200 -16.261000
H -21.053500 -13.574700 -10.405100
C -21.022200 -15.065300 -14.965400
C -20.885900 -13.759900 -12.423700
H -20.854500 -15.250600 -16.984000
C -20.769400 -13.011000 -11.128200
H -20.584700 -16.597800 -16.229000
C -20.578000 -13.718300 -14.875100
C -20.526700 -13.090100 -13.557600
H -20.240300 -12.207400 -13.489200
C -20.206600 -12.879800 -15.949600
C -20.129800 -13.302800 -17.319100
N -20.054900 -13.579000 -18.435700
C -19.860400 -11.526100 -15.765200
H -19.855300 -12.750700 -10.990400
N -19.643100 -10.413900 -15.645600
26
Fragment
N -26.147200 -16.974700 -2.613800
H -25.935000 -14.637900 -7.269100
C -25.929900 -15.862500 -2.494200
N -25.735300 -13.809600 0.176200
C -25.660400 -14.085800 -0.940400
C -25.583700 -14.508800 -2.309800
H -25.550000 -15.181200 -4.770300
C -25.263600 -14.298500 -4.701800
C -25.212300 -13.670400 -3.384400
H -25.205600 -10.790800 -2.030500
C -25.020800 -14.377600 -7.131200
H -24.935700 -12.138100 -1.275400
C -24.904400 -13.628700 -5.835700
C -24.768100 -12.323300 -3.294000
H -24.736700 -13.813900 -7.854300
C -24.651700 -11.574400 -1.998500
H -24.466900 -15.161200 -7.099300
C -24.460200 -12.281700 -5.745300
C -24.408900 -11.653500 -4.427900
H -24.122500 -10.770800 -4.359400
C -24.088800 -11.443200 -6.819900
C -24.012000 -11.866200 -8.189400
N -23.937200 -12.142400 -9.305900
C -23.742600 -10.089500 -6.635500
H -23.737500 -11.314100 -1.860600
N -23.525300 -8.977300 -6.515900
52
Fragment
N -22.265000 -18.411300 -11.743600
H -22.052800 -16.074500 -16.398800
C -22.047700 -17.299100 -11.624000
N -21.853100 -15.246200 -8.953500
C -21.778200 -15.522400 -10.070100
C -21.701500 -15.945500 -11.439500
H -21.667800 -16.617800 -13.900000
C -21.381400 -15.735100 -13.831500
C -21.330100 -15.107000 -12.514100
H -21.323400 -12.227500 -11.160200
C -21.138600 -15.814200 -16.261000
H -21.053500 -13.574700 -10.405100
C -21.022200 -15.065300 -14.965400
C -20.885900 -13.759900 -12.423700
H -20.854500 -15.250600 -16.984000
C -20.769400 -13.011000 -11.128200
H -20.584700 -16.597800 -16.229000
C -20.578000 -13.718300 -14.875100
C -20.526700 -13.090100 -13.557600
H -20.240300 -12.207400 -13.489200
C -20.206600 -12.879800 -15.949600
C -20.129800 -13.302800 -17.319100
N -20.054900 -13.579000 -18.435700
C -19.860400 -11.526100 -15.765200
H -19.855300 -12.750700 -10.990400
N -19.643100 -10.413900 -15.645600
N -26.147200 -16.974700 -2.613800
H -25.935000 -14.637900 -7.269100
C -25.929900 -15.862500 -2.494200
N -25.735300 -13.809600 0.176200
C -25.660400 -14.085800 -0.940400
C -25.583700 -14.508800 -2.309800
H -25.550000 -15.181200 -4.770300
C -25.263600 -14.298500 -4.701800
C -25.212300 -13.670400 -3.384400
H -25.205600 -10.790800 -2.030500
C -25.020800 -14.377600 -7.131200
H -24.935700 -12.138100 -1.275400
C -24.904400 -13.628700 -5.835700
C -24.768100 -12.323300 -3.294000
H -24.736700 -13.813900 -7.854300
C -24.651700 -11.574400 -1.998500
H -24.466900 -15.161200 -7.099300
C -24.460200 -12.281700 -5.745300
C -24.408900 -11.653500 -4.427900
H -24.122500 -10.770800 -4.359400
C -24.088800 -11.443200 -6.819900
C -24.012000 -11.866200 -8.189400
N -23.937200 -12.142400 -9.305900
C -23.742600 -10.089500 -6.635500
H -23.737500 -11.314100 -1.860600
N -23.525300 -8.977300 -6.515900
