26
Fragment
N -22.265000 -18.411300 -11.743600
H -22.052800 -16.074500 -16.398800
C -22.047700 -17.299100 -11.624000
N -21.853100 -15.246200 -8.953500
C -21.778200 -15.522400 -10.070100
C -21.701500 -15.945500 -11.439500
H -21.667800 -16.617800 -13.900000
C -21.381400 -15.735100 -13.831500
C -21.330100 -15.107000 -12.514100
H -21.323400 -12.227500 -11.160200
C -21.138600 -15.814200 -16.261000
H -21.053500 -13.574700 -10.405100
C -21.022200 -15.065300 -14.965400
C -20.885900 -13.759900 -12.423700
H -20.854500 -15.250600 -16.984000
C -20.769400 -13.011000 -11.128200
H -20.584700 -16.597800 -16.229000
C -20.578000 -13.718300 -14.875100
C -20.526700 -13.090100 -13.557600
H -20.240300 -12.207400 -13.489200
C -20.206600 -12.879800 -15.949600
C -20.129800 -13.302800 -17.319100
N -20.054900 -13.579000 -18.435700
C -19.860400 -11.526100 -15.765200
H -19.855300 -12.750700 -10.990400
N -19.643100 -10.413900 -15.645600
26
Fragment
N -18.382700 -19.847900 -20.873300
H -18.170600 -17.511100 -25.528500
C -18.165500 -18.735700 -20.753700
N -17.970900 -16.682800 -18.083200
C -17.896000 -16.959000 -19.199800
C -17.819200 -17.382100 -20.569300
H -17.785600 -18.054400 -23.029700
C -17.499200 -17.171700 -22.961300
C -17.447900 -16.543600 -21.643800
H -17.441100 -13.664100 -20.289900
C -17.256400 -17.250800 -25.390700
H -17.171300 -15.011300 -19.534900
C -17.140000 -16.501900 -24.095200
C -17.003600 -15.196500 -21.553500
H -16.972300 -16.687200 -26.113800
C -16.887200 -14.447600 -20.257900
H -16.702500 -18.034400 -25.358700
C -16.695800 -15.154900 -24.004800
C -16.644500 -14.526700 -22.687400
H -16.358100 -13.644000 -22.618900
C -16.324400 -14.316400 -25.079400
C -16.247600 -14.739400 -26.448800
N -16.172700 -15.015600 -27.565400
C -15.978200 -12.962700 -24.894900
H -15.973000 -14.187300 -20.120100
N -15.760900 -11.850500 -24.775300
52
Fragment
N -22.265000 -18.411300 -11.743600
H -22.052800 -16.074500 -16.398800
C -22.047700 -17.299100 -11.624000
N -21.853100 -15.246200 -8.953500
C -21.778200 -15.522400 -10.070100
C -21.701500 -15.945500 -11.439500
H -21.667800 -16.617800 -13.900000
C -21.381400 -15.735100 -13.831500
C -21.330100 -15.107000 -12.514100
H -21.323400 -12.227500 -11.160200
C -21.138600 -15.814200 -16.261000
H -21.053500 -13.574700 -10.405100
C -21.022200 -15.065300 -14.965400
C -20.885900 -13.759900 -12.423700
H -20.854500 -15.250600 -16.984000
C -20.769400 -13.011000 -11.128200
H -20.584700 -16.597800 -16.229000
C -20.578000 -13.718300 -14.875100
C -20.526700 -13.090100 -13.557600
H -20.240300 -12.207400 -13.489200
C -20.206600 -12.879800 -15.949600
C -20.129800 -13.302800 -17.319100
N -20.054900 -13.579000 -18.435700
C -19.860400 -11.526100 -15.765200
H -19.855300 -12.750700 -10.990400
N -19.643100 -10.413900 -15.645600
N -18.382700 -19.847900 -20.873300
H -18.170600 -17.511100 -25.528500
C -18.165500 -18.735700 -20.753700
N -17.970900 -16.682800 -18.083200
C -17.896000 -16.959000 -19.199800
C -17.819200 -17.382100 -20.569300
H -17.785600 -18.054400 -23.029700
C -17.499200 -17.171700 -22.961300
C -17.447900 -16.543600 -21.643800
H -17.441100 -13.664100 -20.289900
C -17.256400 -17.250800 -25.390700
H -17.171300 -15.011300 -19.534900
C -17.140000 -16.501900 -24.095200
C -17.003600 -15.196500 -21.553500
H -16.972300 -16.687200 -26.113800
C -16.887200 -14.447600 -20.257900
H -16.702500 -18.034400 -25.358700
C -16.695800 -15.154900 -24.004800
C -16.644500 -14.526700 -22.687400
H -16.358100 -13.644000 -22.618900
C -16.324400 -14.316400 -25.079400
C -16.247600 -14.739400 -26.448800
N -16.172700 -15.015600 -27.565400
C -15.978200 -12.962700 -24.894900
H -15.973000 -14.187300 -20.120100
N -15.760900 -11.850500 -24.775300
