26
Fragment
N -22.265000 -18.411300 -11.743600
H -22.052800 -16.074500 -16.398800
C -22.047700 -17.299100 -11.624000
N -21.853100 -15.246200 -8.953500
C -21.778200 -15.522400 -10.070100
C -21.701500 -15.945500 -11.439500
H -21.667800 -16.617800 -13.900000
C -21.381400 -15.735100 -13.831500
C -21.330100 -15.107000 -12.514100
H -21.323400 -12.227500 -11.160200
C -21.138600 -15.814200 -16.261000
H -21.053500 -13.574700 -10.405100
C -21.022200 -15.065300 -14.965400
C -20.885900 -13.759900 -12.423700
H -20.854500 -15.250600 -16.984000
C -20.769400 -13.011000 -11.128200
H -20.584700 -16.597800 -16.229000
C -20.578000 -13.718300 -14.875100
C -20.526700 -13.090100 -13.557600
H -20.240300 -12.207400 -13.489200
C -20.206600 -12.879800 -15.949600
C -20.129800 -13.302800 -17.319100
N -20.054900 -13.579000 -18.435700
C -19.860400 -11.526100 -15.765200
H -19.855300 -12.750700 -10.990400
N -19.643100 -10.413900 -15.645600
26
Fragment
N -18.502400 -10.239500 -11.743600
H -18.290200 -7.902700 -16.398800
C -18.285100 -9.127300 -11.624000
N -18.090500 -7.074400 -8.953500
C -18.015700 -7.350600 -10.070100
C -17.938900 -7.773700 -11.439500
H -17.905200 -8.446000 -13.900000
C -17.618800 -7.563300 -13.831500
C -17.567500 -6.935200 -12.514100
H -17.560800 -4.055700 -11.160200
C -17.376000 -7.642400 -16.261000
H -17.291000 -5.402900 -10.405100
C -17.259600 -6.893500 -14.965400
C -17.123300 -5.588100 -12.423700
H -17.092000 -7.078800 -16.984000
C -17.006900 -4.839200 -11.128200
H -16.822100 -8.426000 -16.229000
C -16.815400 -5.546500 -14.875100
C -16.764100 -4.918300 -13.557600
H -16.477700 -4.035600 -13.489200
C -16.444000 -4.708000 -15.949600
C -16.367300 -5.131000 -17.319100
N -16.292400 -5.407200 -18.435700
C -16.097800 -3.354300 -15.765200
H -16.092700 -4.578900 -10.990400
N -15.880500 -2.242100 -15.645600
52
Fragment
N -22.265000 -18.411300 -11.743600
H -22.052800 -16.074500 -16.398800
C -22.047700 -17.299100 -11.624000
N -21.853100 -15.246200 -8.953500
C -21.778200 -15.522400 -10.070100
C -21.701500 -15.945500 -11.439500
H -21.667800 -16.617800 -13.900000
C -21.381400 -15.735100 -13.831500
C -21.330100 -15.107000 -12.514100
H -21.323400 -12.227500 -11.160200
C -21.138600 -15.814200 -16.261000
H -21.053500 -13.574700 -10.405100
C -21.022200 -15.065300 -14.965400
C -20.885900 -13.759900 -12.423700
H -20.854500 -15.250600 -16.984000
C -20.769400 -13.011000 -11.128200
H -20.584700 -16.597800 -16.229000
C -20.578000 -13.718300 -14.875100
C -20.526700 -13.090100 -13.557600
H -20.240300 -12.207400 -13.489200
C -20.206600 -12.879800 -15.949600
C -20.129800 -13.302800 -17.319100
N -20.054900 -13.579000 -18.435700
C -19.860400 -11.526100 -15.765200
H -19.855300 -12.750700 -10.990400
N -19.643100 -10.413900 -15.645600
N -18.502400 -10.239500 -11.743600
H -18.290200 -7.902700 -16.398800
C -18.285100 -9.127300 -11.624000
N -18.090500 -7.074400 -8.953500
C -18.015700 -7.350600 -10.070100
C -17.938900 -7.773700 -11.439500
H -17.905200 -8.446000 -13.900000
C -17.618800 -7.563300 -13.831500
C -17.567500 -6.935200 -12.514100
H -17.560800 -4.055700 -11.160200
C -17.376000 -7.642400 -16.261000
H -17.291000 -5.402900 -10.405100
C -17.259600 -6.893500 -14.965400
C -17.123300 -5.588100 -12.423700
H -17.092000 -7.078800 -16.984000
C -17.006900 -4.839200 -11.128200
H -16.822100 -8.426000 -16.229000
C -16.815400 -5.546500 -14.875100
C -16.764100 -4.918300 -13.557600
H -16.477700 -4.035600 -13.489200
C -16.444000 -4.708000 -15.949600
C -16.367300 -5.131000 -17.319100
N -16.292400 -5.407200 -18.435700
C -16.097800 -3.354300 -15.765200
H -16.092700 -4.578900 -10.990400
N -15.880500 -2.242100 -15.645600
