26
Fragment
N -22.265000 -18.411300 -11.743600
H -22.052800 -16.074500 -16.398800
C -22.047700 -17.299100 -11.624000
N -21.853100 -15.246200 -8.953500
C -21.778200 -15.522400 -10.070100
C -21.701500 -15.945500 -11.439500
H -21.667800 -16.617800 -13.900000
C -21.381400 -15.735100 -13.831500
C -21.330100 -15.107000 -12.514100
H -21.323400 -12.227500 -11.160200
C -21.138600 -15.814200 -16.261000
H -21.053500 -13.574700 -10.405100
C -21.022200 -15.065300 -14.965400
C -20.885900 -13.759900 -12.423700
H -20.854500 -15.250600 -16.984000
C -20.769400 -13.011000 -11.128200
H -20.584700 -16.597800 -16.229000
C -20.578000 -13.718300 -14.875100
C -20.526700 -13.090100 -13.557600
H -20.240300 -12.207400 -13.489200
C -20.206600 -12.879800 -15.949600
C -20.129800 -13.302800 -17.319100
N -20.054900 -13.579000 -18.435700
C -19.860400 -11.526100 -15.765200
H -19.855300 -12.750700 -10.990400
N -19.643100 -10.413900 -15.645600
26
Fragment
H -22.196900 -20.013300 -20.521800
H -22.082100 -18.630200 -18.685800
C -21.905600 -19.136200 -20.624100
C -21.826300 -18.305300 -19.519400
H -21.611700 -19.234000 -22.611600
C -21.555900 -18.673100 -21.872100
C -21.379600 -17.019200 -19.628900
H -21.304300 -16.479000 -18.875700
C -21.117000 -17.359500 -22.020000
C -21.043400 -16.536200 -20.869600
C -20.738300 -16.474700 -23.086300
H -20.720000 -17.084800 -24.979800
N -20.610500 -15.264000 -21.213800
N -20.577700 -16.434400 -24.434800
H -20.468100 -14.613600 -20.668800
C -20.449800 -15.223700 -22.562300
C -20.144700 -15.162300 -24.779000
C -20.071100 -14.339000 -23.628600
H -19.883800 -15.219500 -26.772900
C -19.808500 -14.679300 -26.019700
C -19.632200 -13.025300 -23.776500
H -19.576400 -12.464400 -23.037000
C -19.361800 -13.393100 -26.129300
C -19.282500 -12.562300 -25.024600
H -19.106000 -13.068300 -26.962800
H -18.991200 -11.685200 -25.126800
52
Fragment
N -22.265000 -18.411300 -11.743600
H -22.052800 -16.074500 -16.398800
C -22.047700 -17.299100 -11.624000
N -21.853100 -15.246200 -8.953500
C -21.778200 -15.522400 -10.070100
C -21.701500 -15.945500 -11.439500
H -21.667800 -16.617800 -13.900000
C -21.381400 -15.735100 -13.831500
C -21.330100 -15.107000 -12.514100
H -21.323400 -12.227500 -11.160200
C -21.138600 -15.814200 -16.261000
H -21.053500 -13.574700 -10.405100
C -21.022200 -15.065300 -14.965400
C -20.885900 -13.759900 -12.423700
H -20.854500 -15.250600 -16.984000
C -20.769400 -13.011000 -11.128200
H -20.584700 -16.597800 -16.229000
C -20.578000 -13.718300 -14.875100
C -20.526700 -13.090100 -13.557600
H -20.240300 -12.207400 -13.489200
C -20.206600 -12.879800 -15.949600
C -20.129800 -13.302800 -17.319100
N -20.054900 -13.579000 -18.435700
C -19.860400 -11.526100 -15.765200
H -19.855300 -12.750700 -10.990400
N -19.643100 -10.413900 -15.645600
H -22.196900 -20.013300 -20.521800
H -22.082100 -18.630200 -18.685800
C -21.905600 -19.136200 -20.624100
C -21.826300 -18.305300 -19.519400
H -21.611700 -19.234000 -22.611600
C -21.555900 -18.673100 -21.872100
C -21.379600 -17.019200 -19.628900
H -21.304300 -16.479000 -18.875700
C -21.117000 -17.359500 -22.020000
C -21.043400 -16.536200 -20.869600
C -20.738300 -16.474700 -23.086300
H -20.720000 -17.084800 -24.979800
N -20.610500 -15.264000 -21.213800
N -20.577700 -16.434400 -24.434800
H -20.468100 -14.613600 -20.668800
C -20.449800 -15.223700 -22.562300
C -20.144700 -15.162300 -24.779000
C -20.071100 -14.339000 -23.628600
H -19.883800 -15.219500 -26.772900
C -19.808500 -14.679300 -26.019700
C -19.632200 -13.025300 -23.776500
H -19.576400 -12.464400 -23.037000
C -19.361800 -13.393100 -26.129300
C -19.282500 -12.562300 -25.024600
H -19.106000 -13.068300 -26.962800
H -18.991200 -11.685200 -25.126800
