26
Fragment
N -22.265000 -18.411300 -11.743600
H -22.052800 -16.074500 -16.398800
C -22.047700 -17.299100 -11.624000
N -21.853100 -15.246200 -8.953500
C -21.778200 -15.522400 -10.070100
C -21.701500 -15.945500 -11.439500
H -21.667800 -16.617800 -13.900000
C -21.381400 -15.735100 -13.831500
C -21.330100 -15.107000 -12.514100
H -21.323400 -12.227500 -11.160200
C -21.138600 -15.814200 -16.261000
H -21.053500 -13.574700 -10.405100
C -21.022200 -15.065300 -14.965400
C -20.885900 -13.759900 -12.423700
H -20.854500 -15.250600 -16.984000
C -20.769400 -13.011000 -11.128200
H -20.584700 -16.597800 -16.229000
C -20.578000 -13.718300 -14.875100
C -20.526700 -13.090100 -13.557600
H -20.240300 -12.207400 -13.489200
C -20.206600 -12.879800 -15.949600
C -20.129800 -13.302800 -17.319100
N -20.054900 -13.579000 -18.435700
C -19.860400 -11.526100 -15.765200
H -19.855300 -12.750700 -10.990400
N -19.643100 -10.413900 -15.645600
26
Fragment
H -26.679400 -25.311900 -2.262300
H -26.564600 -23.928700 -0.426400
C -26.388100 -24.434800 -2.364600
C -26.308800 -23.603900 -1.259900
H -26.094200 -24.532600 -4.352100
C -26.038400 -23.971700 -3.612600
C -25.862100 -22.317800 -1.369500
H -25.786800 -21.777600 -0.616300
C -25.599500 -22.658000 -3.760500
C -25.525900 -21.834700 -2.610200
C -25.220800 -21.773300 -4.826900
H -25.202500 -22.383400 -6.720400
N -25.093000 -20.562600 -2.954400
N -25.060200 -21.733000 -6.175300
H -24.950600 -19.912200 -2.409300
C -24.932300 -20.522300 -4.302800
C -24.627200 -20.460900 -6.519500
C -24.553600 -19.637600 -5.369200
H -24.366300 -20.518000 -8.513500
C -24.291000 -19.977800 -7.760300
C -24.114700 -18.323900 -5.517100
H -24.058900 -17.763000 -4.777600
C -23.844300 -18.691700 -7.869800
C -23.765000 -17.860800 -6.765100
H -23.588500 -18.366900 -8.703400
H -23.473700 -16.983800 -6.867400
52
Fragment
N -22.265000 -18.411300 -11.743600
H -22.052800 -16.074500 -16.398800
C -22.047700 -17.299100 -11.624000
N -21.853100 -15.246200 -8.953500
C -21.778200 -15.522400 -10.070100
C -21.701500 -15.945500 -11.439500
H -21.667800 -16.617800 -13.900000
C -21.381400 -15.735100 -13.831500
C -21.330100 -15.107000 -12.514100
H -21.323400 -12.227500 -11.160200
C -21.138600 -15.814200 -16.261000
H -21.053500 -13.574700 -10.405100
C -21.022200 -15.065300 -14.965400
C -20.885900 -13.759900 -12.423700
H -20.854500 -15.250600 -16.984000
C -20.769400 -13.011000 -11.128200
H -20.584700 -16.597800 -16.229000
C -20.578000 -13.718300 -14.875100
C -20.526700 -13.090100 -13.557600
H -20.240300 -12.207400 -13.489200
C -20.206600 -12.879800 -15.949600
C -20.129800 -13.302800 -17.319100
N -20.054900 -13.579000 -18.435700
C -19.860400 -11.526100 -15.765200
H -19.855300 -12.750700 -10.990400
N -19.643100 -10.413900 -15.645600
H -26.679400 -25.311900 -2.262300
H -26.564600 -23.928700 -0.426400
C -26.388100 -24.434800 -2.364600
C -26.308800 -23.603900 -1.259900
H -26.094200 -24.532600 -4.352100
C -26.038400 -23.971700 -3.612600
C -25.862100 -22.317800 -1.369500
H -25.786800 -21.777600 -0.616300
C -25.599500 -22.658000 -3.760500
C -25.525900 -21.834700 -2.610200
C -25.220800 -21.773300 -4.826900
H -25.202500 -22.383400 -6.720400
N -25.093000 -20.562600 -2.954400
N -25.060200 -21.733000 -6.175300
H -24.950600 -19.912200 -2.409300
C -24.932300 -20.522300 -4.302800
C -24.627200 -20.460900 -6.519500
C -24.553600 -19.637600 -5.369200
H -24.366300 -20.518000 -8.513500
C -24.291000 -19.977800 -7.760300
C -24.114700 -18.323900 -5.517100
H -24.058900 -17.763000 -4.777600
C -23.844300 -18.691700 -7.869800
C -23.765000 -17.860800 -6.765100
H -23.588500 -18.366900 -8.703400
H -23.473700 -16.983800 -6.867400
