26
Fragment
N -22.265000 -18.411300 -11.743600
H -22.052800 -16.074500 -16.398800
C -22.047700 -17.299100 -11.624000
N -21.853100 -15.246200 -8.953500
C -21.778200 -15.522400 -10.070100
C -21.701500 -15.945500 -11.439500
H -21.667800 -16.617800 -13.900000
C -21.381400 -15.735100 -13.831500
C -21.330100 -15.107000 -12.514100
H -21.323400 -12.227500 -11.160200
C -21.138600 -15.814200 -16.261000
H -21.053500 -13.574700 -10.405100
C -21.022200 -15.065300 -14.965400
C -20.885900 -13.759900 -12.423700
H -20.854500 -15.250600 -16.984000
C -20.769400 -13.011000 -11.128200
H -20.584700 -16.597800 -16.229000
C -20.578000 -13.718300 -14.875100
C -20.526700 -13.090100 -13.557600
H -20.240300 -12.207400 -13.489200
C -20.206600 -12.879800 -15.949600
C -20.129800 -13.302800 -17.319100
N -20.054900 -13.579000 -18.435700
C -19.860400 -11.526100 -15.765200
H -19.855300 -12.750700 -10.990400
N -19.643100 -10.413900 -15.645600
26
Fragment
H -22.316600 -10.404900 -11.392100
H -22.201800 -9.021800 -9.556100
C -22.025300 -9.527800 -11.494300
C -21.945900 -8.696900 -10.389600
H -21.731400 -9.625600 -13.481900
C -21.675600 -9.064700 -12.742400
C -21.499300 -7.410800 -10.499200
H -21.424000 -6.870600 -9.746000
C -21.236700 -7.751100 -12.890300
C -21.163100 -6.927700 -11.739900
C -20.857900 -6.866300 -13.956600
H -20.839600 -7.476400 -15.850100
N -20.730100 -5.655600 -12.084100
N -20.697300 -6.826000 -15.305100
H -20.587800 -5.005200 -11.539100
C -20.569500 -5.615300 -13.432600
C -20.264300 -5.553900 -15.649300
C -20.190800 -4.730600 -14.498900
H -20.003500 -5.611000 -17.643200
C -19.928100 -5.070900 -16.890000
C -19.751800 -3.416900 -14.646800
H -19.696100 -2.856000 -13.907300
C -19.481500 -3.784700 -16.999500
C -19.402100 -2.953900 -15.894900
H -19.225600 -3.459900 -17.833100
H -19.110900 -2.076800 -15.997100
52
Fragment
N -22.265000 -18.411300 -11.743600
H -22.052800 -16.074500 -16.398800
C -22.047700 -17.299100 -11.624000
N -21.853100 -15.246200 -8.953500
C -21.778200 -15.522400 -10.070100
C -21.701500 -15.945500 -11.439500
H -21.667800 -16.617800 -13.900000
C -21.381400 -15.735100 -13.831500
C -21.330100 -15.107000 -12.514100
H -21.323400 -12.227500 -11.160200
C -21.138600 -15.814200 -16.261000
H -21.053500 -13.574700 -10.405100
C -21.022200 -15.065300 -14.965400
C -20.885900 -13.759900 -12.423700
H -20.854500 -15.250600 -16.984000
C -20.769400 -13.011000 -11.128200
H -20.584700 -16.597800 -16.229000
C -20.578000 -13.718300 -14.875100
C -20.526700 -13.090100 -13.557600
H -20.240300 -12.207400 -13.489200
C -20.206600 -12.879800 -15.949600
C -20.129800 -13.302800 -17.319100
N -20.054900 -13.579000 -18.435700
C -19.860400 -11.526100 -15.765200
H -19.855300 -12.750700 -10.990400
N -19.643100 -10.413900 -15.645600
H -22.316600 -10.404900 -11.392100
H -22.201800 -9.021800 -9.556100
C -22.025300 -9.527800 -11.494300
C -21.945900 -8.696900 -10.389600
H -21.731400 -9.625600 -13.481900
C -21.675600 -9.064700 -12.742400
C -21.499300 -7.410800 -10.499200
H -21.424000 -6.870600 -9.746000
C -21.236700 -7.751100 -12.890300
C -21.163100 -6.927700 -11.739900
C -20.857900 -6.866300 -13.956600
H -20.839600 -7.476400 -15.850100
N -20.730100 -5.655600 -12.084100
N -20.697300 -6.826000 -15.305100
H -20.587800 -5.005200 -11.539100
C -20.569500 -5.615300 -13.432600
C -20.264300 -5.553900 -15.649300
C -20.190800 -4.730600 -14.498900
H -20.003500 -5.611000 -17.643200
C -19.928100 -5.070900 -16.890000
C -19.751800 -3.416900 -14.646800
H -19.696100 -2.856000 -13.907300
C -19.481500 -3.784700 -16.999500
C -19.402100 -2.953900 -15.894900
H -19.225600 -3.459900 -17.833100
H -19.110900 -2.076800 -15.997100
