26
Fragment
N -22.265000 -18.411300 -11.743600
H -22.052800 -16.074500 -16.398800
C -22.047700 -17.299100 -11.624000
N -21.853100 -15.246200 -8.953500
C -21.778200 -15.522400 -10.070100
C -21.701500 -15.945500 -11.439500
H -21.667800 -16.617800 -13.900000
C -21.381400 -15.735100 -13.831500
C -21.330100 -15.107000 -12.514100
H -21.323400 -12.227500 -11.160200
C -21.138600 -15.814200 -16.261000
H -21.053500 -13.574700 -10.405100
C -21.022200 -15.065300 -14.965400
C -20.885900 -13.759900 -12.423700
H -20.854500 -15.250600 -16.984000
C -20.769400 -13.011000 -11.128200
H -20.584700 -16.597800 -16.229000
C -20.578000 -13.718300 -14.875100
C -20.526700 -13.090100 -13.557600
H -20.240300 -12.207400 -13.489200
C -20.206600 -12.879800 -15.949600
C -20.129800 -13.302800 -17.319100
N -20.054900 -13.579000 -18.435700
C -19.860400 -11.526100 -15.765200
H -19.855300 -12.750700 -10.990400
N -19.643100 -10.413900 -15.645600
26
Fragment
N -21.664700 -11.676100 -20.873300
H -21.452500 -9.339300 -25.528500
C -21.447400 -10.563900 -20.753700
N -21.252800 -8.511000 -18.083200
C -21.177900 -8.787200 -19.199800
C -21.101200 -9.210300 -20.569300
H -21.067500 -9.882600 -23.029700
C -20.781100 -8.999900 -22.961300
C -20.729800 -8.371800 -21.643800
H -20.723100 -5.492300 -20.289900
C -20.538300 -9.079000 -25.390700
H -20.453200 -6.839500 -19.534900
C -20.421900 -8.330100 -24.095200
C -20.285600 -7.024700 -21.553500
H -20.254200 -8.515400 -26.113800
C -20.169200 -6.275800 -20.257900
H -19.984400 -9.862600 -25.358700
C -19.977700 -6.983100 -24.004800
C -19.926400 -6.354900 -22.687400
H -19.640000 -5.472200 -22.618900
C -19.606300 -6.144600 -25.079400
C -19.529500 -6.567600 -26.448800
N -19.454700 -6.843800 -27.565400
C -19.260100 -4.790900 -24.894900
H -19.255000 -6.015500 -20.120100
N -19.042800 -3.678700 -24.775300
52
Fragment
N -22.265000 -18.411300 -11.743600
H -22.052800 -16.074500 -16.398800
C -22.047700 -17.299100 -11.624000
N -21.853100 -15.246200 -8.953500
C -21.778200 -15.522400 -10.070100
C -21.701500 -15.945500 -11.439500
H -21.667800 -16.617800 -13.900000
C -21.381400 -15.735100 -13.831500
C -21.330100 -15.107000 -12.514100
H -21.323400 -12.227500 -11.160200
C -21.138600 -15.814200 -16.261000
H -21.053500 -13.574700 -10.405100
C -21.022200 -15.065300 -14.965400
C -20.885900 -13.759900 -12.423700
H -20.854500 -15.250600 -16.984000
C -20.769400 -13.011000 -11.128200
H -20.584700 -16.597800 -16.229000
C -20.578000 -13.718300 -14.875100
C -20.526700 -13.090100 -13.557600
H -20.240300 -12.207400 -13.489200
C -20.206600 -12.879800 -15.949600
C -20.129800 -13.302800 -17.319100
N -20.054900 -13.579000 -18.435700
C -19.860400 -11.526100 -15.765200
H -19.855300 -12.750700 -10.990400
N -19.643100 -10.413900 -15.645600
N -21.664700 -11.676100 -20.873300
H -21.452500 -9.339300 -25.528500
C -21.447400 -10.563900 -20.753700
N -21.252800 -8.511000 -18.083200
C -21.177900 -8.787200 -19.199800
C -21.101200 -9.210300 -20.569300
H -21.067500 -9.882600 -23.029700
C -20.781100 -8.999900 -22.961300
C -20.729800 -8.371800 -21.643800
H -20.723100 -5.492300 -20.289900
C -20.538300 -9.079000 -25.390700
H -20.453200 -6.839500 -19.534900
C -20.421900 -8.330100 -24.095200
C -20.285600 -7.024700 -21.553500
H -20.254200 -8.515400 -26.113800
C -20.169200 -6.275800 -20.257900
H -19.984400 -9.862600 -25.358700
C -19.977700 -6.983100 -24.004800
C -19.926400 -6.354900 -22.687400
H -19.640000 -5.472200 -22.618900
C -19.606300 -6.144600 -25.079400
C -19.529500 -6.567600 -26.448800
N -19.454700 -6.843800 -27.565400
C -19.260100 -4.790900 -24.894900
H -19.255000 -6.015500 -20.120100
N -19.042800 -3.678700 -24.775300
