30
Fragment
H -12.892400 -36.336900 -24.694900
H -12.614700 -31.829800 -30.924500
H -12.416700 -34.280100 -25.688300
H -12.308200 -32.170000 -28.620800
C -12.173000 -36.262900 -25.311200
C -11.936600 -32.418100 -30.613900
C -11.895500 -35.043700 -25.905700
C -11.757100 -32.623700 -29.247100
H -11.575200 -38.211200 -25.187400
C -11.400700 -37.381400 -25.614500
H -11.227800 -32.929000 -32.446100
C -11.119600 -33.078500 -31.514900
C -10.851400 -34.937300 -26.824000
C -10.768000 -33.495900 -28.801700
N -10.547900 -33.658400 -27.389500
C -10.375100 -37.276200 -26.542700
C -10.144400 -33.957000 -31.068500
C -10.090800 -36.061900 -27.185600
C -9.962400 -34.207700 -29.700700
H -9.853400 -38.044100 -26.748200
C -9.817000 -32.760600 -26.644700
H -9.709700 -31.441200 -28.060200
H -9.589500 -34.397100 -31.701500
O -9.501300 -33.038000 -25.474100
N -9.469000 -31.604600 -27.228800
C -9.035400 -36.017600 -28.210100
H -8.999600 -31.010200 -26.782200
C -8.977100 -35.212500 -29.291800
H -8.313300 -36.624300 -28.097700
H -8.213300 -35.307400 -29.849300
30
Fragment
H -18.000100 -36.336900 -24.694900
H -17.722400 -31.829800 -30.924500
H -17.524400 -34.280100 -25.688300
H -17.415900 -32.170000 -28.620800
C -17.280700 -36.262900 -25.311200
C -17.044300 -32.418100 -30.613900
C -17.003200 -35.043700 -25.905700
C -16.864800 -32.623700 -29.247100
H -16.682900 -38.211200 -25.187400
C -16.508400 -37.381400 -25.614500
H -16.335500 -32.929000 -32.446100
C -16.227300 -33.078500 -31.514900
C -15.959100 -34.937300 -26.824000
C -15.875700 -33.495900 -28.801700
N -15.655600 -33.658400 -27.389500
C -15.482800 -37.276200 -26.542700
C -15.252100 -33.957000 -31.068500
C -15.198500 -36.061900 -27.185600
C -15.070100 -34.207700 -29.700700
H -14.961100 -38.044100 -26.748200
C -14.924700 -32.760600 -26.644700
H -14.817400 -31.441200 -28.060200
H -14.697200 -34.397100 -31.701500
O -14.609000 -33.038000 -25.474100
N -14.576700 -31.604600 -27.228800
C -14.143100 -36.017600 -28.210100
H -14.107300 -31.010200 -26.782200
C -14.084800 -35.212500 -29.291800
H -13.421000 -36.624300 -28.097700
H -13.321000 -35.307400 -29.849300
60
Fragment
H -12.892400 -36.336900 -24.694900
H -12.614700 -31.829800 -30.924500
H -12.416700 -34.280100 -25.688300
H -12.308200 -32.170000 -28.620800
C -12.173000 -36.262900 -25.311200
C -11.936600 -32.418100 -30.613900
C -11.895500 -35.043700 -25.905700
C -11.757100 -32.623700 -29.247100
H -11.575200 -38.211200 -25.187400
C -11.400700 -37.381400 -25.614500
H -11.227800 -32.929000 -32.446100
C -11.119600 -33.078500 -31.514900
C -10.851400 -34.937300 -26.824000
C -10.768000 -33.495900 -28.801700
N -10.547900 -33.658400 -27.389500
C -10.375100 -37.276200 -26.542700
C -10.144400 -33.957000 -31.068500
C -10.090800 -36.061900 -27.185600
C -9.962400 -34.207700 -29.700700
H -9.853400 -38.044100 -26.748200
C -9.817000 -32.760600 -26.644700
H -9.709700 -31.441200 -28.060200
H -9.589500 -34.397100 -31.701500
O -9.501300 -33.038000 -25.474100
N -9.469000 -31.604600 -27.228800
C -9.035400 -36.017600 -28.210100
H -8.999600 -31.010200 -26.782200
C -8.977100 -35.212500 -29.291800
H -8.313300 -36.624300 -28.097700
H -8.213300 -35.307400 -29.849300
H -18.000100 -36.336900 -24.694900
H -17.722400 -31.829800 -30.924500
H -17.524400 -34.280100 -25.688300
H -17.415900 -32.170000 -28.620800
C -17.280700 -36.262900 -25.311200
C -17.044300 -32.418100 -30.613900
C -17.003200 -35.043700 -25.905700
C -16.864800 -32.623700 -29.247100
H -16.682900 -38.211200 -25.187400
C -16.508400 -37.381400 -25.614500
H -16.335500 -32.929000 -32.446100
C -16.227300 -33.078500 -31.514900
C -15.959100 -34.937300 -26.824000
C -15.875700 -33.495900 -28.801700
N -15.655600 -33.658400 -27.389500
C -15.482800 -37.276200 -26.542700
C -15.252100 -33.957000 -31.068500
C -15.198500 -36.061900 -27.185600
C -15.070100 -34.207700 -29.700700
H -14.961100 -38.044100 -26.748200
C -14.924700 -32.760600 -26.644700
H -14.817400 -31.441200 -28.060200
H -14.697200 -34.397100 -31.701500
O -14.609000 -33.038000 -25.474100
N -14.576700 -31.604600 -27.228800
C -14.143100 -36.017600 -28.210100
H -14.107300 -31.010200 -26.782200
C -14.084800 -35.212500 -29.291800
H -13.421000 -36.624300 -28.097700
H -13.321000 -35.307400 -29.849300
