30
Fragment
H -12.892400 -36.336900 -24.694900
H -12.614700 -31.829800 -30.924500
H -12.416700 -34.280100 -25.688300
H -12.308200 -32.170000 -28.620800
C -12.173000 -36.262900 -25.311200
C -11.936600 -32.418100 -30.613900
C -11.895500 -35.043700 -25.905700
C -11.757100 -32.623700 -29.247100
H -11.575200 -38.211200 -25.187400
C -11.400700 -37.381400 -25.614500
H -11.227800 -32.929000 -32.446100
C -11.119600 -33.078500 -31.514900
C -10.851400 -34.937300 -26.824000
C -10.768000 -33.495900 -28.801700
N -10.547900 -33.658400 -27.389500
C -10.375100 -37.276200 -26.542700
C -10.144400 -33.957000 -31.068500
C -10.090800 -36.061900 -27.185600
C -9.962400 -34.207700 -29.700700
H -9.853400 -38.044100 -26.748200
C -9.817000 -32.760600 -26.644700
H -9.709700 -31.441200 -28.060200
H -9.589500 -34.397100 -31.701500
O -9.501300 -33.038000 -25.474100
N -9.469000 -31.604600 -27.228800
C -9.035400 -36.017600 -28.210100
H -8.999600 -31.010200 -26.782200
C -8.977100 -35.212500 -29.291800
H -8.313300 -36.624300 -28.097700
H -8.213300 -35.307400 -29.849300
30
Fragment
H -13.968300 -27.777200 -21.268400
H -13.868300 -26.460300 -23.020000
C -13.204600 -27.872100 -21.825900
H -13.182000 -32.074300 -24.335400
C -13.146200 -27.067000 -22.907500
N -12.712600 -31.480000 -23.888800
O -12.680400 -30.046500 -25.643500
H -12.592200 -28.687500 -19.416200
H -12.471900 -31.643400 -23.057500
C -12.364600 -30.324000 -24.472900
H -12.328200 -25.040500 -24.369500
C -12.219200 -28.876800 -21.416900
C -12.090800 -27.022700 -23.932100
C -12.037200 -29.127500 -20.049200
C -11.806600 -25.808400 -24.575000
N -11.633700 -29.426200 -23.728100
C -11.413600 -29.588700 -22.315900
C -11.330200 -28.147300 -24.293700
C -11.062000 -30.006100 -19.602800
H -10.953800 -30.155500 -18.671600
C -10.780900 -25.703100 -25.503100
H -10.606400 -24.873400 -25.930300
C -10.424500 -30.460900 -21.870500
C -10.286100 -28.040900 -25.211900
C -10.245000 -30.666500 -20.503800
C -10.008600 -26.821600 -25.806400
H -9.873400 -30.914600 -22.496900
H -9.764900 -28.804400 -25.429300
H -9.566900 -31.254800 -20.193200
H -9.289200 -26.747700 -26.422700
60
Fragment
H -12.892400 -36.336900 -24.694900
H -12.614700 -31.829800 -30.924500
H -12.416700 -34.280100 -25.688300
H -12.308200 -32.170000 -28.620800
C -12.173000 -36.262900 -25.311200
C -11.936600 -32.418100 -30.613900
C -11.895500 -35.043700 -25.905700
C -11.757100 -32.623700 -29.247100
H -11.575200 -38.211200 -25.187400
C -11.400700 -37.381400 -25.614500
H -11.227800 -32.929000 -32.446100
C -11.119600 -33.078500 -31.514900
C -10.851400 -34.937300 -26.824000
C -10.768000 -33.495900 -28.801700
N -10.547900 -33.658400 -27.389500
C -10.375100 -37.276200 -26.542700
C -10.144400 -33.957000 -31.068500
C -10.090800 -36.061900 -27.185600
C -9.962400 -34.207700 -29.700700
H -9.853400 -38.044100 -26.748200
C -9.817000 -32.760600 -26.644700
H -9.709700 -31.441200 -28.060200
H -9.589500 -34.397100 -31.701500
O -9.501300 -33.038000 -25.474100
N -9.469000 -31.604600 -27.228800
C -9.035400 -36.017600 -28.210100
H -8.999600 -31.010200 -26.782200
C -8.977100 -35.212500 -29.291800
H -8.313300 -36.624300 -28.097700
H -8.213300 -35.307400 -29.849300
H -13.968300 -27.777200 -21.268400
H -13.868300 -26.460300 -23.020000
C -13.204600 -27.872100 -21.825900
H -13.182000 -32.074300 -24.335400
C -13.146200 -27.067000 -22.907500
N -12.712600 -31.480000 -23.888800
O -12.680400 -30.046500 -25.643500
H -12.592200 -28.687500 -19.416200
H -12.471900 -31.643400 -23.057500
C -12.364600 -30.324000 -24.472900
H -12.328200 -25.040500 -24.369500
C -12.219200 -28.876800 -21.416900
C -12.090800 -27.022700 -23.932100
C -12.037200 -29.127500 -20.049200
C -11.806600 -25.808400 -24.575000
N -11.633700 -29.426200 -23.728100
C -11.413600 -29.588700 -22.315900
C -11.330200 -28.147300 -24.293700
C -11.062000 -30.006100 -19.602800
H -10.953800 -30.155500 -18.671600
C -10.780900 -25.703100 -25.503100
H -10.606400 -24.873400 -25.930300
C -10.424500 -30.460900 -21.870500
C -10.286100 -28.040900 -25.211900
C -10.245000 -30.666500 -20.503800
C -10.008600 -26.821600 -25.806400
H -9.873400 -30.914600 -22.496900
H -9.764900 -28.804400 -25.429300
H -9.566900 -31.254800 -20.193200
H -9.289200 -26.747700 -26.422700
