24
Fragment
H -23.804500 -20.193400 -16.635500
H -23.443000 -18.797000 -20.808500
N -23.354400 -19.317000 -18.359700
C -23.266700 -19.565400 -17.061300
H -23.231800 -17.338100 -21.343400
C -22.793600 -18.111100 -20.980300
H -22.724400 -18.968800 -14.461500
C -22.429400 -18.373300 -18.537500
N -22.318900 -18.823100 -16.387400
H -22.143800 -18.435600 -21.607900
N -22.120000 -17.746700 -19.720800
C -21.939100 -18.970500 -15.012800
C -21.774200 -18.034700 -17.387000
H -21.468100 -19.799200 -14.897800
H -21.368300 -18.240600 -14.758800
C -21.126800 -16.798000 -19.750700
O -20.810100 -16.252400 -20.798000
C -20.769400 -17.052100 -17.319800
N -20.483700 -16.475700 -18.553900
O -20.167400 -16.702700 -16.290300
H -19.741300 -14.647000 -18.208800
C -19.423200 -15.462400 -18.603200
H -19.177000 -15.301200 -19.517600
H -18.658100 -15.776300 -18.116100
24
Fragment
H -21.486700 -19.318200 -28.760200
C -20.871700 -18.888700 -28.211800
N -20.768200 -19.116500 -26.910500
H -20.752100 -19.200700 -24.358500
H -20.429200 -17.985000 -30.612900
H -20.140600 -16.549200 -30.054100
N -20.000700 -17.976800 -28.655600
H -19.957700 -18.302400 -23.350000
C -19.881100 -18.886400 -24.107500
C -19.871100 -17.470000 -30.027200
C -19.776900 -18.289900 -26.502600
H -19.324700 -19.635100 -23.878900
N -19.282500 -18.156900 -25.229600
C -19.272600 -17.573700 -27.544000
H -18.956200 -17.543100 -30.309600
C -18.253600 -17.280700 -25.010000
C -18.212900 -16.650100 -27.396000
O -17.771900 -17.174900 -23.871400
N -17.760400 -16.559600 -26.064800
O -17.681000 -15.997800 -28.277600
H -16.929700 -15.053600 -25.039800
C -16.682000 -15.608200 -25.783900
H -16.530200 -15.058300 -26.554900
H -15.878700 -16.088700 -25.570200
48
Fragment
H -23.804500 -20.193400 -16.635500
H -23.443000 -18.797000 -20.808500
N -23.354400 -19.317000 -18.359700
C -23.266700 -19.565400 -17.061300
H -23.231800 -17.338100 -21.343400
C -22.793600 -18.111100 -20.980300
H -22.724400 -18.968800 -14.461500
C -22.429400 -18.373300 -18.537500
N -22.318900 -18.823100 -16.387400
H -22.143800 -18.435600 -21.607900
N -22.120000 -17.746700 -19.720800
C -21.939100 -18.970500 -15.012800
C -21.774200 -18.034700 -17.387000
H -21.468100 -19.799200 -14.897800
H -21.368300 -18.240600 -14.758800
C -21.126800 -16.798000 -19.750700
O -20.810100 -16.252400 -20.798000
C -20.769400 -17.052100 -17.319800
N -20.483700 -16.475700 -18.553900
O -20.167400 -16.702700 -16.290300
H -19.741300 -14.647000 -18.208800
C -19.423200 -15.462400 -18.603200
H -19.177000 -15.301200 -19.517600
H -18.658100 -15.776300 -18.116100
H -21.486700 -19.318200 -28.760200
C -20.871700 -18.888700 -28.211800
N -20.768200 -19.116500 -26.910500
H -20.752100 -19.200700 -24.358500
H -20.429200 -17.985000 -30.612900
H -20.140600 -16.549200 -30.054100
N -20.000700 -17.976800 -28.655600
H -19.957700 -18.302400 -23.350000
C -19.881100 -18.886400 -24.107500
C -19.871100 -17.470000 -30.027200
C -19.776900 -18.289900 -26.502600
H -19.324700 -19.635100 -23.878900
N -19.282500 -18.156900 -25.229600
C -19.272600 -17.573700 -27.544000
H -18.956200 -17.543100 -30.309600
C -18.253600 -17.280700 -25.010000
C -18.212900 -16.650100 -27.396000
O -17.771900 -17.174900 -23.871400
N -17.760400 -16.559600 -26.064800
O -17.681000 -15.997800 -28.277600
H -16.929700 -15.053600 -25.039800
C -16.682000 -15.608200 -25.783900
H -16.530200 -15.058300 -26.554900
H -15.878700 -16.088700 -25.570200
