24
Fragment
H -23.804500 -20.193400 -16.635500
H -23.443000 -18.797000 -20.808500
N -23.354400 -19.317000 -18.359700
C -23.266700 -19.565400 -17.061300
H -23.231800 -17.338100 -21.343400
C -22.793600 -18.111100 -20.980300
H -22.724400 -18.968800 -14.461500
C -22.429400 -18.373300 -18.537500
N -22.318900 -18.823100 -16.387400
H -22.143800 -18.435600 -21.607900
N -22.120000 -17.746700 -19.720800
C -21.939100 -18.970500 -15.012800
C -21.774200 -18.034700 -17.387000
H -21.468100 -19.799200 -14.897800
H -21.368300 -18.240600 -14.758800
C -21.126800 -16.798000 -19.750700
O -20.810100 -16.252400 -20.798000
C -20.769400 -17.052100 -17.319800
N -20.483700 -16.475700 -18.553900
O -20.167400 -16.702700 -16.290300
H -19.741300 -14.647000 -18.208800
C -19.423200 -15.462400 -18.603200
H -19.177000 -15.301200 -19.517600
H -18.658100 -15.776300 -18.116100
24
Fragment
H -29.003400 -21.818900 -26.707300
H -28.484400 -22.294000 -25.305800
C -28.238200 -22.132800 -26.220200
H -27.920200 -22.948200 -26.614600
O -27.494100 -20.892500 -28.533100
N -27.177800 -21.119500 -26.269500
C -26.892000 -20.543100 -27.503600
O -26.851400 -21.342800 -24.025300
C -26.534700 -20.797300 -25.072700
H -26.293100 -19.354700 -30.064500
H -26.193400 -17.796000 -29.925600
C -25.887200 -19.560500 -27.436400
C -25.722400 -18.624700 -29.810500
N -25.541500 -19.848500 -25.102600
H -25.517700 -19.159600 -23.215500
N -25.342600 -18.772100 -28.436000
C -25.232000 -19.221900 -26.285900
H -24.937000 -18.626400 -30.361900
C -24.867900 -19.484100 -23.843000
H -24.429600 -20.257100 -23.480000
C -24.394700 -18.029900 -27.762100
N -24.307100 -18.278300 -26.463700
H -24.218500 -18.798200 -24.014900
H -23.857000 -17.401800 -28.187900
48
Fragment
H -23.804500 -20.193400 -16.635500
H -23.443000 -18.797000 -20.808500
N -23.354400 -19.317000 -18.359700
C -23.266700 -19.565400 -17.061300
H -23.231800 -17.338100 -21.343400
C -22.793600 -18.111100 -20.980300
H -22.724400 -18.968800 -14.461500
C -22.429400 -18.373300 -18.537500
N -22.318900 -18.823100 -16.387400
H -22.143800 -18.435600 -21.607900
N -22.120000 -17.746700 -19.720800
C -21.939100 -18.970500 -15.012800
C -21.774200 -18.034700 -17.387000
H -21.468100 -19.799200 -14.897800
H -21.368300 -18.240600 -14.758800
C -21.126800 -16.798000 -19.750700
O -20.810100 -16.252400 -20.798000
C -20.769400 -17.052100 -17.319800
N -20.483700 -16.475700 -18.553900
O -20.167400 -16.702700 -16.290300
H -19.741300 -14.647000 -18.208800
C -19.423200 -15.462400 -18.603200
H -19.177000 -15.301200 -19.517600
H -18.658100 -15.776300 -18.116100
H -29.003400 -21.818900 -26.707300
H -28.484400 -22.294000 -25.305800
C -28.238200 -22.132800 -26.220200
H -27.920200 -22.948200 -26.614600
O -27.494100 -20.892500 -28.533100
N -27.177800 -21.119500 -26.269500
C -26.892000 -20.543100 -27.503600
O -26.851400 -21.342800 -24.025300
C -26.534700 -20.797300 -25.072700
H -26.293100 -19.354700 -30.064500
H -26.193400 -17.796000 -29.925600
C -25.887200 -19.560500 -27.436400
C -25.722400 -18.624700 -29.810500
N -25.541500 -19.848500 -25.102600
H -25.517700 -19.159600 -23.215500
N -25.342600 -18.772100 -28.436000
C -25.232000 -19.221900 -26.285900
H -24.937000 -18.626400 -30.361900
C -24.867900 -19.484100 -23.843000
H -24.429600 -20.257100 -23.480000
C -24.394700 -18.029900 -27.762100
N -24.307100 -18.278300 -26.463700
H -24.218500 -18.798200 -24.014900
H -23.857000 -17.401800 -28.187900
