24
Fragment
H -23.804500 -20.193400 -16.635500
H -23.443000 -18.797000 -20.808500
N -23.354400 -19.317000 -18.359700
C -23.266700 -19.565400 -17.061300
H -23.231800 -17.338100 -21.343400
C -22.793600 -18.111100 -20.980300
H -22.724400 -18.968800 -14.461500
C -22.429400 -18.373300 -18.537500
N -22.318900 -18.823100 -16.387400
H -22.143800 -18.435600 -21.607900
N -22.120000 -17.746700 -19.720800
C -21.939100 -18.970500 -15.012800
C -21.774200 -18.034700 -17.387000
H -21.468100 -19.799200 -14.897800
H -21.368300 -18.240600 -14.758800
C -21.126800 -16.798000 -19.750700
O -20.810100 -16.252400 -20.798000
C -20.769400 -17.052100 -17.319800
N -20.483700 -16.475700 -18.553900
O -20.167400 -16.702700 -16.290300
H -19.741300 -14.647000 -18.208800
C -19.423200 -15.462400 -18.603200
H -19.177000 -15.301200 -19.517600
H -18.658100 -15.776300 -18.116100
24
Fragment
H -19.328600 -16.305300 -13.819000
C -18.713600 -15.875800 -13.270700
N -18.610100 -16.103600 -11.969300
H -18.593900 -16.187800 -9.417400
H -18.271100 -14.972200 -15.671700
H -17.982500 -13.536400 -15.112900
N -17.842500 -14.963900 -13.714500
H -17.799600 -15.289500 -8.408900
C -17.723000 -15.873500 -9.166400
C -17.712900 -14.457100 -15.086100
C -17.618800 -15.277000 -11.561400
H -17.166600 -16.622200 -8.937800
N -17.124400 -15.144100 -10.288500
C -17.114500 -14.560800 -12.602800
H -16.798100 -14.530200 -15.368400
C -16.095500 -14.267800 -10.068800
C -16.054700 -13.637200 -12.454900
O -15.613800 -14.162000 -8.930300
N -15.602300 -13.546700 -11.123700
O -15.522900 -12.984900 -13.336400
H -14.771500 -12.040700 -10.098700
C -14.523900 -12.595300 -10.842800
H -14.372100 -12.045400 -11.613700
H -13.720600 -13.075800 -10.629100
48
Fragment
H -23.804500 -20.193400 -16.635500
H -23.443000 -18.797000 -20.808500
N -23.354400 -19.317000 -18.359700
C -23.266700 -19.565400 -17.061300
H -23.231800 -17.338100 -21.343400
C -22.793600 -18.111100 -20.980300
H -22.724400 -18.968800 -14.461500
C -22.429400 -18.373300 -18.537500
N -22.318900 -18.823100 -16.387400
H -22.143800 -18.435600 -21.607900
N -22.120000 -17.746700 -19.720800
C -21.939100 -18.970500 -15.012800
C -21.774200 -18.034700 -17.387000
H -21.468100 -19.799200 -14.897800
H -21.368300 -18.240600 -14.758800
C -21.126800 -16.798000 -19.750700
O -20.810100 -16.252400 -20.798000
C -20.769400 -17.052100 -17.319800
N -20.483700 -16.475700 -18.553900
O -20.167400 -16.702700 -16.290300
H -19.741300 -14.647000 -18.208800
C -19.423200 -15.462400 -18.603200
H -19.177000 -15.301200 -19.517600
H -18.658100 -15.776300 -18.116100
H -19.328600 -16.305300 -13.819000
C -18.713600 -15.875800 -13.270700
N -18.610100 -16.103600 -11.969300
H -18.593900 -16.187800 -9.417400
H -18.271100 -14.972200 -15.671700
H -17.982500 -13.536400 -15.112900
N -17.842500 -14.963900 -13.714500
H -17.799600 -15.289500 -8.408900
C -17.723000 -15.873500 -9.166400
C -17.712900 -14.457100 -15.086100
C -17.618800 -15.277000 -11.561400
H -17.166600 -16.622200 -8.937800
N -17.124400 -15.144100 -10.288500
C -17.114500 -14.560800 -12.602800
H -16.798100 -14.530200 -15.368400
C -16.095500 -14.267800 -10.068800
C -16.054700 -13.637200 -12.454900
O -15.613800 -14.162000 -8.930300
N -15.602300 -13.546700 -11.123700
O -15.522900 -12.984900 -13.336400
H -14.771500 -12.040700 -10.098700
C -14.523900 -12.595300 -10.842800
H -14.372100 -12.045400 -11.613700
H -13.720600 -13.075800 -10.629100
