24
Fragment
H -23.804500 -20.193400 -16.635500
H -23.443000 -18.797000 -20.808500
N -23.354400 -19.317000 -18.359700
C -23.266700 -19.565400 -17.061300
H -23.231800 -17.338100 -21.343400
C -22.793600 -18.111100 -20.980300
H -22.724400 -18.968800 -14.461500
C -22.429400 -18.373300 -18.537500
N -22.318900 -18.823100 -16.387400
H -22.143800 -18.435600 -21.607900
N -22.120000 -17.746700 -19.720800
C -21.939100 -18.970500 -15.012800
C -21.774200 -18.034700 -17.387000
H -21.468100 -19.799200 -14.897800
H -21.368300 -18.240600 -14.758800
C -21.126800 -16.798000 -19.750700
O -20.810100 -16.252400 -20.798000
C -20.769400 -17.052100 -17.319800
N -20.483700 -16.475700 -18.553900
O -20.167400 -16.702700 -16.290300
H -19.741300 -14.647000 -18.208800
C -19.423200 -15.462400 -18.603200
H -19.177000 -15.301200 -19.517600
H -18.658100 -15.776300 -18.116100
21
Fragment
H -25.091300 -23.710800 -10.546900
O -24.516400 -23.301200 -10.130100
O -24.296900 -22.261300 -12.067900
C -23.999400 -22.377000 -10.895100
H -23.254100 -22.202900 -8.365500
C -23.011700 -21.508600 -10.209300
C -22.761500 -21.605300 -8.881000
H -22.467100 -20.486900 -11.869200
C -22.290600 -20.574000 -10.960800
C -21.782800 -20.829700 -8.272900
H -21.624000 -20.914000 -7.360000
C -21.321500 -19.777200 -10.379600
C -21.044500 -19.931000 -9.022900
C -20.631100 -18.773300 -11.235700
O -20.544100 -18.861500 -12.423500
O -20.209600 -18.492700 -7.361500
O -20.159900 -17.757100 -10.572300
C -19.846700 -19.267200 -8.374500
H -19.623900 -17.349100 -11.041500
H -19.553800 -18.321600 -6.899800
O -18.728200 -19.480400 -8.704700
45
Fragment
H -23.804500 -20.193400 -16.635500
H -23.443000 -18.797000 -20.808500
N -23.354400 -19.317000 -18.359700
C -23.266700 -19.565400 -17.061300
H -23.231800 -17.338100 -21.343400
C -22.793600 -18.111100 -20.980300
H -22.724400 -18.968800 -14.461500
C -22.429400 -18.373300 -18.537500
N -22.318900 -18.823100 -16.387400
H -22.143800 -18.435600 -21.607900
N -22.120000 -17.746700 -19.720800
C -21.939100 -18.970500 -15.012800
C -21.774200 -18.034700 -17.387000
H -21.468100 -19.799200 -14.897800
H -21.368300 -18.240600 -14.758800
C -21.126800 -16.798000 -19.750700
O -20.810100 -16.252400 -20.798000
C -20.769400 -17.052100 -17.319800
N -20.483700 -16.475700 -18.553900
O -20.167400 -16.702700 -16.290300
H -19.741300 -14.647000 -18.208800
C -19.423200 -15.462400 -18.603200
H -19.177000 -15.301200 -19.517600
H -18.658100 -15.776300 -18.116100
H -25.091300 -23.710800 -10.546900
O -24.516400 -23.301200 -10.130100
O -24.296900 -22.261300 -12.067900
C -23.999400 -22.377000 -10.895100
H -23.254100 -22.202900 -8.365500
C -23.011700 -21.508600 -10.209300
C -22.761500 -21.605300 -8.881000
H -22.467100 -20.486900 -11.869200
C -22.290600 -20.574000 -10.960800
C -21.782800 -20.829700 -8.272900
H -21.624000 -20.914000 -7.360000
C -21.321500 -19.777200 -10.379600
C -21.044500 -19.931000 -9.022900
C -20.631100 -18.773300 -11.235700
O -20.544100 -18.861500 -12.423500
O -20.209600 -18.492700 -7.361500
O -20.159900 -17.757100 -10.572300
C -19.846700 -19.267200 -8.374500
H -19.623900 -17.349100 -11.041500
H -19.553800 -18.321600 -6.899800
O -18.728200 -19.480400 -8.704700
