42
Fragment
H -16.039500 -16.813600 -16.842200
H -15.892800 -12.096500 -18.963000
H -15.760200 -17.113500 -15.294600
O -15.753100 -8.769800 -14.116800
H -15.708900 -9.555600 -16.681100
O -15.665000 -10.496800 -12.815800
N -15.634100 -9.982100 -13.930800
C -15.532400 -10.435100 -16.367400
H -15.499000 -10.547100 -18.890600
C -15.473900 -10.836100 -15.044800
C -15.361800 -17.145100 -16.200900
N -15.296600 -11.507300 -17.119100
C -15.257200 -11.449200 -18.593200
C -15.197800 -12.202400 -15.016600
H -15.153200 -21.716800 -13.540400
H -15.104500 -12.743100 -14.241200
C -15.087500 -12.620800 -16.314400
N -15.028600 -18.508400 -16.525300
H -15.019600 -18.749500 -17.371100
C -14.774900 -13.955500 -16.849800
O -14.758400 -14.205700 -18.055700
O -14.747700 -19.175800 -14.389400
C -14.731200 -19.425900 -15.595200
H -14.486500 -14.631900 -15.074000
N -14.477500 -14.873000 -15.919700
C -14.418700 -20.760700 -16.130600
H -14.401700 -20.638400 -18.203800
H -14.352900 -11.664700 -18.904600
C -14.308300 -21.179100 -17.428400
C -14.249000 -21.932200 -13.851900
N -14.209500 -21.874100 -15.326000
C -14.144300 -16.236300 -16.244100
C -14.032200 -22.545400 -17.400300
H -14.007100 -22.834400 -13.554500
C -13.973700 -22.946300 -16.077600
N -13.872000 -23.399400 -18.514200
O -13.841100 -22.884700 -19.629200
H -13.797200 -23.825900 -15.764000
O -13.753000 -24.611700 -18.328200
H -13.745900 -16.268000 -17.150400
H -13.613300 -21.285000 -13.482000
H -13.466600 -16.567900 -15.602800
12
Fragment
H -15.493800 -14.261200 -8.684500
H -15.247200 -12.408200 -9.917400
C -14.680900 -14.647800 -8.989400
H -14.528700 -12.713100 -11.314700
C -14.403900 -12.668000 -10.343500
O -14.395300 -15.734100 -8.532000
N -13.995900 -13.954500 -9.853600
H -13.713300 -12.004300 -10.133700
C -12.716600 -14.485100 -10.344600
H -12.689600 -14.419200 -11.322200
H -12.629000 -15.424300 -10.077400
H -11.978600 -13.965900 -9.961700
54
Fragment
H -16.039500 -16.813600 -16.842200
H -15.892800 -12.096500 -18.963000
H -15.760200 -17.113500 -15.294600
O -15.753100 -8.769800 -14.116800
H -15.708900 -9.555600 -16.681100
O -15.665000 -10.496800 -12.815800
N -15.634100 -9.982100 -13.930800
C -15.532400 -10.435100 -16.367400
H -15.499000 -10.547100 -18.890600
C -15.473900 -10.836100 -15.044800
C -15.361800 -17.145100 -16.200900
N -15.296600 -11.507300 -17.119100
C -15.257200 -11.449200 -18.593200
C -15.197800 -12.202400 -15.016600
H -15.153200 -21.716800 -13.540400
H -15.104500 -12.743100 -14.241200
C -15.087500 -12.620800 -16.314400
N -15.028600 -18.508400 -16.525300
H -15.019600 -18.749500 -17.371100
C -14.774900 -13.955500 -16.849800
O -14.758400 -14.205700 -18.055700
O -14.747700 -19.175800 -14.389400
C -14.731200 -19.425900 -15.595200
H -14.486500 -14.631900 -15.074000
N -14.477500 -14.873000 -15.919700
C -14.418700 -20.760700 -16.130600
H -14.401700 -20.638400 -18.203800
H -14.352900 -11.664700 -18.904600
C -14.308300 -21.179100 -17.428400
C -14.249000 -21.932200 -13.851900
N -14.209500 -21.874100 -15.326000
C -14.144300 -16.236300 -16.244100
C -14.032200 -22.545400 -17.400300
H -14.007100 -22.834400 -13.554500
C -13.973700 -22.946300 -16.077600
N -13.872000 -23.399400 -18.514200
O -13.841100 -22.884700 -19.629200
H -13.797200 -23.825900 -15.764000
O -13.753000 -24.611700 -18.328200
H -13.745900 -16.268000 -17.150400
H -13.613300 -21.285000 -13.482000
H -13.466600 -16.567900 -15.602800
H -15.493800 -14.261200 -8.684500
H -15.247200 -12.408200 -9.917400
C -14.680900 -14.647800 -8.989400
H -14.528700 -12.713100 -11.314700
C -14.403900 -12.668000 -10.343500
O -14.395300 -15.734100 -8.532000
N -13.995900 -13.954500 -9.853600
H -13.713300 -12.004300 -10.133700
C -12.716600 -14.485100 -10.344600
H -12.689600 -14.419200 -11.322200
H -12.629000 -15.424300 -10.077400
H -11.978600 -13.965900 -9.961700
