36
Fragment
O -30.407500 -33.294900 -36.150500
O -29.458600 -31.024300 -33.933300
O -29.452000 -35.242000 -36.199700
N -29.447300 -34.033900 -36.187200
H -28.980600 -31.551100 -36.115700
N -28.487100 -31.679500 -33.635100
N -28.173900 -33.420700 -36.357400
O -28.165000 -32.033600 -32.513100
C -28.091200 -32.001400 -36.042400
N -27.575000 -31.973300 -34.668400
H -27.395700 -30.555400 -37.501200
H -27.317900 -34.986900 -35.333800
C -27.040600 -34.094200 -35.686000
C -27.001700 -31.321300 -36.994300
O -26.854300 -29.112200 -35.466400
H -26.779800 -33.559200 -33.614900
C -26.660100 -33.120300 -34.504200
O -26.606200 -36.267500 -37.078700
O -26.483000 -30.741800 -39.527100
N -26.412300 -32.293200 -37.890700
N -25.980000 -31.770000 -39.150900
N -25.899100 -34.219600 -36.551700
N -25.896300 -29.862400 -35.357200
N -25.884500 -35.347900 -37.385100
N -25.818000 -30.904700 -36.241500
C -25.368200 -32.999500 -37.139100
N -25.297700 -32.689700 -34.704000
O -25.203000 -32.468300 -39.765000
O -25.102900 -35.321700 -38.327800
O -24.971400 -29.763600 -34.564000
C -24.968600 -32.055800 -35.955000
O -24.931000 -32.824500 -32.515400
H -24.579600 -33.196700 -37.721300
N -24.450400 -32.552800 -33.593700
H -23.999500 -31.811300 -35.994300
O -23.311500 -32.182600 -33.841100
36
Fragment
O -34.408200 -38.235500 -31.671600
O -33.508300 -40.215600 -31.687700
N -33.465500 -39.002200 -31.683100
O -33.380700 -36.131700 -34.077300
H -32.929900 -36.529500 -31.886300
N -32.384500 -36.766600 -34.347900
N -32.174300 -38.424700 -31.570400
C -32.050600 -37.004000 -31.919900
O -32.033900 -37.158900 -35.449000
N -31.489400 -37.034200 -33.272800
H -31.358100 -40.032100 -32.545800
H -31.350900 -35.547700 -30.485000
C -31.056000 -39.143100 -32.200400
C -30.967700 -36.335900 -30.965700
O -30.805500 -41.256000 -30.680600
H -30.719300 -38.662700 -34.270600
O -30.692800 -34.179800 -32.536300
C -30.603500 -38.207400 -33.386800
O -30.564500 -35.758400 -28.410900
N -30.444900 -37.311900 -30.028100
N -30.063200 -36.816900 -28.747000
N -30.026000 -40.384600 -30.400100
N -29.941200 -39.300000 -31.301700
N -29.758000 -34.947400 -32.573600
N -29.752300 -35.971700 -31.683800
C -29.386600 -38.072500 -30.740400
O -29.355100 -37.535200 -28.101200
O -29.282700 -40.346400 -29.429900
N -29.231700 -37.825000 -33.176700
C -28.927700 -37.169000 -31.922200
O -28.846300 -37.938100 -35.358800
O -28.789900 -34.878200 -33.345200
H -28.621500 -38.273400 -30.127900
N -28.386000 -37.682100 -34.282800
H -27.953800 -36.955300 -31.855500
O -27.231800 -37.358200 -34.023700
72
Fragment
O -30.407500 -33.294900 -36.150500
O -29.458600 -31.024300 -33.933300
O -29.452000 -35.242000 -36.199700
N -29.447300 -34.033900 -36.187200
H -28.980600 -31.551100 -36.115700
N -28.487100 -31.679500 -33.635100
N -28.173900 -33.420700 -36.357400
O -28.165000 -32.033600 -32.513100
C -28.091200 -32.001400 -36.042400
N -27.575000 -31.973300 -34.668400
H -27.395700 -30.555400 -37.501200
H -27.317900 -34.986900 -35.333800
C -27.040600 -34.094200 -35.686000
C -27.001700 -31.321300 -36.994300
O -26.854300 -29.112200 -35.466400
H -26.779800 -33.559200 -33.614900
C -26.660100 -33.120300 -34.504200
O -26.606200 -36.267500 -37.078700
O -26.483000 -30.741800 -39.527100
N -26.412300 -32.293200 -37.890700
N -25.980000 -31.770000 -39.150900
N -25.899100 -34.219600 -36.551700
N -25.896300 -29.862400 -35.357200
N -25.884500 -35.347900 -37.385100
N -25.818000 -30.904700 -36.241500
C -25.368200 -32.999500 -37.139100
N -25.297700 -32.689700 -34.704000
O -25.203000 -32.468300 -39.765000
O -25.102900 -35.321700 -38.327800
O -24.971400 -29.763600 -34.564000
C -24.968600 -32.055800 -35.955000
O -24.931000 -32.824500 -32.515400
H -24.579600 -33.196700 -37.721300
N -24.450400 -32.552800 -33.593700
H -23.999500 -31.811300 -35.994300
O -23.311500 -32.182600 -33.841100
O -34.408200 -38.235500 -31.671600
O -33.508300 -40.215600 -31.687700
N -33.465500 -39.002200 -31.683100
O -33.380700 -36.131700 -34.077300
H -32.929900 -36.529500 -31.886300
N -32.384500 -36.766600 -34.347900
N -32.174300 -38.424700 -31.570400
C -32.050600 -37.004000 -31.919900
O -32.033900 -37.158900 -35.449000
N -31.489400 -37.034200 -33.272800
H -31.358100 -40.032100 -32.545800
H -31.350900 -35.547700 -30.485000
C -31.056000 -39.143100 -32.200400
C -30.967700 -36.335900 -30.965700
O -30.805500 -41.256000 -30.680600
H -30.719300 -38.662700 -34.270600
O -30.692800 -34.179800 -32.536300
C -30.603500 -38.207400 -33.386800
O -30.564500 -35.758400 -28.410900
N -30.444900 -37.311900 -30.028100
N -30.063200 -36.816900 -28.747000
N -30.026000 -40.384600 -30.400100
N -29.941200 -39.300000 -31.301700
N -29.758000 -34.947400 -32.573600
N -29.752300 -35.971700 -31.683800
C -29.386600 -38.072500 -30.740400
O -29.355100 -37.535200 -28.101200
O -29.282700 -40.346400 -29.429900
N -29.231700 -37.825000 -33.176700
C -28.927700 -37.169000 -31.922200
O -28.846300 -37.938100 -35.358800
O -28.789900 -34.878200 -33.345200
H -28.621500 -38.273400 -30.127900
N -28.386000 -37.682100 -34.282800
H -27.953800 -36.955300 -31.855500
O -27.231800 -37.358200 -34.023700
