36
Fragment
O -30.407500 -33.294900 -36.150500
O -29.458600 -31.024300 -33.933300
O -29.452000 -35.242000 -36.199700
N -29.447300 -34.033900 -36.187200
H -28.980600 -31.551100 -36.115700
N -28.487100 -31.679500 -33.635100
N -28.173900 -33.420700 -36.357400
O -28.165000 -32.033600 -32.513100
C -28.091200 -32.001400 -36.042400
N -27.575000 -31.973300 -34.668400
H -27.395700 -30.555400 -37.501200
H -27.317900 -34.986900 -35.333800
C -27.040600 -34.094200 -35.686000
C -27.001700 -31.321300 -36.994300
O -26.854300 -29.112200 -35.466400
H -26.779800 -33.559200 -33.614900
C -26.660100 -33.120300 -34.504200
O -26.606200 -36.267500 -37.078700
O -26.483000 -30.741800 -39.527100
N -26.412300 -32.293200 -37.890700
N -25.980000 -31.770000 -39.150900
N -25.899100 -34.219600 -36.551700
N -25.896300 -29.862400 -35.357200
N -25.884500 -35.347900 -37.385100
N -25.818000 -30.904700 -36.241500
C -25.368200 -32.999500 -37.139100
N -25.297700 -32.689700 -34.704000
O -25.203000 -32.468300 -39.765000
O -25.102900 -35.321700 -38.327800
O -24.971400 -29.763600 -34.564000
C -24.968600 -32.055800 -35.955000
O -24.931000 -32.824500 -32.515400
H -24.579600 -33.196700 -37.721300
N -24.450400 -32.552800 -33.593700
H -23.999500 -31.811300 -35.994300
O -23.311500 -32.182600 -33.841100
36
Fragment
O -26.424500 -32.194600 -43.167600
O -25.524700 -30.214500 -43.183700
N -25.481900 -31.427900 -43.179100
O -25.397000 -34.298500 -45.573300
H -24.946300 -33.900600 -43.382400
N -24.400900 -33.663600 -45.843900
N -24.190700 -32.005500 -43.066500
C -24.067000 -33.426100 -43.416000
O -24.050300 -33.271200 -46.945000
N -23.505800 -33.396000 -44.768800
H -23.374500 -30.398100 -44.041800
H -23.367300 -34.882400 -41.981000
C -23.072400 -31.287100 -43.696500
C -22.984100 -34.094200 -42.461800
O -22.821900 -29.174200 -42.176700
H -22.735700 -31.767400 -45.766700
O -22.709200 -36.250400 -44.032400
C -22.619800 -32.222800 -44.882900
O -22.580900 -34.671800 -39.906900
N -22.461300 -33.118300 -41.524200
N -22.079600 -33.613300 -40.243100
N -22.042400 -30.045500 -41.896200
N -21.957600 -31.130100 -42.797700
N -21.774400 -35.482700 -44.069600
N -21.768700 -34.458500 -43.179800
C -21.403000 -32.357600 -42.236500
O -21.371500 -32.894900 -39.597200
O -21.299100 -30.083700 -40.925900
N -21.248100 -32.605100 -44.672700
C -20.944100 -33.261100 -43.418300
O -20.862700 -32.492000 -46.854900
O -20.806300 -35.551900 -44.841200
H -20.637900 -32.156800 -41.624000
N -20.402300 -32.748000 -45.778900
H -19.970200 -33.474800 -43.351600
O -19.248200 -33.072000 -45.519700
72
Fragment
O -30.407500 -33.294900 -36.150500
O -29.458600 -31.024300 -33.933300
O -29.452000 -35.242000 -36.199700
N -29.447300 -34.033900 -36.187200
H -28.980600 -31.551100 -36.115700
N -28.487100 -31.679500 -33.635100
N -28.173900 -33.420700 -36.357400
O -28.165000 -32.033600 -32.513100
C -28.091200 -32.001400 -36.042400
N -27.575000 -31.973300 -34.668400
H -27.395700 -30.555400 -37.501200
H -27.317900 -34.986900 -35.333800
C -27.040600 -34.094200 -35.686000
C -27.001700 -31.321300 -36.994300
O -26.854300 -29.112200 -35.466400
H -26.779800 -33.559200 -33.614900
C -26.660100 -33.120300 -34.504200
O -26.606200 -36.267500 -37.078700
O -26.483000 -30.741800 -39.527100
N -26.412300 -32.293200 -37.890700
N -25.980000 -31.770000 -39.150900
N -25.899100 -34.219600 -36.551700
N -25.896300 -29.862400 -35.357200
N -25.884500 -35.347900 -37.385100
N -25.818000 -30.904700 -36.241500
C -25.368200 -32.999500 -37.139100
N -25.297700 -32.689700 -34.704000
O -25.203000 -32.468300 -39.765000
O -25.102900 -35.321700 -38.327800
O -24.971400 -29.763600 -34.564000
C -24.968600 -32.055800 -35.955000
O -24.931000 -32.824500 -32.515400
H -24.579600 -33.196700 -37.721300
N -24.450400 -32.552800 -33.593700
H -23.999500 -31.811300 -35.994300
O -23.311500 -32.182600 -33.841100
O -26.424500 -32.194600 -43.167600
O -25.524700 -30.214500 -43.183700
N -25.481900 -31.427900 -43.179100
O -25.397000 -34.298500 -45.573300
H -24.946300 -33.900600 -43.382400
N -24.400900 -33.663600 -45.843900
N -24.190700 -32.005500 -43.066500
C -24.067000 -33.426100 -43.416000
O -24.050300 -33.271200 -46.945000
N -23.505800 -33.396000 -44.768800
H -23.374500 -30.398100 -44.041800
H -23.367300 -34.882400 -41.981000
C -23.072400 -31.287100 -43.696500
C -22.984100 -34.094200 -42.461800
O -22.821900 -29.174200 -42.176700
H -22.735700 -31.767400 -45.766700
O -22.709200 -36.250400 -44.032400
C -22.619800 -32.222800 -44.882900
O -22.580900 -34.671800 -39.906900
N -22.461300 -33.118300 -41.524200
N -22.079600 -33.613300 -40.243100
N -22.042400 -30.045500 -41.896200
N -21.957600 -31.130100 -42.797700
N -21.774400 -35.482700 -44.069600
N -21.768700 -34.458500 -43.179800
C -21.403000 -32.357600 -42.236500
O -21.371500 -32.894900 -39.597200
O -21.299100 -30.083700 -40.925900
N -21.248100 -32.605100 -44.672700
C -20.944100 -33.261100 -43.418300
O -20.862700 -32.492000 -46.854900
O -20.806300 -35.551900 -44.841200
H -20.637900 -32.156800 -41.624000
N -20.402300 -32.748000 -45.778900
H -19.970200 -33.474800 -43.351600
O -19.248200 -33.072000 -45.519700
