36
Fragment
O -16.192300 -17.808100 -20.531900
O -15.870100 -18.268900 -17.577900
H -15.696700 -19.901900 -19.718500
N -15.071800 -17.528300 -20.154700
N -15.052500 -19.056700 -17.125500
C -14.792700 -19.855300 -19.445400
N -14.641100 -20.068500 -17.988600
O -14.601800 -16.410200 -20.019200
O -14.575600 -19.070800 -16.004200
H -14.414800 -21.630700 -20.551800
N -14.223000 -18.606400 -19.894200
C -13.921800 -21.029800 -20.030300
N -13.438800 -21.661100 -18.799900
H -13.380300 -21.172300 -16.855700
C -13.369600 -20.726800 -17.691000
O -13.181200 -21.891400 -22.482700
C -12.846700 -18.341200 -19.570800
N -12.840800 -20.461700 -20.806600
O -12.632600 -23.390500 -19.891400
N -12.618400 -18.412700 -18.118600
N -12.615600 -22.745200 -18.850800
H -12.599300 -17.522800 -19.921800
N -12.474300 -21.002200 -22.043200
O -12.149500 -16.233300 -18.027800
C -12.116400 -19.748600 -17.794600
N -12.020600 -17.312000 -17.478500
C -11.975900 -19.515600 -20.158600
O -11.959700 -22.992100 -17.845400
H -11.610500 -19.747800 -17.004700
O -11.506800 -20.501700 -22.586500
O -11.499800 -17.524300 -16.398300
N -11.336300 -20.131300 -18.977000
H -11.325900 -19.208600 -20.781400
N -9.916000 -19.968200 -18.875500
O -9.447300 -19.989700 -17.756100
O -9.314000 -19.907800 -19.928600
36
Fragment
O -21.928300 -13.593800 -18.862900
O -21.794900 -13.675600 -21.035400
N -21.326300 -13.654100 -19.916100
H -19.916300 -12.894600 -18.010100
N -19.906000 -13.817300 -19.814600
O -19.742500 -11.210200 -22.393300
O -19.735400 -14.187700 -16.205100
H -19.631700 -13.433800 -21.786900
O -19.282600 -16.678100 -20.946200
C -19.266300 -13.201500 -18.633000
N -19.221600 -10.997900 -21.313000
C -19.125900 -13.434500 -20.996900
O -19.092700 -9.919200 -20.763700
N -18.768000 -14.688100 -16.748300
H -18.643000 -11.208700 -18.869800
N -18.626700 -16.431200 -19.940700
N -18.623900 -12.098600 -20.673000
O -18.609600 -17.076500 -18.900200
N -18.401400 -14.147600 -17.985000
C -18.395500 -12.027100 -19.220800
O -18.061100 -15.577400 -16.308900
C -17.872600 -14.412700 -21.100600
H -17.862000 -14.858200 -21.935900
N -17.803400 -15.347100 -19.991600
C -17.320500 -14.715800 -18.761300
N -17.019300 -12.292300 -18.897400
H -16.827400 -15.316600 -18.239800
O -16.666600 -12.756800 -22.787400
O -16.640500 -10.096200 -18.772300
N -16.601200 -13.754400 -20.803000
C -16.449600 -13.541200 -19.346100
N -16.189800 -12.742600 -21.666000
N -16.170400 -11.214300 -18.636900
H -15.545500 -13.587800 -19.073000
O -15.372100 -11.954900 -21.213700
O -15.050000 -11.494100 -18.259700
72
Fragment
O -16.192300 -17.808100 -20.531900
O -15.870100 -18.268900 -17.577900
H -15.696700 -19.901900 -19.718500
N -15.071800 -17.528300 -20.154700
N -15.052500 -19.056700 -17.125500
C -14.792700 -19.855300 -19.445400
N -14.641100 -20.068500 -17.988600
O -14.601800 -16.410200 -20.019200
O -14.575600 -19.070800 -16.004200
H -14.414800 -21.630700 -20.551800
N -14.223000 -18.606400 -19.894200
C -13.921800 -21.029800 -20.030300
N -13.438800 -21.661100 -18.799900
H -13.380300 -21.172300 -16.855700
C -13.369600 -20.726800 -17.691000
O -13.181200 -21.891400 -22.482700
C -12.846700 -18.341200 -19.570800
N -12.840800 -20.461700 -20.806600
O -12.632600 -23.390500 -19.891400
N -12.618400 -18.412700 -18.118600
N -12.615600 -22.745200 -18.850800
H -12.599300 -17.522800 -19.921800
N -12.474300 -21.002200 -22.043200
O -12.149500 -16.233300 -18.027800
C -12.116400 -19.748600 -17.794600
N -12.020600 -17.312000 -17.478500
C -11.975900 -19.515600 -20.158600
O -11.959700 -22.992100 -17.845400
H -11.610500 -19.747800 -17.004700
O -11.506800 -20.501700 -22.586500
O -11.499800 -17.524300 -16.398300
N -11.336300 -20.131300 -18.977000
H -11.325900 -19.208600 -20.781400
N -9.916000 -19.968200 -18.875500
O -9.447300 -19.989700 -17.756100
O -9.314000 -19.907800 -19.928600
O -21.928300 -13.593800 -18.862900
O -21.794900 -13.675600 -21.035400
N -21.326300 -13.654100 -19.916100
H -19.916300 -12.894600 -18.010100
N -19.906000 -13.817300 -19.814600
O -19.742500 -11.210200 -22.393300
O -19.735400 -14.187700 -16.205100
H -19.631700 -13.433800 -21.786900
O -19.282600 -16.678100 -20.946200
C -19.266300 -13.201500 -18.633000
N -19.221600 -10.997900 -21.313000
C -19.125900 -13.434500 -20.996900
O -19.092700 -9.919200 -20.763700
N -18.768000 -14.688100 -16.748300
H -18.643000 -11.208700 -18.869800
N -18.626700 -16.431200 -19.940700
N -18.623900 -12.098600 -20.673000
O -18.609600 -17.076500 -18.900200
N -18.401400 -14.147600 -17.985000
C -18.395500 -12.027100 -19.220800
O -18.061100 -15.577400 -16.308900
C -17.872600 -14.412700 -21.100600
H -17.862000 -14.858200 -21.935900
N -17.803400 -15.347100 -19.991600
C -17.320500 -14.715800 -18.761300
N -17.019300 -12.292300 -18.897400
H -16.827400 -15.316600 -18.239800
O -16.666600 -12.756800 -22.787400
O -16.640500 -10.096200 -18.772300
N -16.601200 -13.754400 -20.803000
C -16.449600 -13.541200 -19.346100
N -16.189800 -12.742600 -21.666000
N -16.170400 -11.214300 -18.636900
H -15.545500 -13.587800 -19.073000
O -15.372100 -11.954900 -21.213700
O -15.050000 -11.494100 -18.259700
