36
Fragment
O -30.407500 -33.294900 -36.150500
O -29.458600 -31.024300 -33.933300
O -29.452000 -35.242000 -36.199700
N -29.447300 -34.033900 -36.187200
H -28.980600 -31.551100 -36.115700
N -28.487100 -31.679500 -33.635100
N -28.173900 -33.420700 -36.357400
O -28.165000 -32.033600 -32.513100
C -28.091200 -32.001400 -36.042400
N -27.575000 -31.973300 -34.668400
H -27.395700 -30.555400 -37.501200
H -27.317900 -34.986900 -35.333800
C -27.040600 -34.094200 -35.686000
C -27.001700 -31.321300 -36.994300
O -26.854300 -29.112200 -35.466400
H -26.779800 -33.559200 -33.614900
C -26.660100 -33.120300 -34.504200
O -26.606200 -36.267500 -37.078700
O -26.483000 -30.741800 -39.527100
N -26.412300 -32.293200 -37.890700
N -25.980000 -31.770000 -39.150900
N -25.899100 -34.219600 -36.551700
N -25.896300 -29.862400 -35.357200
N -25.884500 -35.347900 -37.385100
N -25.818000 -30.904700 -36.241500
C -25.368200 -32.999500 -37.139100
N -25.297700 -32.689700 -34.704000
O -25.203000 -32.468300 -39.765000
O -25.102900 -35.321700 -38.327800
O -24.971400 -29.763600 -34.564000
C -24.968600 -32.055800 -35.955000
O -24.931000 -32.824500 -32.515400
H -24.579600 -33.196700 -37.721300
N -24.450400 -32.552800 -33.593700
H -23.999500 -31.811300 -35.994300
O -23.311500 -32.182600 -33.841100
36
Fragment
O -26.642600 -38.937000 -31.199300
N -25.654500 -39.625800 -31.080500
O -25.600700 -40.825100 -31.044100
H -25.360600 -37.148100 -30.970300
O -25.167300 -35.573100 -32.921200
C -24.459100 -37.519100 -31.191100
N -24.449500 -36.448600 -33.416700
N -24.395200 -38.951700 -30.908000
N -24.249700 -37.565600 -32.643000
O -23.933800 -36.420400 -34.514300
H -23.685700 -36.023200 -29.820500
H -23.583000 -40.425700 -32.105700
H -23.380000 -38.974800 -33.849400
C -23.325100 -39.515300 -31.779700
C -23.313600 -36.744400 -30.402400
C -23.193000 -38.519300 -32.979900
O -22.584800 -41.659600 -30.496000
O -22.569200 -36.335900 -27.853100
N -22.521900 -37.706300 -29.637300
O -22.409400 -34.224400 -30.336900
N -22.392000 -36.209300 -31.413900
N -22.065000 -39.567100 -31.085800
N -22.044900 -37.301800 -28.369700
N -21.881200 -40.704600 -30.279000
N -21.855400 -37.957800 -32.959400
N -21.829900 -34.927300 -31.145100
O -21.665100 -38.171300 -35.147800
C -21.548300 -38.308000 -30.572600
C -21.449600 -37.283700 -31.754400
N -21.278900 -37.583500 -34.182300
O -21.202800 -38.032300 -27.874000
O -20.986600 -40.622700 -29.450600
O -20.862200 -34.624100 -31.818800
H -20.659200 -38.436600 -30.132500
H -20.519000 -36.928700 -31.841500
O -20.401600 -36.738400 -34.115000
72
Fragment
O -30.407500 -33.294900 -36.150500
O -29.458600 -31.024300 -33.933300
O -29.452000 -35.242000 -36.199700
N -29.447300 -34.033900 -36.187200
H -28.980600 -31.551100 -36.115700
N -28.487100 -31.679500 -33.635100
N -28.173900 -33.420700 -36.357400
O -28.165000 -32.033600 -32.513100
C -28.091200 -32.001400 -36.042400
N -27.575000 -31.973300 -34.668400
H -27.395700 -30.555400 -37.501200
H -27.317900 -34.986900 -35.333800
C -27.040600 -34.094200 -35.686000
C -27.001700 -31.321300 -36.994300
O -26.854300 -29.112200 -35.466400
H -26.779800 -33.559200 -33.614900
C -26.660100 -33.120300 -34.504200
O -26.606200 -36.267500 -37.078700
O -26.483000 -30.741800 -39.527100
N -26.412300 -32.293200 -37.890700
N -25.980000 -31.770000 -39.150900
N -25.899100 -34.219600 -36.551700
N -25.896300 -29.862400 -35.357200
N -25.884500 -35.347900 -37.385100
N -25.818000 -30.904700 -36.241500
C -25.368200 -32.999500 -37.139100
N -25.297700 -32.689700 -34.704000
O -25.203000 -32.468300 -39.765000
O -25.102900 -35.321700 -38.327800
O -24.971400 -29.763600 -34.564000
C -24.968600 -32.055800 -35.955000
O -24.931000 -32.824500 -32.515400
H -24.579600 -33.196700 -37.721300
N -24.450400 -32.552800 -33.593700
H -23.999500 -31.811300 -35.994300
O -23.311500 -32.182600 -33.841100
O -26.642600 -38.937000 -31.199300
N -25.654500 -39.625800 -31.080500
O -25.600700 -40.825100 -31.044100
H -25.360600 -37.148100 -30.970300
O -25.167300 -35.573100 -32.921200
C -24.459100 -37.519100 -31.191100
N -24.449500 -36.448600 -33.416700
N -24.395200 -38.951700 -30.908000
N -24.249700 -37.565600 -32.643000
O -23.933800 -36.420400 -34.514300
H -23.685700 -36.023200 -29.820500
H -23.583000 -40.425700 -32.105700
H -23.380000 -38.974800 -33.849400
C -23.325100 -39.515300 -31.779700
C -23.313600 -36.744400 -30.402400
C -23.193000 -38.519300 -32.979900
O -22.584800 -41.659600 -30.496000
O -22.569200 -36.335900 -27.853100
N -22.521900 -37.706300 -29.637300
O -22.409400 -34.224400 -30.336900
N -22.392000 -36.209300 -31.413900
N -22.065000 -39.567100 -31.085800
N -22.044900 -37.301800 -28.369700
N -21.881200 -40.704600 -30.279000
N -21.855400 -37.957800 -32.959400
N -21.829900 -34.927300 -31.145100
O -21.665100 -38.171300 -35.147800
C -21.548300 -38.308000 -30.572600
C -21.449600 -37.283700 -31.754400
N -21.278900 -37.583500 -34.182300
O -21.202800 -38.032300 -27.874000
O -20.986600 -40.622700 -29.450600
O -20.862200 -34.624100 -31.818800
H -20.659200 -38.436600 -30.132500
H -20.519000 -36.928700 -31.841500
O -20.401600 -36.738400 -34.115000
