36
Fragment
O -16.192300 -17.808100 -20.531900
O -15.870100 -18.268900 -17.577900
H -15.696700 -19.901900 -19.718500
N -15.071800 -17.528300 -20.154700
N -15.052500 -19.056700 -17.125500
C -14.792700 -19.855300 -19.445400
N -14.641100 -20.068500 -17.988600
O -14.601800 -16.410200 -20.019200
O -14.575600 -19.070800 -16.004200
H -14.414800 -21.630700 -20.551800
N -14.223000 -18.606400 -19.894200
C -13.921800 -21.029800 -20.030300
N -13.438800 -21.661100 -18.799900
H -13.380300 -21.172300 -16.855700
C -13.369600 -20.726800 -17.691000
O -13.181200 -21.891400 -22.482700
C -12.846700 -18.341200 -19.570800
N -12.840800 -20.461700 -20.806600
O -12.632600 -23.390500 -19.891400
N -12.618400 -18.412700 -18.118600
N -12.615600 -22.745200 -18.850800
H -12.599300 -17.522800 -19.921800
N -12.474300 -21.002200 -22.043200
O -12.149500 -16.233300 -18.027800
C -12.116400 -19.748600 -17.794600
N -12.020600 -17.312000 -17.478500
C -11.975900 -19.515600 -20.158600
O -11.959700 -22.992100 -17.845400
H -11.610500 -19.747800 -17.004700
O -11.506800 -20.501700 -22.586500
O -11.499800 -17.524300 -16.398300
N -11.336300 -20.131300 -18.977000
H -11.325900 -19.208600 -20.781400
N -9.916000 -19.968200 -18.875500
O -9.447300 -19.989700 -17.756100
O -9.314000 -19.907800 -19.928600
36
Fragment
O -22.846000 -17.976500 -11.104600
O -22.712700 -17.894600 -13.277100
N -22.244000 -17.916100 -12.157700
H -20.834000 -18.675700 -10.251800
N -20.823700 -17.753000 -12.056300
O -20.660200 -20.360000 -14.635000
O -20.653100 -17.382600 -8.446800
H -20.549400 -18.136500 -14.028600
O -20.200300 -14.892200 -13.187900
C -20.184000 -18.368700 -10.874700
N -20.139300 -20.572300 -13.554700
C -20.043600 -18.135700 -13.238600
O -20.010500 -21.651000 -13.005400
N -19.685700 -16.882100 -8.990000
H -19.560700 -20.361500 -11.111500
N -19.544400 -15.139100 -12.182400
N -19.541600 -19.471600 -12.914600
O -19.527300 -14.493800 -11.141900
N -19.319100 -17.422600 -10.226700
C -19.313200 -19.543100 -11.462400
O -18.978800 -15.992900 -8.550600
C -18.790300 -17.157500 -13.342300
H -18.779700 -16.712000 -14.177500
N -18.721100 -16.223200 -12.233300
C -18.238200 -16.854500 -11.003000
N -17.937000 -19.277900 -11.139100
H -17.745100 -16.253600 -10.481500
O -17.584300 -18.813500 -15.029100
O -17.558200 -21.474100 -11.014000
N -17.518900 -17.815800 -13.044700
C -17.367300 -18.029000 -11.587800
N -17.107500 -18.827600 -13.907700
N -17.088100 -20.356000 -10.878600
H -16.463300 -17.982400 -11.314700
O -16.289900 -19.615400 -13.455400
O -15.967700 -20.076200 -10.501300
72
Fragment
O -16.192300 -17.808100 -20.531900
O -15.870100 -18.268900 -17.577900
H -15.696700 -19.901900 -19.718500
N -15.071800 -17.528300 -20.154700
N -15.052500 -19.056700 -17.125500
C -14.792700 -19.855300 -19.445400
N -14.641100 -20.068500 -17.988600
O -14.601800 -16.410200 -20.019200
O -14.575600 -19.070800 -16.004200
H -14.414800 -21.630700 -20.551800
N -14.223000 -18.606400 -19.894200
C -13.921800 -21.029800 -20.030300
N -13.438800 -21.661100 -18.799900
H -13.380300 -21.172300 -16.855700
C -13.369600 -20.726800 -17.691000
O -13.181200 -21.891400 -22.482700
C -12.846700 -18.341200 -19.570800
N -12.840800 -20.461700 -20.806600
O -12.632600 -23.390500 -19.891400
N -12.618400 -18.412700 -18.118600
N -12.615600 -22.745200 -18.850800
H -12.599300 -17.522800 -19.921800
N -12.474300 -21.002200 -22.043200
O -12.149500 -16.233300 -18.027800
C -12.116400 -19.748600 -17.794600
N -12.020600 -17.312000 -17.478500
C -11.975900 -19.515600 -20.158600
O -11.959700 -22.992100 -17.845400
H -11.610500 -19.747800 -17.004700
O -11.506800 -20.501700 -22.586500
O -11.499800 -17.524300 -16.398300
N -11.336300 -20.131300 -18.977000
H -11.325900 -19.208600 -20.781400
N -9.916000 -19.968200 -18.875500
O -9.447300 -19.989700 -17.756100
O -9.314000 -19.907800 -19.928600
O -22.846000 -17.976500 -11.104600
O -22.712700 -17.894600 -13.277100
N -22.244000 -17.916100 -12.157700
H -20.834000 -18.675700 -10.251800
N -20.823700 -17.753000 -12.056300
O -20.660200 -20.360000 -14.635000
O -20.653100 -17.382600 -8.446800
H -20.549400 -18.136500 -14.028600
O -20.200300 -14.892200 -13.187900
C -20.184000 -18.368700 -10.874700
N -20.139300 -20.572300 -13.554700
C -20.043600 -18.135700 -13.238600
O -20.010500 -21.651000 -13.005400
N -19.685700 -16.882100 -8.990000
H -19.560700 -20.361500 -11.111500
N -19.544400 -15.139100 -12.182400
N -19.541600 -19.471600 -12.914600
O -19.527300 -14.493800 -11.141900
N -19.319100 -17.422600 -10.226700
C -19.313200 -19.543100 -11.462400
O -18.978800 -15.992900 -8.550600
C -18.790300 -17.157500 -13.342300
H -18.779700 -16.712000 -14.177500
N -18.721100 -16.223200 -12.233300
C -18.238200 -16.854500 -11.003000
N -17.937000 -19.277900 -11.139100
H -17.745100 -16.253600 -10.481500
O -17.584300 -18.813500 -15.029100
O -17.558200 -21.474100 -11.014000
N -17.518900 -17.815800 -13.044700
C -17.367300 -18.029000 -11.587800
N -17.107500 -18.827600 -13.907700
N -17.088100 -20.356000 -10.878600
H -16.463300 -17.982400 -11.314700
O -16.289900 -19.615400 -13.455400
O -15.967700 -20.076200 -10.501300
