36
Fragment
O -16.192300 -17.808100 -20.531900
O -15.870100 -18.268900 -17.577900
H -15.696700 -19.901900 -19.718500
N -15.071800 -17.528300 -20.154700
N -15.052500 -19.056700 -17.125500
C -14.792700 -19.855300 -19.445400
N -14.641100 -20.068500 -17.988600
O -14.601800 -16.410200 -20.019200
O -14.575600 -19.070800 -16.004200
H -14.414800 -21.630700 -20.551800
N -14.223000 -18.606400 -19.894200
C -13.921800 -21.029800 -20.030300
N -13.438800 -21.661100 -18.799900
H -13.380300 -21.172300 -16.855700
C -13.369600 -20.726800 -17.691000
O -13.181200 -21.891400 -22.482700
C -12.846700 -18.341200 -19.570800
N -12.840800 -20.461700 -20.806600
O -12.632600 -23.390500 -19.891400
N -12.618400 -18.412700 -18.118600
N -12.615600 -22.745200 -18.850800
H -12.599300 -17.522800 -19.921800
N -12.474300 -21.002200 -22.043200
O -12.149500 -16.233300 -18.027800
C -12.116400 -19.748600 -17.794600
N -12.020600 -17.312000 -17.478500
C -11.975900 -19.515600 -20.158600
O -11.959700 -22.992100 -17.845400
H -11.610500 -19.747800 -17.004700
O -11.506800 -20.501700 -22.586500
O -11.499800 -17.524300 -16.398300
N -11.336300 -20.131300 -18.977000
H -11.325900 -19.208600 -20.781400
N -9.916000 -19.968200 -18.875500
O -9.447300 -19.989700 -17.756100
O -9.314000 -19.907800 -19.928600
11
Fragment
H -18.332200 -21.570100 -23.284200
H -17.576900 -19.358900 -22.331500
C -17.469100 -21.511700 -23.692300
H -17.428200 -22.067600 -24.489900
O -17.247800 -20.156000 -24.097000
C -16.817800 -19.534200 -22.910600
H -16.631800 -22.236800 -21.907900
C -16.364100 -21.756600 -22.676900
H -16.345800 -18.718600 -23.136800
O -15.922300 -20.449300 -22.291300
H -15.606400 -22.206500 -23.079400
47
Fragment
O -16.192300 -17.808100 -20.531900
O -15.870100 -18.268900 -17.577900
H -15.696700 -19.901900 -19.718500
N -15.071800 -17.528300 -20.154700
N -15.052500 -19.056700 -17.125500
C -14.792700 -19.855300 -19.445400
N -14.641100 -20.068500 -17.988600
O -14.601800 -16.410200 -20.019200
O -14.575600 -19.070800 -16.004200
H -14.414800 -21.630700 -20.551800
N -14.223000 -18.606400 -19.894200
C -13.921800 -21.029800 -20.030300
N -13.438800 -21.661100 -18.799900
H -13.380300 -21.172300 -16.855700
C -13.369600 -20.726800 -17.691000
O -13.181200 -21.891400 -22.482700
C -12.846700 -18.341200 -19.570800
N -12.840800 -20.461700 -20.806600
O -12.632600 -23.390500 -19.891400
N -12.618400 -18.412700 -18.118600
N -12.615600 -22.745200 -18.850800
H -12.599300 -17.522800 -19.921800
N -12.474300 -21.002200 -22.043200
O -12.149500 -16.233300 -18.027800
C -12.116400 -19.748600 -17.794600
N -12.020600 -17.312000 -17.478500
C -11.975900 -19.515600 -20.158600
O -11.959700 -22.992100 -17.845400
H -11.610500 -19.747800 -17.004700
O -11.506800 -20.501700 -22.586500
O -11.499800 -17.524300 -16.398300
N -11.336300 -20.131300 -18.977000
H -11.325900 -19.208600 -20.781400
N -9.916000 -19.968200 -18.875500
O -9.447300 -19.989700 -17.756100
O -9.314000 -19.907800 -19.928600
H -18.332200 -21.570100 -23.284200
H -17.576900 -19.358900 -22.331500
C -17.469100 -21.511700 -23.692300
H -17.428200 -22.067600 -24.489900
O -17.247800 -20.156000 -24.097000
C -16.817800 -19.534200 -22.910600
H -16.631800 -22.236800 -21.907900
C -16.364100 -21.756600 -22.676900
H -16.345800 -18.718600 -23.136800
O -15.922300 -20.449300 -22.291300
H -15.606400 -22.206500 -23.079400
