36
Fragment
O -16.192300 -17.808100 -20.531900
O -15.870100 -18.268900 -17.577900
H -15.696700 -19.901900 -19.718500
N -15.071800 -17.528300 -20.154700
N -15.052500 -19.056700 -17.125500
C -14.792700 -19.855300 -19.445400
N -14.641100 -20.068500 -17.988600
O -14.601800 -16.410200 -20.019200
O -14.575600 -19.070800 -16.004200
H -14.414800 -21.630700 -20.551800
N -14.223000 -18.606400 -19.894200
C -13.921800 -21.029800 -20.030300
N -13.438800 -21.661100 -18.799900
H -13.380300 -21.172300 -16.855700
C -13.369600 -20.726800 -17.691000
O -13.181200 -21.891400 -22.482700
C -12.846700 -18.341200 -19.570800
N -12.840800 -20.461700 -20.806600
O -12.632600 -23.390500 -19.891400
N -12.618400 -18.412700 -18.118600
N -12.615600 -22.745200 -18.850800
H -12.599300 -17.522800 -19.921800
N -12.474300 -21.002200 -22.043200
O -12.149500 -16.233300 -18.027800
C -12.116400 -19.748600 -17.794600
N -12.020600 -17.312000 -17.478500
C -11.975900 -19.515600 -20.158600
O -11.959700 -22.992100 -17.845400
H -11.610500 -19.747800 -17.004700
O -11.506800 -20.501700 -22.586500
O -11.499800 -17.524300 -16.398300
N -11.336300 -20.131300 -18.977000
H -11.325900 -19.208600 -20.781400
N -9.916000 -19.968200 -18.875500
O -9.447300 -19.989700 -17.756100
O -9.314000 -19.907800 -19.928600
36
Fragment
O -12.970600 -13.593800 -18.862900
O -12.837200 -13.675600 -21.035400
N -12.368600 -13.654100 -19.916100
H -10.958600 -12.894600 -18.010100
N -10.948300 -13.817300 -19.814600
O -10.784800 -11.210200 -22.393300
O -10.777700 -14.187700 -16.205100
H -10.674000 -13.433800 -21.786900
O -10.324900 -16.678100 -20.946200
C -10.308600 -13.201500 -18.633000
N -10.263900 -10.997900 -21.313000
C -10.168200 -13.434500 -20.996900
O -10.135000 -9.919200 -20.763700
N -9.810300 -14.688100 -16.748300
H -9.685300 -11.208700 -18.869800
N -9.669000 -16.431200 -19.940700
N -9.666200 -12.098600 -20.673000
O -9.651900 -17.076500 -18.900200
N -9.443700 -14.147600 -17.985000
C -9.437800 -12.027100 -19.220800
O -9.103400 -15.577400 -16.308900
C -8.914900 -14.412700 -21.100600
H -8.904300 -14.858200 -21.935900
N -8.845700 -15.347100 -19.991600
C -8.362800 -14.715800 -18.761300
N -8.061600 -12.292300 -18.897400
H -7.869700 -15.316600 -18.239800
O -7.708900 -12.756800 -22.787400
O -7.682800 -10.096200 -18.772300
N -7.643500 -13.754400 -20.803000
C -7.491900 -13.541200 -19.346100
N -7.232100 -12.742600 -21.666000
N -7.212700 -11.214300 -18.636900
H -6.587800 -13.587800 -19.073000
O -6.414400 -11.954900 -21.213700
O -6.092300 -11.494100 -18.259700
72
Fragment
O -16.192300 -17.808100 -20.531900
O -15.870100 -18.268900 -17.577900
H -15.696700 -19.901900 -19.718500
N -15.071800 -17.528300 -20.154700
N -15.052500 -19.056700 -17.125500
C -14.792700 -19.855300 -19.445400
N -14.641100 -20.068500 -17.988600
O -14.601800 -16.410200 -20.019200
O -14.575600 -19.070800 -16.004200
H -14.414800 -21.630700 -20.551800
N -14.223000 -18.606400 -19.894200
C -13.921800 -21.029800 -20.030300
N -13.438800 -21.661100 -18.799900
H -13.380300 -21.172300 -16.855700
C -13.369600 -20.726800 -17.691000
O -13.181200 -21.891400 -22.482700
C -12.846700 -18.341200 -19.570800
N -12.840800 -20.461700 -20.806600
O -12.632600 -23.390500 -19.891400
N -12.618400 -18.412700 -18.118600
N -12.615600 -22.745200 -18.850800
H -12.599300 -17.522800 -19.921800
N -12.474300 -21.002200 -22.043200
O -12.149500 -16.233300 -18.027800
C -12.116400 -19.748600 -17.794600
N -12.020600 -17.312000 -17.478500
C -11.975900 -19.515600 -20.158600
O -11.959700 -22.992100 -17.845400
H -11.610500 -19.747800 -17.004700
O -11.506800 -20.501700 -22.586500
O -11.499800 -17.524300 -16.398300
N -11.336300 -20.131300 -18.977000
H -11.325900 -19.208600 -20.781400
N -9.916000 -19.968200 -18.875500
O -9.447300 -19.989700 -17.756100
O -9.314000 -19.907800 -19.928600
O -12.970600 -13.593800 -18.862900
O -12.837200 -13.675600 -21.035400
N -12.368600 -13.654100 -19.916100
H -10.958600 -12.894600 -18.010100
N -10.948300 -13.817300 -19.814600
O -10.784800 -11.210200 -22.393300
O -10.777700 -14.187700 -16.205100
H -10.674000 -13.433800 -21.786900
O -10.324900 -16.678100 -20.946200
C -10.308600 -13.201500 -18.633000
N -10.263900 -10.997900 -21.313000
C -10.168200 -13.434500 -20.996900
O -10.135000 -9.919200 -20.763700
N -9.810300 -14.688100 -16.748300
H -9.685300 -11.208700 -18.869800
N -9.669000 -16.431200 -19.940700
N -9.666200 -12.098600 -20.673000
O -9.651900 -17.076500 -18.900200
N -9.443700 -14.147600 -17.985000
C -9.437800 -12.027100 -19.220800
O -9.103400 -15.577400 -16.308900
C -8.914900 -14.412700 -21.100600
H -8.904300 -14.858200 -21.935900
N -8.845700 -15.347100 -19.991600
C -8.362800 -14.715800 -18.761300
N -8.061600 -12.292300 -18.897400
H -7.869700 -15.316600 -18.239800
O -7.708900 -12.756800 -22.787400
O -7.682800 -10.096200 -18.772300
N -7.643500 -13.754400 -20.803000
C -7.491900 -13.541200 -19.346100
N -7.232100 -12.742600 -21.666000
N -7.212700 -11.214300 -18.636900
H -6.587800 -13.587800 -19.073000
O -6.414400 -11.954900 -21.213700
O -6.092300 -11.494100 -18.259700
