36
Fragment
O -16.192300 -17.808100 -20.531900
O -15.870100 -18.268900 -17.577900
H -15.696700 -19.901900 -19.718500
N -15.071800 -17.528300 -20.154700
N -15.052500 -19.056700 -17.125500
C -14.792700 -19.855300 -19.445400
N -14.641100 -20.068500 -17.988600
O -14.601800 -16.410200 -20.019200
O -14.575600 -19.070800 -16.004200
H -14.414800 -21.630700 -20.551800
N -14.223000 -18.606400 -19.894200
C -13.921800 -21.029800 -20.030300
N -13.438800 -21.661100 -18.799900
H -13.380300 -21.172300 -16.855700
C -13.369600 -20.726800 -17.691000
O -13.181200 -21.891400 -22.482700
C -12.846700 -18.341200 -19.570800
N -12.840800 -20.461700 -20.806600
O -12.632600 -23.390500 -19.891400
N -12.618400 -18.412700 -18.118600
N -12.615600 -22.745200 -18.850800
H -12.599300 -17.522800 -19.921800
N -12.474300 -21.002200 -22.043200
O -12.149500 -16.233300 -18.027800
C -12.116400 -19.748600 -17.794600
N -12.020600 -17.312000 -17.478500
C -11.975900 -19.515600 -20.158600
O -11.959700 -22.992100 -17.845400
H -11.610500 -19.747800 -17.004700
O -11.506800 -20.501700 -22.586500
O -11.499800 -17.524300 -16.398300
N -11.336300 -20.131300 -18.977000
H -11.325900 -19.208600 -20.781400
N -9.916000 -19.968200 -18.875500
O -9.447300 -19.989700 -17.756100
O -9.314000 -19.907800 -19.928600
11
Fragment
H -10.292200 -22.628300 -15.525900
H -9.536900 -24.839500 -14.573200
C -9.429100 -22.686600 -15.934000
H -9.388200 -22.130700 -16.731600
O -9.207800 -24.042400 -16.338700
C -8.777900 -24.664200 -15.152300
H -8.591800 -21.961500 -14.149600
C -8.324100 -22.441800 -14.918600
H -8.305800 -25.479700 -15.378500
O -7.882300 -23.749000 -14.533000
H -7.566400 -21.991800 -15.321100
47
Fragment
O -16.192300 -17.808100 -20.531900
O -15.870100 -18.268900 -17.577900
H -15.696700 -19.901900 -19.718500
N -15.071800 -17.528300 -20.154700
N -15.052500 -19.056700 -17.125500
C -14.792700 -19.855300 -19.445400
N -14.641100 -20.068500 -17.988600
O -14.601800 -16.410200 -20.019200
O -14.575600 -19.070800 -16.004200
H -14.414800 -21.630700 -20.551800
N -14.223000 -18.606400 -19.894200
C -13.921800 -21.029800 -20.030300
N -13.438800 -21.661100 -18.799900
H -13.380300 -21.172300 -16.855700
C -13.369600 -20.726800 -17.691000
O -13.181200 -21.891400 -22.482700
C -12.846700 -18.341200 -19.570800
N -12.840800 -20.461700 -20.806600
O -12.632600 -23.390500 -19.891400
N -12.618400 -18.412700 -18.118600
N -12.615600 -22.745200 -18.850800
H -12.599300 -17.522800 -19.921800
N -12.474300 -21.002200 -22.043200
O -12.149500 -16.233300 -18.027800
C -12.116400 -19.748600 -17.794600
N -12.020600 -17.312000 -17.478500
C -11.975900 -19.515600 -20.158600
O -11.959700 -22.992100 -17.845400
H -11.610500 -19.747800 -17.004700
O -11.506800 -20.501700 -22.586500
O -11.499800 -17.524300 -16.398300
N -11.336300 -20.131300 -18.977000
H -11.325900 -19.208600 -20.781400
N -9.916000 -19.968200 -18.875500
O -9.447300 -19.989700 -17.756100
O -9.314000 -19.907800 -19.928600
H -10.292200 -22.628300 -15.525900
H -9.536900 -24.839500 -14.573200
C -9.429100 -22.686600 -15.934000
H -9.388200 -22.130700 -16.731600
O -9.207800 -24.042400 -16.338700
C -8.777900 -24.664200 -15.152300
H -8.591800 -21.961500 -14.149600
C -8.324100 -22.441800 -14.918600
H -8.305800 -25.479700 -15.378500
O -7.882300 -23.749000 -14.533000
H -7.566400 -21.991800 -15.321100
