18
Fragment
H -12.072300 -32.100400 -10.838900
O -11.722000 -30.265200 -12.391100
N -11.509900 -31.512300 -10.502100
O -11.350400 -32.813100 -8.651200
C -11.214000 -30.418700 -11.279600
C -11.009800 -31.778200 -9.241700
N -10.313100 -29.549600 -10.750500
C -10.097200 -30.794700 -8.748300
H -10.065900 -28.851100 -11.226000
C -9.776700 -29.722100 -9.503700
H -9.713300 -30.897000 -7.885200
C -8.837100 -28.622300 -9.100600
O -8.698700 -27.639900 -9.830800
H -8.283500 -29.523900 -7.493300
N -8.196900 -28.771900 -7.941300
H -7.850100 -26.981300 -7.466300
N -7.379700 -27.744100 -7.418400
H -6.706400 -27.654100 -8.012300
18
Fragment
H -5.515200 -32.100400 -6.006400
O -5.165000 -30.265200 -7.558600
N -4.952900 -31.512300 -5.669500
O -4.793400 -32.813100 -3.818700
C -4.657000 -30.418700 -6.447100
C -4.452800 -31.778200 -4.409200
N -3.756100 -29.549600 -5.917900
C -3.540200 -30.794700 -3.915800
H -3.508800 -28.851100 -6.393400
C -3.219700 -29.722100 -4.671100
H -3.156200 -30.897000 -3.052700
C -2.280000 -28.622300 -4.268100
O -2.141600 -27.639900 -4.998300
H -1.726500 -29.523900 -2.660800
N -1.639800 -28.771900 -3.108800
H -1.293000 -26.981300 -2.633700
N -0.822700 -27.744100 -2.585900
H -0.149300 -27.654100 -3.179800
36
Fragment
H -12.072300 -32.100400 -10.838900
O -11.722000 -30.265200 -12.391100
N -11.509900 -31.512300 -10.502100
O -11.350400 -32.813100 -8.651200
C -11.214000 -30.418700 -11.279600
C -11.009800 -31.778200 -9.241700
N -10.313100 -29.549600 -10.750500
C -10.097200 -30.794700 -8.748300
H -10.065900 -28.851100 -11.226000
C -9.776700 -29.722100 -9.503700
H -9.713300 -30.897000 -7.885200
C -8.837100 -28.622300 -9.100600
O -8.698700 -27.639900 -9.830800
H -8.283500 -29.523900 -7.493300
N -8.196900 -28.771900 -7.941300
H -7.850100 -26.981300 -7.466300
N -7.379700 -27.744100 -7.418400
H -6.706400 -27.654100 -8.012300
H -5.515200 -32.100400 -6.006400
O -5.165000 -30.265200 -7.558600
N -4.952900 -31.512300 -5.669500
O -4.793400 -32.813100 -3.818700
C -4.657000 -30.418700 -6.447100
C -4.452800 -31.778200 -4.409200
N -3.756100 -29.549600 -5.917900
C -3.540200 -30.794700 -3.915800
H -3.508800 -28.851100 -6.393400
C -3.219700 -29.722100 -4.671100
H -3.156200 -30.897000 -3.052700
C -2.280000 -28.622300 -4.268100
O -2.141600 -27.639900 -4.998300
H -1.726500 -29.523900 -2.660800
N -1.639800 -28.771900 -3.108800
H -1.293000 -26.981300 -2.633700
N -0.822700 -27.744100 -2.585900
H -0.149300 -27.654100 -3.179800
