18
Fragment
H -12.072300 -32.100400 -10.838900
O -11.722000 -30.265200 -12.391100
N -11.509900 -31.512300 -10.502100
O -11.350400 -32.813100 -8.651200
C -11.214000 -30.418700 -11.279600
C -11.009800 -31.778200 -9.241700
N -10.313100 -29.549600 -10.750500
C -10.097200 -30.794700 -8.748300
H -10.065900 -28.851100 -11.226000
C -9.776700 -29.722100 -9.503700
H -9.713300 -30.897000 -7.885200
C -8.837100 -28.622300 -9.100600
O -8.698700 -27.639900 -9.830800
H -8.283500 -29.523900 -7.493300
N -8.196900 -28.771900 -7.941300
H -7.850100 -26.981300 -7.466300
N -7.379700 -27.744100 -7.418400
H -6.706400 -27.654100 -8.012300
3
Fragment
H -6.226100 -24.948100 -8.002700
H -6.063400 -24.067300 -6.978200
O -5.962900 -24.866800 -7.180200
21
Fragment
H -12.072300 -32.100400 -10.838900
O -11.722000 -30.265200 -12.391100
N -11.509900 -31.512300 -10.502100
O -11.350400 -32.813100 -8.651200
C -11.214000 -30.418700 -11.279600
C -11.009800 -31.778200 -9.241700
N -10.313100 -29.549600 -10.750500
C -10.097200 -30.794700 -8.748300
H -10.065900 -28.851100 -11.226000
C -9.776700 -29.722100 -9.503700
H -9.713300 -30.897000 -7.885200
C -8.837100 -28.622300 -9.100600
O -8.698700 -27.639900 -9.830800
H -8.283500 -29.523900 -7.493300
N -8.196900 -28.771900 -7.941300
H -7.850100 -26.981300 -7.466300
N -7.379700 -27.744100 -7.418400
H -6.706400 -27.654100 -8.012300
H -6.226100 -24.948100 -8.002700
H -6.063400 -24.067300 -6.978200
O -5.962900 -24.866800 -7.180200
