18
Fragment
H -12.072300 -32.100400 -10.838900
O -11.722000 -30.265200 -12.391100
N -11.509900 -31.512300 -10.502100
O -11.350400 -32.813100 -8.651200
C -11.214000 -30.418700 -11.279600
C -11.009800 -31.778200 -9.241700
N -10.313100 -29.549600 -10.750500
C -10.097200 -30.794700 -8.748300
H -10.065900 -28.851100 -11.226000
C -9.776700 -29.722100 -9.503700
H -9.713300 -30.897000 -7.885200
C -8.837100 -28.622300 -9.100600
O -8.698700 -27.639900 -9.830800
H -8.283500 -29.523900 -7.493300
N -8.196900 -28.771900 -7.941300
H -7.850100 -26.981300 -7.466300
N -7.379700 -27.744100 -7.418400
H -6.706400 -27.654100 -8.012300
18
Fragment
H -19.521900 -36.016100 -11.317800
N -18.848500 -35.926100 -11.911700
H -18.378200 -36.688900 -11.863900
N -18.031400 -34.898300 -11.388800
H -17.944700 -34.146300 -11.836800
O -17.529600 -36.030300 -9.499300
C -17.391100 -35.047900 -10.229500
H -16.515000 -32.773200 -11.444900
C -16.451500 -33.948100 -9.826500
H -16.162300 -34.819100 -8.104200
C -16.131000 -32.875500 -10.581800
N -15.915100 -34.120600 -8.579700
C -15.218400 -31.892000 -10.088400
C -15.014200 -33.251500 -8.050500
O -14.877800 -30.857100 -10.678900
N -14.718300 -32.157900 -8.828100
O -14.506200 -33.405000 -6.939000
H -14.156000 -31.569800 -8.491200
36
Fragment
H -12.072300 -32.100400 -10.838900
O -11.722000 -30.265200 -12.391100
N -11.509900 -31.512300 -10.502100
O -11.350400 -32.813100 -8.651200
C -11.214000 -30.418700 -11.279600
C -11.009800 -31.778200 -9.241700
N -10.313100 -29.549600 -10.750500
C -10.097200 -30.794700 -8.748300
H -10.065900 -28.851100 -11.226000
C -9.776700 -29.722100 -9.503700
H -9.713300 -30.897000 -7.885200
C -8.837100 -28.622300 -9.100600
O -8.698700 -27.639900 -9.830800
H -8.283500 -29.523900 -7.493300
N -8.196900 -28.771900 -7.941300
H -7.850100 -26.981300 -7.466300
N -7.379700 -27.744100 -7.418400
H -6.706400 -27.654100 -8.012300
H -19.521900 -36.016100 -11.317800
N -18.848500 -35.926100 -11.911700
H -18.378200 -36.688900 -11.863900
N -18.031400 -34.898300 -11.388800
H -17.944700 -34.146300 -11.836800
O -17.529600 -36.030300 -9.499300
C -17.391100 -35.047900 -10.229500
H -16.515000 -32.773200 -11.444900
C -16.451500 -33.948100 -9.826500
H -16.162300 -34.819100 -8.104200
C -16.131000 -32.875500 -10.581800
N -15.915100 -34.120600 -8.579700
C -15.218400 -31.892000 -10.088400
C -15.014200 -33.251500 -8.050500
O -14.877800 -30.857100 -10.678900
N -14.718300 -32.157900 -8.828100
O -14.506200 -33.405000 -6.939000
H -14.156000 -31.569800 -8.491200
