3
Fragment
H -13.295900 -20.090000 -15.724100
O -12.597400 -20.625500 -15.605900
H -11.870400 -20.087300 -15.746100
26
Fragment
H -15.064500 -18.431800 -5.443200
H -14.820700 -19.990100 -5.624900
N -14.684900 -19.127300 -5.883900
C -13.925900 -18.846700 -6.940400
O -13.808800 -17.680100 -7.398900
C -13.205900 -19.941900 -7.566400
H -13.174300 -22.680700 -12.891400
N -13.144000 -21.237300 -7.052600
N -12.639500 -21.968700 -12.999200
H -12.601800 -21.477900 -13.712100
H -12.405800 -18.104800 -9.402300
C -12.361400 -19.838400 -8.656100
C -12.270600 -21.856300 -7.789800
N -12.129300 -18.877900 -9.602900
H -12.023200 -22.765200 -7.663500
C -11.920900 -21.621700 -11.938200
N -11.836600 -22.267100 -10.818400
N -11.744500 -21.052300 -8.773400
O -11.227900 -20.459100 -12.048300
C -10.978900 -21.490900 -9.945400
C -10.805000 -18.908500 -10.229600
H -10.767600 -18.236200 -10.955800
C -10.507900 -20.282700 -10.796900
H -10.192500 -22.038300 -9.658100
H -10.116900 -18.672800 -9.558500
H -9.525900 -20.362600 -10.967400
29
Fragment
H -13.295900 -20.090000 -15.724100
O -12.597400 -20.625500 -15.605900
H -11.870400 -20.087300 -15.746100
H -15.064500 -18.431800 -5.443200
H -14.820700 -19.990100 -5.624900
N -14.684900 -19.127300 -5.883900
C -13.925900 -18.846700 -6.940400
O -13.808800 -17.680100 -7.398900
C -13.205900 -19.941900 -7.566400
H -13.174300 -22.680700 -12.891400
N -13.144000 -21.237300 -7.052600
N -12.639500 -21.968700 -12.999200
H -12.601800 -21.477900 -13.712100
H -12.405800 -18.104800 -9.402300
C -12.361400 -19.838400 -8.656100
C -12.270600 -21.856300 -7.789800
N -12.129300 -18.877900 -9.602900
H -12.023200 -22.765200 -7.663500
C -11.920900 -21.621700 -11.938200
N -11.836600 -22.267100 -10.818400
N -11.744500 -21.052300 -8.773400
O -11.227900 -20.459100 -12.048300
C -10.978900 -21.490900 -9.945400
C -10.805000 -18.908500 -10.229600
H -10.767600 -18.236200 -10.955800
C -10.507900 -20.282700 -10.796900
H -10.192500 -22.038300 -9.658100
H -10.116900 -18.672800 -9.558500
H -9.525900 -20.362600 -10.967400
