3
Fragment
H -13.295900 -20.090000 -15.724100
O -12.597400 -20.625500 -15.605900
H -11.870400 -20.087300 -15.746100
26
Fragment
H -19.161100 -16.376700 -12.185200
H -18.570100 -18.066400 -13.594000
H -18.494500 -14.701000 -13.494500
C -18.179100 -16.456600 -12.355700
H -17.919400 -18.503000 -12.196800
C -17.882000 -17.830800 -12.923000
C -17.708100 -15.248400 -13.207200
O -17.459100 -16.280200 -11.104300
N -16.942500 -15.687000 -14.379100
N -16.850400 -14.472200 -12.334200
C -16.766100 -15.117600 -11.214400
H -16.663800 -13.974100 -15.489100
N -16.557700 -17.861400 -13.549700
C -16.416400 -14.883000 -15.362800
C -16.325600 -16.900900 -14.496500
H -16.281200 -18.634500 -13.750300
H -16.085200 -15.261400 -9.440500
N -16.047500 -14.770600 -10.153300
N -15.543000 -15.502000 -16.100000
H -15.512700 -14.058600 -10.261200
C -15.481100 -16.797400 -15.586200
O -14.878200 -19.059200 -15.753700
C -14.761100 -17.892600 -16.212100
N -14.002100 -17.612000 -17.268700
H -13.866300 -16.749200 -17.527700
H -13.622500 -18.307500 -17.709400
29
Fragment
H -13.295900 -20.090000 -15.724100
O -12.597400 -20.625500 -15.605900
H -11.870400 -20.087300 -15.746100
H -19.161100 -16.376700 -12.185200
H -18.570100 -18.066400 -13.594000
H -18.494500 -14.701000 -13.494500
C -18.179100 -16.456600 -12.355700
H -17.919400 -18.503000 -12.196800
C -17.882000 -17.830800 -12.923000
C -17.708100 -15.248400 -13.207200
O -17.459100 -16.280200 -11.104300
N -16.942500 -15.687000 -14.379100
N -16.850400 -14.472200 -12.334200
C -16.766100 -15.117600 -11.214400
H -16.663800 -13.974100 -15.489100
N -16.557700 -17.861400 -13.549700
C -16.416400 -14.883000 -15.362800
C -16.325600 -16.900900 -14.496500
H -16.281200 -18.634500 -13.750300
H -16.085200 -15.261400 -9.440500
N -16.047500 -14.770600 -10.153300
N -15.543000 -15.502000 -16.100000
H -15.512700 -14.058600 -10.261200
C -15.481100 -16.797400 -15.586200
O -14.878200 -19.059200 -15.753700
C -14.761100 -17.892600 -16.212100
N -14.002100 -17.612000 -17.268700
H -13.866300 -16.749200 -17.527700
H -13.622500 -18.307500 -17.709400
