34
Fragment
H -29.154600 -16.236900 -31.710700
H -29.059800 -15.392800 -33.012800
N -28.873700 -15.522300 -32.141600
H -28.448800 -15.214000 -29.607400
H -28.413600 -11.029600 -28.975400
C -28.208300 -14.545200 -31.533300
C -28.033300 -14.563100 -30.122500
O -27.734900 -10.917300 -28.455100
N -27.729500 -13.564100 -32.291600
C -27.270800 -13.608200 -29.584800
H -27.107800 -13.533100 -28.645800
H -27.009900 -9.992500 -30.033500
C -26.972300 -12.589600 -31.742000
N -26.680300 -12.666300 -30.372900
C -26.674400 -10.453800 -29.268300
O -26.521200 -11.655100 -32.397300
H -26.314400 -8.826600 -28.075800
C -25.844500 -11.614000 -29.830100
C -25.790900 -9.532500 -28.470100
H -25.322500 -11.294300 -30.548900
H -25.156200 -9.177000 -29.046500
N -25.142500 -10.270800 -27.398700
N -24.953500 -12.147500 -28.808300
H -24.719700 -9.799300 -26.828400
C -24.553100 -11.440900 -27.710500
H -24.279700 -13.883600 -29.560000
C -24.176900 -13.274200 -28.879800
C -23.547400 -12.190500 -27.133400
N -23.336200 -13.341300 -27.890400
O -23.045000 -10.803400 -25.311200
C -22.771600 -11.834300 -25.970600
N -21.769900 -12.626100 -25.612200
H -21.588400 -13.368600 -26.067100
H -21.287900 -12.395800 -24.912600
34
Fragment
H -29.154600 -23.389700 -31.710700
H -29.059800 -22.545600 -33.012800
N -28.873700 -22.675100 -32.141600
H -28.448800 -22.366800 -29.607400
H -28.413600 -18.182400 -28.975400
C -28.208300 -21.698000 -31.533300
C -28.033300 -21.715900 -30.122500
O -27.734900 -18.070100 -28.455100
N -27.729500 -20.716900 -32.291600
C -27.270800 -20.761000 -29.584800
H -27.107800 -20.685900 -28.645800
H -27.009900 -17.145300 -30.033500
C -26.972300 -19.742400 -31.742000
N -26.680300 -19.819100 -30.372900
C -26.674400 -17.606600 -29.268300
O -26.521200 -18.807900 -32.397300
H -26.314400 -15.979400 -28.075800
C -25.844500 -18.766800 -29.830100
C -25.790900 -16.685300 -28.470100
H -25.322500 -18.447100 -30.548900
H -25.156200 -16.329800 -29.046500
N -25.142500 -17.423600 -27.398700
N -24.953500 -19.300300 -28.808300
H -24.719700 -16.952100 -26.828400
C -24.553100 -18.593700 -27.710500
H -24.279700 -21.036400 -29.560000
C -24.176900 -20.427000 -28.879800
C -23.547400 -19.343300 -27.133400
N -23.336200 -20.494100 -27.890400
O -23.045000 -17.956200 -25.311200
C -22.771600 -18.987100 -25.970600
N -21.769900 -19.778900 -25.612200
H -21.588400 -20.521400 -26.067100
H -21.287900 -19.548600 -24.912600
68
Fragment
H -29.154600 -16.236900 -31.710700
H -29.059800 -15.392800 -33.012800
N -28.873700 -15.522300 -32.141600
H -28.448800 -15.214000 -29.607400
H -28.413600 -11.029600 -28.975400
C -28.208300 -14.545200 -31.533300
C -28.033300 -14.563100 -30.122500
O -27.734900 -10.917300 -28.455100
N -27.729500 -13.564100 -32.291600
C -27.270800 -13.608200 -29.584800
H -27.107800 -13.533100 -28.645800
H -27.009900 -9.992500 -30.033500
C -26.972300 -12.589600 -31.742000
N -26.680300 -12.666300 -30.372900
C -26.674400 -10.453800 -29.268300
O -26.521200 -11.655100 -32.397300
H -26.314400 -8.826600 -28.075800
C -25.844500 -11.614000 -29.830100
C -25.790900 -9.532500 -28.470100
H -25.322500 -11.294300 -30.548900
H -25.156200 -9.177000 -29.046500
N -25.142500 -10.270800 -27.398700
N -24.953500 -12.147500 -28.808300
H -24.719700 -9.799300 -26.828400
C -24.553100 -11.440900 -27.710500
H -24.279700 -13.883600 -29.560000
C -24.176900 -13.274200 -28.879800
C -23.547400 -12.190500 -27.133400
N -23.336200 -13.341300 -27.890400
O -23.045000 -10.803400 -25.311200
C -22.771600 -11.834300 -25.970600
N -21.769900 -12.626100 -25.612200
H -21.588400 -13.368600 -26.067100
H -21.287900 -12.395800 -24.912600
H -29.154600 -23.389700 -31.710700
H -29.059800 -22.545600 -33.012800
N -28.873700 -22.675100 -32.141600
H -28.448800 -22.366800 -29.607400
H -28.413600 -18.182400 -28.975400
C -28.208300 -21.698000 -31.533300
C -28.033300 -21.715900 -30.122500
O -27.734900 -18.070100 -28.455100
N -27.729500 -20.716900 -32.291600
C -27.270800 -20.761000 -29.584800
H -27.107800 -20.685900 -28.645800
H -27.009900 -17.145300 -30.033500
C -26.972300 -19.742400 -31.742000
N -26.680300 -19.819100 -30.372900
C -26.674400 -17.606600 -29.268300
O -26.521200 -18.807900 -32.397300
H -26.314400 -15.979400 -28.075800
C -25.844500 -18.766800 -29.830100
C -25.790900 -16.685300 -28.470100
H -25.322500 -18.447100 -30.548900
H -25.156200 -16.329800 -29.046500
N -25.142500 -17.423600 -27.398700
N -24.953500 -19.300300 -28.808300
H -24.719700 -16.952100 -26.828400
C -24.553100 -18.593700 -27.710500
H -24.279700 -21.036400 -29.560000
C -24.176900 -20.427000 -28.879800
C -23.547400 -19.343300 -27.133400
N -23.336200 -20.494100 -27.890400
O -23.045000 -17.956200 -25.311200
C -22.771600 -18.987100 -25.970600
N -21.769900 -19.778900 -25.612200
H -21.588400 -20.521400 -26.067100
H -21.287900 -19.548600 -24.912600
