31
Fragment
H -4.317700 -34.523800 -24.127400
N -4.281600 -28.335100 -29.541300
H -3.974500 -29.991900 -23.758900
O -3.883500 -27.666000 -22.795200
H -3.817500 -35.344900 -25.360400
N -3.711300 -34.621100 -24.819700
C -3.640400 -29.200300 -29.147500
H -3.630300 -29.367200 -26.212300
H -3.450600 -27.313500 -22.193800
H -3.261800 -27.859600 -24.665400
N -3.207000 -30.123700 -26.130200
C -3.022800 -29.685500 -23.750300
H -3.003500 -30.203200 -22.011700
C -2.997100 -28.184900 -23.769000
O -2.990000 -32.526400 -24.407600
C -2.895700 -33.653000 -25.154400
C -2.858500 -30.247000 -28.629600
C -2.678500 -30.565900 -27.304600
O -2.396800 -30.175400 -22.579100
C -2.313800 -30.256500 -24.972500
N -2.085100 -31.082700 -29.421800
H -2.077800 -27.867100 -23.585200
N -2.042900 -33.649800 -26.119200
C -1.892100 -31.683500 -24.820500
N -1.790300 -31.583900 -27.293800
H -1.496400 -29.705700 -25.144600
C -1.470500 -31.860000 -28.592100
C -1.407000 -32.358500 -26.113300
H -1.166200 -31.736900 -24.134400
H -0.866500 -32.545000 -28.854800
H -0.413600 -32.468300 -26.087600
3
Fragment
H -6.319800 -35.687200 -28.442900
H -5.999800 -34.849300 -27.392000
O -5.726900 -35.448900 -27.954800
34
Fragment
H -4.317700 -34.523800 -24.127400
N -4.281600 -28.335100 -29.541300
H -3.974500 -29.991900 -23.758900
O -3.883500 -27.666000 -22.795200
H -3.817500 -35.344900 -25.360400
N -3.711300 -34.621100 -24.819700
C -3.640400 -29.200300 -29.147500
H -3.630300 -29.367200 -26.212300
H -3.450600 -27.313500 -22.193800
H -3.261800 -27.859600 -24.665400
N -3.207000 -30.123700 -26.130200
C -3.022800 -29.685500 -23.750300
H -3.003500 -30.203200 -22.011700
C -2.997100 -28.184900 -23.769000
O -2.990000 -32.526400 -24.407600
C -2.895700 -33.653000 -25.154400
C -2.858500 -30.247000 -28.629600
C -2.678500 -30.565900 -27.304600
O -2.396800 -30.175400 -22.579100
C -2.313800 -30.256500 -24.972500
N -2.085100 -31.082700 -29.421800
H -2.077800 -27.867100 -23.585200
N -2.042900 -33.649800 -26.119200
C -1.892100 -31.683500 -24.820500
N -1.790300 -31.583900 -27.293800
H -1.496400 -29.705700 -25.144600
C -1.470500 -31.860000 -28.592100
C -1.407000 -32.358500 -26.113300
H -1.166200 -31.736900 -24.134400
H -0.866500 -32.545000 -28.854800
H -0.413600 -32.468300 -26.087600
H -6.319800 -35.687200 -28.442900
H -5.999800 -34.849300 -27.392000
O -5.726900 -35.448900 -27.954800
