31
Fragment
H -4.317700 -34.523800 -24.127400
N -4.281600 -28.335100 -29.541300
H -3.974500 -29.991900 -23.758900
O -3.883500 -27.666000 -22.795200
H -3.817500 -35.344900 -25.360400
N -3.711300 -34.621100 -24.819700
C -3.640400 -29.200300 -29.147500
H -3.630300 -29.367200 -26.212300
H -3.450600 -27.313500 -22.193800
H -3.261800 -27.859600 -24.665400
N -3.207000 -30.123700 -26.130200
C -3.022800 -29.685500 -23.750300
H -3.003500 -30.203200 -22.011700
C -2.997100 -28.184900 -23.769000
O -2.990000 -32.526400 -24.407600
C -2.895700 -33.653000 -25.154400
C -2.858500 -30.247000 -28.629600
C -2.678500 -30.565900 -27.304600
O -2.396800 -30.175400 -22.579100
C -2.313800 -30.256500 -24.972500
N -2.085100 -31.082700 -29.421800
H -2.077800 -27.867100 -23.585200
N -2.042900 -33.649800 -26.119200
C -1.892100 -31.683500 -24.820500
N -1.790300 -31.583900 -27.293800
H -1.496400 -29.705700 -25.144600
C -1.470500 -31.860000 -28.592100
C -1.407000 -32.358500 -26.113300
H -1.166200 -31.736900 -24.134400
H -0.866500 -32.545000 -28.854800
H -0.413600 -32.468300 -26.087600
31
Fragment
H -4.534300 -23.643700 -29.957500
H -4.081400 -23.567000 -27.190300
H -3.781700 -24.375100 -31.910600
C -3.540900 -23.753500 -29.931700
C -3.477300 -24.252000 -27.453000
H -3.451500 -26.406300 -30.900400
N -3.157600 -24.528100 -28.751200
C -3.055800 -24.428500 -31.224500
N -2.904900 -22.462200 -29.925800
H -2.870100 -28.244900 -32.459900
N -2.862700 -25.029300 -26.623200
C -2.634100 -25.855500 -31.072500
O -2.551100 -25.936600 -33.465900
C -2.269400 -25.546100 -28.740500
C -2.089400 -25.865000 -27.415400
C -2.052200 -22.459000 -30.890600
O -1.957900 -23.585600 -31.637400
C -1.950700 -27.927100 -32.276100
H -1.944400 -25.908800 -34.033300
C -1.925100 -26.426500 -32.294700
N -1.740900 -25.988300 -29.914900
H -1.686100 -28.252400 -31.379600
H -1.497200 -28.798500 -33.851200
H -1.317600 -26.744800 -29.832800
C -1.307500 -26.911700 -26.897600
N -1.236600 -21.490900 -31.225400
H -1.130400 -20.767100 -30.684700
O -1.064300 -28.446000 -33.249800
H -0.973400 -26.120100 -32.286100
N -0.666300 -27.776900 -26.503700
H -0.630200 -21.588200 -31.917600
62
Fragment
H -4.317700 -34.523800 -24.127400
N -4.281600 -28.335100 -29.541300
H -3.974500 -29.991900 -23.758900
O -3.883500 -27.666000 -22.795200
H -3.817500 -35.344900 -25.360400
N -3.711300 -34.621100 -24.819700
C -3.640400 -29.200300 -29.147500
H -3.630300 -29.367200 -26.212300
H -3.450600 -27.313500 -22.193800
H -3.261800 -27.859600 -24.665400
N -3.207000 -30.123700 -26.130200
C -3.022800 -29.685500 -23.750300
H -3.003500 -30.203200 -22.011700
C -2.997100 -28.184900 -23.769000
O -2.990000 -32.526400 -24.407600
C -2.895700 -33.653000 -25.154400
C -2.858500 -30.247000 -28.629600
C -2.678500 -30.565900 -27.304600
O -2.396800 -30.175400 -22.579100
C -2.313800 -30.256500 -24.972500
N -2.085100 -31.082700 -29.421800
H -2.077800 -27.867100 -23.585200
N -2.042900 -33.649800 -26.119200
C -1.892100 -31.683500 -24.820500
N -1.790300 -31.583900 -27.293800
H -1.496400 -29.705700 -25.144600
C -1.470500 -31.860000 -28.592100
C -1.407000 -32.358500 -26.113300
H -1.166200 -31.736900 -24.134400
H -0.866500 -32.545000 -28.854800
H -0.413600 -32.468300 -26.087600
H -4.534300 -23.643700 -29.957500
H -4.081400 -23.567000 -27.190300
H -3.781700 -24.375100 -31.910600
C -3.540900 -23.753500 -29.931700
C -3.477300 -24.252000 -27.453000
H -3.451500 -26.406300 -30.900400
N -3.157600 -24.528100 -28.751200
C -3.055800 -24.428500 -31.224500
N -2.904900 -22.462200 -29.925800
H -2.870100 -28.244900 -32.459900
N -2.862700 -25.029300 -26.623200
C -2.634100 -25.855500 -31.072500
O -2.551100 -25.936600 -33.465900
C -2.269400 -25.546100 -28.740500
C -2.089400 -25.865000 -27.415400
C -2.052200 -22.459000 -30.890600
O -1.957900 -23.585600 -31.637400
C -1.950700 -27.927100 -32.276100
H -1.944400 -25.908800 -34.033300
C -1.925100 -26.426500 -32.294700
N -1.740900 -25.988300 -29.914900
H -1.686100 -28.252400 -31.379600
H -1.497200 -28.798500 -33.851200
H -1.317600 -26.744800 -29.832800
C -1.307500 -26.911700 -26.897600
N -1.236600 -21.490900 -31.225400
H -1.130400 -20.767100 -30.684700
O -1.064300 -28.446000 -33.249800
H -0.973400 -26.120100 -32.286100
N -0.666300 -27.776900 -26.503700
H -0.630200 -21.588200 -31.917600
