34
Fragment
H -29.154600 -16.236900 -31.710700
H -29.059800 -15.392800 -33.012800
N -28.873700 -15.522300 -32.141600
H -28.448800 -15.214000 -29.607400
H -28.413600 -11.029600 -28.975400
C -28.208300 -14.545200 -31.533300
C -28.033300 -14.563100 -30.122500
O -27.734900 -10.917300 -28.455100
N -27.729500 -13.564100 -32.291600
C -27.270800 -13.608200 -29.584800
H -27.107800 -13.533100 -28.645800
H -27.009900 -9.992500 -30.033500
C -26.972300 -12.589600 -31.742000
N -26.680300 -12.666300 -30.372900
C -26.674400 -10.453800 -29.268300
O -26.521200 -11.655100 -32.397300
H -26.314400 -8.826600 -28.075800
C -25.844500 -11.614000 -29.830100
C -25.790900 -9.532500 -28.470100
H -25.322500 -11.294300 -30.548900
H -25.156200 -9.177000 -29.046500
N -25.142500 -10.270800 -27.398700
N -24.953500 -12.147500 -28.808300
H -24.719700 -9.799300 -26.828400
C -24.553100 -11.440900 -27.710500
H -24.279700 -13.883600 -29.560000
C -24.176900 -13.274200 -28.879800
C -23.547400 -12.190500 -27.133400
N -23.336200 -13.341300 -27.890400
O -23.045000 -10.803400 -25.311200
C -22.771600 -11.834300 -25.970600
N -21.769900 -12.626100 -25.612200
H -21.588400 -13.368600 -26.067100
H -21.287900 -12.395800 -24.912600
34
Fragment
H -22.611900 -16.215400 -29.720300
H -22.311300 -15.242600 -28.565700
N -22.129800 -15.985100 -29.020600
C -21.128200 -16.776900 -28.662200
O -20.854700 -17.807800 -29.321600
N -20.563500 -15.269900 -26.742400
C -20.352400 -16.420700 -27.499400
C -19.722800 -15.337000 -25.753000
H -19.620000 -14.727600 -25.072800
C -19.346600 -17.170300 -26.922300
H -19.180000 -18.811900 -27.804500
N -18.946200 -16.463700 -25.824600
N -18.757200 -18.340400 -27.234100
H -18.743500 -19.434200 -25.586400
H -18.577200 -17.316900 -24.084000
C -18.108900 -19.078700 -26.162800
C -18.055300 -16.997200 -24.802800
H -17.585300 -19.784600 -26.557000
O -17.378500 -16.956100 -22.235600
C -17.225300 -18.157400 -25.364600
N -17.219400 -15.944900 -24.259900
C -16.927400 -16.021600 -22.890800
H -16.889800 -18.618700 -24.599300
H -16.791900 -15.078100 -25.987000
C -16.628900 -15.003000 -25.048100
N -16.170300 -15.047100 -22.341200
O -16.164900 -17.693900 -26.177700
C -15.866400 -14.048100 -24.510300
C -15.691400 -14.066000 -23.099500
H -15.486100 -17.581600 -25.657400
H -15.450900 -13.397200 -25.025500
N -15.026000 -13.088900 -22.491200
H -14.839900 -13.218400 -21.620000
H -14.745100 -12.374300 -22.922100
68
Fragment
H -29.154600 -16.236900 -31.710700
H -29.059800 -15.392800 -33.012800
N -28.873700 -15.522300 -32.141600
H -28.448800 -15.214000 -29.607400
H -28.413600 -11.029600 -28.975400
C -28.208300 -14.545200 -31.533300
C -28.033300 -14.563100 -30.122500
O -27.734900 -10.917300 -28.455100
N -27.729500 -13.564100 -32.291600
C -27.270800 -13.608200 -29.584800
H -27.107800 -13.533100 -28.645800
H -27.009900 -9.992500 -30.033500
C -26.972300 -12.589600 -31.742000
N -26.680300 -12.666300 -30.372900
C -26.674400 -10.453800 -29.268300
O -26.521200 -11.655100 -32.397300
H -26.314400 -8.826600 -28.075800
C -25.844500 -11.614000 -29.830100
C -25.790900 -9.532500 -28.470100
H -25.322500 -11.294300 -30.548900
H -25.156200 -9.177000 -29.046500
N -25.142500 -10.270800 -27.398700
N -24.953500 -12.147500 -28.808300
H -24.719700 -9.799300 -26.828400
C -24.553100 -11.440900 -27.710500
H -24.279700 -13.883600 -29.560000
C -24.176900 -13.274200 -28.879800
C -23.547400 -12.190500 -27.133400
N -23.336200 -13.341300 -27.890400
O -23.045000 -10.803400 -25.311200
C -22.771600 -11.834300 -25.970600
N -21.769900 -12.626100 -25.612200
H -21.588400 -13.368600 -26.067100
H -21.287900 -12.395800 -24.912600
H -22.611900 -16.215400 -29.720300
H -22.311300 -15.242600 -28.565700
N -22.129800 -15.985100 -29.020600
C -21.128200 -16.776900 -28.662200
O -20.854700 -17.807800 -29.321600
N -20.563500 -15.269900 -26.742400
C -20.352400 -16.420700 -27.499400
C -19.722800 -15.337000 -25.753000
H -19.620000 -14.727600 -25.072800
C -19.346600 -17.170300 -26.922300
H -19.180000 -18.811900 -27.804500
N -18.946200 -16.463700 -25.824600
N -18.757200 -18.340400 -27.234100
H -18.743500 -19.434200 -25.586400
H -18.577200 -17.316900 -24.084000
C -18.108900 -19.078700 -26.162800
C -18.055300 -16.997200 -24.802800
H -17.585300 -19.784600 -26.557000
O -17.378500 -16.956100 -22.235600
C -17.225300 -18.157400 -25.364600
N -17.219400 -15.944900 -24.259900
C -16.927400 -16.021600 -22.890800
H -16.889800 -18.618700 -24.599300
H -16.791900 -15.078100 -25.987000
C -16.628900 -15.003000 -25.048100
N -16.170300 -15.047100 -22.341200
O -16.164900 -17.693900 -26.177700
C -15.866400 -14.048100 -24.510300
C -15.691400 -14.066000 -23.099500
H -15.486100 -17.581600 -25.657400
H -15.450900 -13.397200 -25.025500
N -15.026000 -13.088900 -22.491200
H -14.839900 -13.218400 -21.620000
H -14.745100 -12.374300 -22.922100
