31
Fragment
H -4.317700 -34.523800 -24.127400
N -4.281600 -28.335100 -29.541300
H -3.974500 -29.991900 -23.758900
O -3.883500 -27.666000 -22.795200
H -3.817500 -35.344900 -25.360400
N -3.711300 -34.621100 -24.819700
C -3.640400 -29.200300 -29.147500
H -3.630300 -29.367200 -26.212300
H -3.450600 -27.313500 -22.193800
H -3.261800 -27.859600 -24.665400
N -3.207000 -30.123700 -26.130200
C -3.022800 -29.685500 -23.750300
H -3.003500 -30.203200 -22.011700
C -2.997100 -28.184900 -23.769000
O -2.990000 -32.526400 -24.407600
C -2.895700 -33.653000 -25.154400
C -2.858500 -30.247000 -28.629600
C -2.678500 -30.565900 -27.304600
O -2.396800 -30.175400 -22.579100
C -2.313800 -30.256500 -24.972500
N -2.085100 -31.082700 -29.421800
H -2.077800 -27.867100 -23.585200
N -2.042900 -33.649800 -26.119200
C -1.892100 -31.683500 -24.820500
N -1.790300 -31.583900 -27.293800
H -1.496400 -29.705700 -25.144600
C -1.470500 -31.860000 -28.592100
C -1.407000 -32.358500 -26.113300
H -1.166200 -31.736900 -24.134400
H -0.866500 -32.545000 -28.854800
H -0.413600 -32.468300 -26.087600
31
Fragment
H -3.356000 -41.820300 -22.951800
H -2.903100 -41.897000 -20.184600
H -2.603400 -41.088900 -24.905000
C -2.362600 -41.710500 -22.926100
C -2.299100 -41.212000 -20.447300
H -2.273200 -39.057700 -23.894800
N -1.979300 -40.935900 -21.745600
C -1.877500 -41.035500 -24.218900
N -1.726700 -43.001800 -22.920200
H -1.691800 -37.219100 -25.454300
N -1.684500 -40.434700 -19.617600
C -1.455800 -39.608500 -24.066900
O -1.372800 -39.527400 -26.460300
C -1.091100 -39.917900 -21.734800
C -0.911100 -39.599000 -20.409800
C -0.873900 -43.005000 -23.885000
O -0.779600 -41.878400 -24.631800
C -0.772500 -37.536900 -25.270400
H -0.766100 -39.555200 -27.027700
C -0.746800 -39.037500 -25.289100
N -0.562600 -39.475700 -22.909300
H -0.507800 -37.211600 -24.374000
H -0.319000 -36.665500 -26.845600
H -0.139300 -38.719200 -22.827100
C -0.129300 -38.552300 -19.891900
N -0.058300 -43.973100 -24.219700
H 0.047900 -44.696900 -23.679000
O 0.113900 -37.018000 -26.244200
H 0.204900 -39.343900 -25.280500
N 0.512000 -37.687100 -19.498100
H 0.548100 -43.875800 -24.912000
62
Fragment
H -4.317700 -34.523800 -24.127400
N -4.281600 -28.335100 -29.541300
H -3.974500 -29.991900 -23.758900
O -3.883500 -27.666000 -22.795200
H -3.817500 -35.344900 -25.360400
N -3.711300 -34.621100 -24.819700
C -3.640400 -29.200300 -29.147500
H -3.630300 -29.367200 -26.212300
H -3.450600 -27.313500 -22.193800
H -3.261800 -27.859600 -24.665400
N -3.207000 -30.123700 -26.130200
C -3.022800 -29.685500 -23.750300
H -3.003500 -30.203200 -22.011700
C -2.997100 -28.184900 -23.769000
O -2.990000 -32.526400 -24.407600
C -2.895700 -33.653000 -25.154400
C -2.858500 -30.247000 -28.629600
C -2.678500 -30.565900 -27.304600
O -2.396800 -30.175400 -22.579100
C -2.313800 -30.256500 -24.972500
N -2.085100 -31.082700 -29.421800
H -2.077800 -27.867100 -23.585200
N -2.042900 -33.649800 -26.119200
C -1.892100 -31.683500 -24.820500
N -1.790300 -31.583900 -27.293800
H -1.496400 -29.705700 -25.144600
C -1.470500 -31.860000 -28.592100
C -1.407000 -32.358500 -26.113300
H -1.166200 -31.736900 -24.134400
H -0.866500 -32.545000 -28.854800
H -0.413600 -32.468300 -26.087600
H -3.356000 -41.820300 -22.951800
H -2.903100 -41.897000 -20.184600
H -2.603400 -41.088900 -24.905000
C -2.362600 -41.710500 -22.926100
C -2.299100 -41.212000 -20.447300
H -2.273200 -39.057700 -23.894800
N -1.979300 -40.935900 -21.745600
C -1.877500 -41.035500 -24.218900
N -1.726700 -43.001800 -22.920200
H -1.691800 -37.219100 -25.454300
N -1.684500 -40.434700 -19.617600
C -1.455800 -39.608500 -24.066900
O -1.372800 -39.527400 -26.460300
C -1.091100 -39.917900 -21.734800
C -0.911100 -39.599000 -20.409800
C -0.873900 -43.005000 -23.885000
O -0.779600 -41.878400 -24.631800
C -0.772500 -37.536900 -25.270400
H -0.766100 -39.555200 -27.027700
C -0.746800 -39.037500 -25.289100
N -0.562600 -39.475700 -22.909300
H -0.507800 -37.211600 -24.374000
H -0.319000 -36.665500 -26.845600
H -0.139300 -38.719200 -22.827100
C -0.129300 -38.552300 -19.891900
N -0.058300 -43.973100 -24.219700
H 0.047900 -44.696900 -23.679000
O 0.113900 -37.018000 -26.244200
H 0.204900 -39.343900 -25.280500
N 0.512000 -37.687100 -19.498100
H 0.548100 -43.875800 -24.912000
