34
Fragment
H -20.935800 -22.742400 -24.030800
H -20.236800 -15.912400 -27.657900
C -19.963800 -22.808700 -24.347700
H -19.677900 -18.243500 -27.756400
C -19.445100 -16.259800 -27.132600
N -19.337200 -23.990700 -24.555500
N -19.266000 -21.703900 -24.603700
C -19.181400 -17.584600 -27.199800
H -18.914600 -14.468800 -26.169500
O -18.818700 -20.221400 -27.164300
C -18.669900 -15.447000 -26.286000
N -18.172800 -18.140300 -26.442800
C -18.126600 -23.606500 -24.970000
N -18.077600 -22.229500 -25.022300
C -18.071200 -19.579900 -26.438100
C -17.640200 -15.977500 -25.587500
C -17.366400 -17.369500 -25.634600
H -17.110300 -15.410400 -25.014200
N -17.075400 -24.382900 -25.293300
C -17.060400 -20.083100 -25.571600
C -16.971200 -21.550700 -25.462900
N -16.372800 -17.887100 -24.910200
C -16.212700 -19.224400 -24.882600
C -15.978800 -23.751700 -25.675500
C -15.899500 -22.333900 -25.777000
H -15.219800 -20.629900 -23.630600
H -15.078300 -21.960600 -26.107000
C -15.056200 -19.712300 -24.064600
H -15.024000 -25.534100 -25.963600
H -14.861100 -19.078200 -23.358600
C -14.790600 -24.584800 -26.034600
H -14.516400 -24.383700 -26.953700
H -14.251400 -19.790600 -24.606200
H -14.052900 -24.383100 -25.421900
34
Fragment
H -18.981500 -36.138700 -29.296600
H -18.783000 -31.546200 -30.112400
H -18.518000 -36.139300 -27.764800
C -18.243800 -36.340400 -28.683900
H -18.173300 -30.833800 -31.360000
H -18.010400 -37.289700 -28.754900
C -17.978200 -31.467900 -30.654000
H -17.956100 -33.716200 -28.611600
H -17.814600 -32.385500 -31.088000
C -17.134900 -34.089500 -28.941600
C -17.055600 -35.507300 -29.043100
C -16.821700 -30.980000 -29.836000
N -16.661600 -29.642700 -29.808300
C -16.063200 -33.306300 -29.255700
C -15.974000 -31.838700 -29.147000
N -15.959000 -36.138500 -29.425300
H -15.924100 -27.166000 -29.704400
C -15.668000 -29.125100 -29.084000
C -15.394200 -27.733100 -29.131100
C -14.963200 -31.335500 -28.280400
N -14.956800 -33.985100 -29.696200
C -14.907800 -35.362100 -29.748600
N -14.861600 -29.895900 -28.275700
C -14.364500 -27.202600 -28.432600
O -14.215700 -31.977000 -27.554200
H -14.119800 -26.224400 -28.549000
C -13.853000 -29.340200 -27.518800
N -13.768400 -33.459500 -30.114900
N -13.697200 -35.746300 -30.163100
C -13.589300 -28.015400 -27.586000
H -13.356500 -29.999100 -26.962200
C -13.070600 -34.564300 -30.370800
H -12.797600 -27.668000 -27.060700
H -12.098600 -34.498000 -30.687700
68
Fragment
H -20.935800 -22.742400 -24.030800
H -20.236800 -15.912400 -27.657900
C -19.963800 -22.808700 -24.347700
H -19.677900 -18.243500 -27.756400
C -19.445100 -16.259800 -27.132600
N -19.337200 -23.990700 -24.555500
N -19.266000 -21.703900 -24.603700
C -19.181400 -17.584600 -27.199800
H -18.914600 -14.468800 -26.169500
O -18.818700 -20.221400 -27.164300
C -18.669900 -15.447000 -26.286000
N -18.172800 -18.140300 -26.442800
C -18.126600 -23.606500 -24.970000
N -18.077600 -22.229500 -25.022300
C -18.071200 -19.579900 -26.438100
C -17.640200 -15.977500 -25.587500
C -17.366400 -17.369500 -25.634600
H -17.110300 -15.410400 -25.014200
N -17.075400 -24.382900 -25.293300
C -17.060400 -20.083100 -25.571600
C -16.971200 -21.550700 -25.462900
N -16.372800 -17.887100 -24.910200
C -16.212700 -19.224400 -24.882600
C -15.978800 -23.751700 -25.675500
C -15.899500 -22.333900 -25.777000
H -15.219800 -20.629900 -23.630600
H -15.078300 -21.960600 -26.107000
C -15.056200 -19.712300 -24.064600
H -15.024000 -25.534100 -25.963600
H -14.861100 -19.078200 -23.358600
C -14.790600 -24.584800 -26.034600
H -14.516400 -24.383700 -26.953700
H -14.251400 -19.790600 -24.606200
H -14.052900 -24.383100 -25.421900
H -18.981500 -36.138700 -29.296600
H -18.783000 -31.546200 -30.112400
H -18.518000 -36.139300 -27.764800
C -18.243800 -36.340400 -28.683900
H -18.173300 -30.833800 -31.360000
H -18.010400 -37.289700 -28.754900
C -17.978200 -31.467900 -30.654000
H -17.956100 -33.716200 -28.611600
H -17.814600 -32.385500 -31.088000
C -17.134900 -34.089500 -28.941600
C -17.055600 -35.507300 -29.043100
C -16.821700 -30.980000 -29.836000
N -16.661600 -29.642700 -29.808300
C -16.063200 -33.306300 -29.255700
C -15.974000 -31.838700 -29.147000
N -15.959000 -36.138500 -29.425300
H -15.924100 -27.166000 -29.704400
C -15.668000 -29.125100 -29.084000
C -15.394200 -27.733100 -29.131100
C -14.963200 -31.335500 -28.280400
N -14.956800 -33.985100 -29.696200
C -14.907800 -35.362100 -29.748600
N -14.861600 -29.895900 -28.275700
C -14.364500 -27.202600 -28.432600
O -14.215700 -31.977000 -27.554200
H -14.119800 -26.224400 -28.549000
C -13.853000 -29.340200 -27.518800
N -13.768400 -33.459500 -30.114900
N -13.697200 -35.746300 -30.163100
C -13.589300 -28.015400 -27.586000
H -13.356500 -29.999100 -26.962200
C -13.070600 -34.564300 -30.370800
H -12.797600 -27.668000 -27.060700
H -12.098600 -34.498000 -30.687700
