45
Fragment
O -8.105000 -12.340600 -23.429100
N -7.278000 -13.224300 -23.618700
O -7.219500 -14.259000 -22.953100
H -6.859800 -11.138300 -25.134700
C -6.309400 -13.056900 -24.705800
C -6.272400 -11.845400 -25.375100
H -5.507100 -14.922900 -24.552400
C -5.462500 -14.104200 -25.033300
C -5.357400 -11.690900 -26.403200
H -5.318200 -10.870000 -26.879700
C -4.558500 -13.951800 -26.056900
C -4.493300 -12.730700 -26.745700
H -3.981700 -14.667500 -26.295800
N -3.587200 -12.438200 -27.800400
H -2.957500 -11.020200 -28.815400
N -2.800700 -13.402900 -28.113100
H -2.672600 -7.286000 -29.600100
H -2.516200 -10.187500 -31.878800
H -2.487400 -10.848500 -34.002000
O -2.391100 -7.663800 -30.329400
N -2.344300 -10.854400 -29.446900
H -2.098600 -10.011600 -29.698800
H -2.001000 -8.120800 -32.804100
C -1.880700 -13.172800 -29.098500
O -1.756800 -11.033000 -33.521100
C -1.665800 -10.176800 -32.404700
C -1.661800 -11.936600 -29.759700
C -1.217700 -8.731400 -32.688600
O -1.046700 -15.382900 -28.818400
C -1.006500 -14.289800 -29.376900
C -1.002500 -7.355800 -30.496900
H -0.902300 -6.443700 -30.868300
N -0.698900 -11.856200 -30.754700
H -0.542700 -7.387900 -29.620200
C -0.497100 -10.654300 -31.552800
O -0.405800 -8.766100 -33.858900
C -0.386800 -8.359100 -31.434100
O -0.185600 -9.580900 -30.689300
N -0.037900 -14.066900 -30.339300
H -0.012000 -7.983500 -33.879800
C 0.175600 -12.920600 -31.040100
H 0.286500 -10.807800 -32.154900
H 0.500500 -14.765200 -30.560500
H 0.504000 -8.014600 -31.731600
O 1.065100 -12.814100 -31.860900
45
Fragment
O -10.200000 -18.179400 -18.331400
H -9.638800 -13.379900 -18.460700
H -9.635400 -20.130400 -19.631900
H -9.421400 -16.173000 -18.037500
C -9.310400 -18.285800 -19.152200
H -9.122900 -13.348700 -16.312500
N -9.097000 -19.432200 -19.853100
O -8.949200 -14.946200 -19.503100
C -8.748000 -13.724300 -18.758200
O -8.729100 -14.131300 -16.333400
C -8.637800 -16.019600 -18.639600
H -8.592100 -12.753200 -20.572200
N -8.436000 -17.221500 -19.437700
H -8.232500 -11.808900 -19.324100
C -8.132300 -12.721000 -19.695500
C -8.128300 -19.655100 -20.815400
O -8.088200 -20.748200 -21.373900
C -7.917200 -14.096700 -17.503700
C -7.473100 -17.301900 -20.432600
C -7.469100 -15.542100 -17.787700
O -7.378100 -16.398200 -16.671200
C -7.254200 -18.538000 -21.093800
H -7.133900 -13.486100 -17.388300
H -7.036300 -15.376800 -20.493500
N -6.790600 -16.219700 -20.745500
O -6.743800 -13.029100 -19.863000
H -6.647500 -16.213800 -16.190400
H -6.618700 -15.552800 -18.313500
H -6.462300 -12.651300 -20.592300
N -6.334200 -18.768200 -22.079300
H -6.177400 -16.385500 -21.376900
N -5.547700 -17.803400 -22.392000
H -5.153200 -20.032800 -23.896600
C -4.641600 -18.095900 -23.446700
C -4.576400 -19.317000 -24.135500
H -3.816600 -16.235200 -23.312700
C -3.777500 -17.056100 -23.789200
C -3.672400 -19.469400 -25.159100
H -3.627800 -20.288200 -25.639900
C -2.862500 -17.210600 -24.817300
C -2.825500 -18.422100 -25.486500
H -2.275100 -16.503500 -25.057700
O -1.915300 -19.624300 -27.239200
N -1.856900 -18.589500 -26.573700
O -1.029800 -17.705900 -26.763200
90
Fragment
O -8.105000 -12.340600 -23.429100
N -7.278000 -13.224300 -23.618700
O -7.219500 -14.259000 -22.953100
H -6.859800 -11.138300 -25.134700
C -6.309400 -13.056900 -24.705800
C -6.272400 -11.845400 -25.375100
H -5.507100 -14.922900 -24.552400
C -5.462500 -14.104200 -25.033300
C -5.357400 -11.690900 -26.403200
H -5.318200 -10.870000 -26.879700
C -4.558500 -13.951800 -26.056900
C -4.493300 -12.730700 -26.745700
H -3.981700 -14.667500 -26.295800
N -3.587200 -12.438200 -27.800400
H -2.957500 -11.020200 -28.815400
N -2.800700 -13.402900 -28.113100
H -2.672600 -7.286000 -29.600100
H -2.516200 -10.187500 -31.878800
H -2.487400 -10.848500 -34.002000
O -2.391100 -7.663800 -30.329400
N -2.344300 -10.854400 -29.446900
H -2.098600 -10.011600 -29.698800
H -2.001000 -8.120800 -32.804100
C -1.880700 -13.172800 -29.098500
O -1.756800 -11.033000 -33.521100
C -1.665800 -10.176800 -32.404700
C -1.661800 -11.936600 -29.759700
C -1.217700 -8.731400 -32.688600
O -1.046700 -15.382900 -28.818400
C -1.006500 -14.289800 -29.376900
C -1.002500 -7.355800 -30.496900
H -0.902300 -6.443700 -30.868300
N -0.698900 -11.856200 -30.754700
H -0.542700 -7.387900 -29.620200
C -0.497100 -10.654300 -31.552800
O -0.405800 -8.766100 -33.858900
C -0.386800 -8.359100 -31.434100
O -0.185600 -9.580900 -30.689300
N -0.037900 -14.066900 -30.339300
H -0.012000 -7.983500 -33.879800
C 0.175600 -12.920600 -31.040100
H 0.286500 -10.807800 -32.154900
H 0.500500 -14.765200 -30.560500
H 0.504000 -8.014600 -31.731600
O 1.065100 -12.814100 -31.860900
O -10.200000 -18.179400 -18.331400
H -9.638800 -13.379900 -18.460700
H -9.635400 -20.130400 -19.631900
H -9.421400 -16.173000 -18.037500
C -9.310400 -18.285800 -19.152200
H -9.122900 -13.348700 -16.312500
N -9.097000 -19.432200 -19.853100
O -8.949200 -14.946200 -19.503100
C -8.748000 -13.724300 -18.758200
O -8.729100 -14.131300 -16.333400
C -8.637800 -16.019600 -18.639600
H -8.592100 -12.753200 -20.572200
N -8.436000 -17.221500 -19.437700
H -8.232500 -11.808900 -19.324100
C -8.132300 -12.721000 -19.695500
C -8.128300 -19.655100 -20.815400
O -8.088200 -20.748200 -21.373900
C -7.917200 -14.096700 -17.503700
C -7.473100 -17.301900 -20.432600
C -7.469100 -15.542100 -17.787700
O -7.378100 -16.398200 -16.671200
C -7.254200 -18.538000 -21.093800
H -7.133900 -13.486100 -17.388300
H -7.036300 -15.376800 -20.493500
N -6.790600 -16.219700 -20.745500
O -6.743800 -13.029100 -19.863000
H -6.647500 -16.213800 -16.190400
H -6.618700 -15.552800 -18.313500
H -6.462300 -12.651300 -20.592300
N -6.334200 -18.768200 -22.079300
H -6.177400 -16.385500 -21.376900
N -5.547700 -17.803400 -22.392000
H -5.153200 -20.032800 -23.896600
C -4.641600 -18.095900 -23.446700
C -4.576400 -19.317000 -24.135500
H -3.816600 -16.235200 -23.312700
C -3.777500 -17.056100 -23.789200
C -3.672400 -19.469400 -25.159100
H -3.627800 -20.288200 -25.639900
C -2.862500 -17.210600 -24.817300
C -2.825500 -18.422100 -25.486500
H -2.275100 -16.503500 -25.057700
O -1.915300 -19.624300 -27.239200
N -1.856900 -18.589500 -26.573700
O -1.029800 -17.705900 -26.763200
