45
Fragment
O -8.105000 -12.340600 -23.429100
N -7.278000 -13.224300 -23.618700
O -7.219500 -14.259000 -22.953100
H -6.859800 -11.138300 -25.134700
C -6.309400 -13.056900 -24.705800
C -6.272400 -11.845400 -25.375100
H -5.507100 -14.922900 -24.552400
C -5.462500 -14.104200 -25.033300
C -5.357400 -11.690900 -26.403200
H -5.318200 -10.870000 -26.879700
C -4.558500 -13.951800 -26.056900
C -4.493300 -12.730700 -26.745700
H -3.981700 -14.667500 -26.295800
N -3.587200 -12.438200 -27.800400
H -2.957500 -11.020200 -28.815400
N -2.800700 -13.402900 -28.113100
H -2.672600 -7.286000 -29.600100
H -2.516200 -10.187500 -31.878800
H -2.487400 -10.848500 -34.002000
O -2.391100 -7.663800 -30.329400
N -2.344300 -10.854400 -29.446900
H -2.098600 -10.011600 -29.698800
H -2.001000 -8.120800 -32.804100
C -1.880700 -13.172800 -29.098500
O -1.756800 -11.033000 -33.521100
C -1.665800 -10.176800 -32.404700
C -1.661800 -11.936600 -29.759700
C -1.217700 -8.731400 -32.688600
O -1.046700 -15.382900 -28.818400
C -1.006500 -14.289800 -29.376900
C -1.002500 -7.355800 -30.496900
H -0.902300 -6.443700 -30.868300
N -0.698900 -11.856200 -30.754700
H -0.542700 -7.387900 -29.620200
C -0.497100 -10.654300 -31.552800
O -0.405800 -8.766100 -33.858900
C -0.386800 -8.359100 -31.434100
O -0.185600 -9.580900 -30.689300
N -0.037900 -14.066900 -30.339300
H -0.012000 -7.983500 -33.879800
C 0.175600 -12.920600 -31.040100
H 0.286500 -10.807800 -32.154900
H 0.500500 -14.765200 -30.560500
H 0.504000 -8.014600 -31.731600
O 1.065100 -12.814100 -31.860900
45
Fragment
O -15.179000 -7.448900 -18.331400
H -14.617800 -2.649400 -18.460700
H -14.614400 -9.399900 -19.631900
H -14.400400 -5.442500 -18.037500
C -14.289400 -7.555300 -19.152200
H -14.101900 -2.618200 -16.312500
N -14.076000 -8.701700 -19.853100
O -13.928200 -4.215700 -19.503100
C -13.727000 -2.993800 -18.758200
O -13.708100 -3.400800 -16.333400
C -13.616800 -5.289100 -18.639600
H -13.571100 -2.022700 -20.572200
N -13.415000 -6.491000 -19.437700
H -13.211500 -1.078400 -19.324100
C -13.111300 -1.990500 -19.695500
C -13.107300 -8.924600 -20.815400
O -13.067200 -10.017700 -21.373900
C -12.896200 -3.366200 -17.503700
C -12.452100 -6.571400 -20.432600
C -12.448100 -4.811600 -17.787700
O -12.357100 -5.667700 -16.671200
C -12.233200 -7.807500 -21.093800
H -12.112900 -2.755600 -17.388300
H -12.015300 -4.646300 -20.493500
N -11.769600 -5.489200 -20.745500
O -11.722800 -2.298600 -19.863000
H -11.626500 -5.483300 -16.190400
H -11.597700 -4.822300 -18.313500
H -11.441300 -1.920800 -20.592300
N -11.313200 -8.037700 -22.079300
H -11.156400 -5.655000 -21.376900
N -10.526700 -7.072900 -22.392000
H -10.132200 -9.302300 -23.896600
C -9.620600 -7.365400 -23.446700
C -9.555400 -8.586500 -24.135500
H -8.795600 -5.504700 -23.312700
C -8.756500 -6.325600 -23.789200
C -8.651400 -8.738900 -25.159100
H -8.606800 -9.557700 -25.639900
C -7.841500 -6.480100 -24.817300
C -7.804500 -7.691600 -25.486500
H -7.254100 -5.773000 -25.057700
O -6.894300 -8.893800 -27.239200
N -6.835900 -7.859000 -26.573700
O -6.008800 -6.975400 -26.763200
90
Fragment
O -8.105000 -12.340600 -23.429100
N -7.278000 -13.224300 -23.618700
O -7.219500 -14.259000 -22.953100
H -6.859800 -11.138300 -25.134700
C -6.309400 -13.056900 -24.705800
C -6.272400 -11.845400 -25.375100
H -5.507100 -14.922900 -24.552400
C -5.462500 -14.104200 -25.033300
C -5.357400 -11.690900 -26.403200
H -5.318200 -10.870000 -26.879700
C -4.558500 -13.951800 -26.056900
C -4.493300 -12.730700 -26.745700
H -3.981700 -14.667500 -26.295800
N -3.587200 -12.438200 -27.800400
H -2.957500 -11.020200 -28.815400
N -2.800700 -13.402900 -28.113100
H -2.672600 -7.286000 -29.600100
H -2.516200 -10.187500 -31.878800
H -2.487400 -10.848500 -34.002000
O -2.391100 -7.663800 -30.329400
N -2.344300 -10.854400 -29.446900
H -2.098600 -10.011600 -29.698800
H -2.001000 -8.120800 -32.804100
C -1.880700 -13.172800 -29.098500
O -1.756800 -11.033000 -33.521100
C -1.665800 -10.176800 -32.404700
C -1.661800 -11.936600 -29.759700
C -1.217700 -8.731400 -32.688600
O -1.046700 -15.382900 -28.818400
C -1.006500 -14.289800 -29.376900
C -1.002500 -7.355800 -30.496900
H -0.902300 -6.443700 -30.868300
N -0.698900 -11.856200 -30.754700
H -0.542700 -7.387900 -29.620200
C -0.497100 -10.654300 -31.552800
O -0.405800 -8.766100 -33.858900
C -0.386800 -8.359100 -31.434100
O -0.185600 -9.580900 -30.689300
N -0.037900 -14.066900 -30.339300
H -0.012000 -7.983500 -33.879800
C 0.175600 -12.920600 -31.040100
H 0.286500 -10.807800 -32.154900
H 0.500500 -14.765200 -30.560500
H 0.504000 -8.014600 -31.731600
O 1.065100 -12.814100 -31.860900
O -15.179000 -7.448900 -18.331400
H -14.617800 -2.649400 -18.460700
H -14.614400 -9.399900 -19.631900
H -14.400400 -5.442500 -18.037500
C -14.289400 -7.555300 -19.152200
H -14.101900 -2.618200 -16.312500
N -14.076000 -8.701700 -19.853100
O -13.928200 -4.215700 -19.503100
C -13.727000 -2.993800 -18.758200
O -13.708100 -3.400800 -16.333400
C -13.616800 -5.289100 -18.639600
H -13.571100 -2.022700 -20.572200
N -13.415000 -6.491000 -19.437700
H -13.211500 -1.078400 -19.324100
C -13.111300 -1.990500 -19.695500
C -13.107300 -8.924600 -20.815400
O -13.067200 -10.017700 -21.373900
C -12.896200 -3.366200 -17.503700
C -12.452100 -6.571400 -20.432600
C -12.448100 -4.811600 -17.787700
O -12.357100 -5.667700 -16.671200
C -12.233200 -7.807500 -21.093800
H -12.112900 -2.755600 -17.388300
H -12.015300 -4.646300 -20.493500
N -11.769600 -5.489200 -20.745500
O -11.722800 -2.298600 -19.863000
H -11.626500 -5.483300 -16.190400
H -11.597700 -4.822300 -18.313500
H -11.441300 -1.920800 -20.592300
N -11.313200 -8.037700 -22.079300
H -11.156400 -5.655000 -21.376900
N -10.526700 -7.072900 -22.392000
H -10.132200 -9.302300 -23.896600
C -9.620600 -7.365400 -23.446700
C -9.555400 -8.586500 -24.135500
H -8.795600 -5.504700 -23.312700
C -8.756500 -6.325600 -23.789200
C -8.651400 -8.738900 -25.159100
H -8.606800 -9.557700 -25.639900
C -7.841500 -6.480100 -24.817300
C -7.804500 -7.691600 -25.486500
H -7.254100 -5.773000 -25.057700
O -6.894300 -8.893800 -27.239200
N -6.835900 -7.859000 -26.573700
O -6.008800 -6.975400 -26.763200
