45
Fragment
O -8.105000 -12.340600 -23.429100
N -7.278000 -13.224300 -23.618700
O -7.219500 -14.259000 -22.953100
H -6.859800 -11.138300 -25.134700
C -6.309400 -13.056900 -24.705800
C -6.272400 -11.845400 -25.375100
H -5.507100 -14.922900 -24.552400
C -5.462500 -14.104200 -25.033300
C -5.357400 -11.690900 -26.403200
H -5.318200 -10.870000 -26.879700
C -4.558500 -13.951800 -26.056900
C -4.493300 -12.730700 -26.745700
H -3.981700 -14.667500 -26.295800
N -3.587200 -12.438200 -27.800400
H -2.957500 -11.020200 -28.815400
N -2.800700 -13.402900 -28.113100
H -2.672600 -7.286000 -29.600100
H -2.516200 -10.187500 -31.878800
H -2.487400 -10.848500 -34.002000
O -2.391100 -7.663800 -30.329400
N -2.344300 -10.854400 -29.446900
H -2.098600 -10.011600 -29.698800
H -2.001000 -8.120800 -32.804100
C -1.880700 -13.172800 -29.098500
O -1.756800 -11.033000 -33.521100
C -1.665800 -10.176800 -32.404700
C -1.661800 -11.936600 -29.759700
C -1.217700 -8.731400 -32.688600
O -1.046700 -15.382900 -28.818400
C -1.006500 -14.289800 -29.376900
C -1.002500 -7.355800 -30.496900
H -0.902300 -6.443700 -30.868300
N -0.698900 -11.856200 -30.754700
H -0.542700 -7.387900 -29.620200
C -0.497100 -10.654300 -31.552800
O -0.405800 -8.766100 -33.858900
C -0.386800 -8.359100 -31.434100
O -0.185600 -9.580900 -30.689300
N -0.037900 -14.066900 -30.339300
H -0.012000 -7.983500 -33.879800
C 0.175600 -12.920600 -31.040100
H 0.286500 -10.807800 -32.154900
H 0.500500 -14.765200 -30.560500
H 0.504000 -8.014600 -31.731600
O 1.065100 -12.814100 -31.860900
45
Fragment
O -3.286900 -18.179400 -35.062200
H -2.725800 -13.379900 -35.191500
H -2.722300 -20.130400 -36.362700
H -2.508300 -16.173000 -34.768200
C -2.397400 -18.285800 -35.883000
H -2.209800 -13.348700 -33.043300
N -2.183900 -19.432200 -36.583900
O -2.036200 -14.946200 -36.233900
C -1.835000 -13.724300 -35.489000
O -1.816100 -14.131300 -33.064200
C -1.724700 -16.019600 -35.370400
H -1.679100 -12.753200 -37.303000
N -1.522900 -17.221500 -36.168400
H -1.319500 -11.808900 -36.054800
C -1.219300 -12.721000 -36.426300
C -1.215300 -19.655100 -37.546200
O -1.175100 -20.748200 -38.104700
C -1.004100 -14.096700 -34.234500
C -0.560000 -17.301900 -37.163400
C -0.556100 -15.542100 -34.518500
O -0.465100 -16.398200 -33.402000
C -0.341200 -18.538000 -37.824600
H -0.220800 -13.486100 -34.119100
H -0.123300 -15.376800 -37.224300
N 0.122400 -16.219700 -37.476300
O 0.169300 -13.029100 -36.593700
H 0.265500 -16.213800 -32.921200
H 0.294400 -15.552800 -35.044300
H 0.450800 -12.651300 -37.323000
N 0.578800 -18.768200 -38.810100
H 0.735600 -16.385500 -38.107700
N 1.365300 -17.803400 -39.122800
H 1.759800 -20.032800 -40.627400
C 2.271400 -18.095900 -40.177500
C 2.336600 -19.317000 -40.866300
H 3.096400 -16.235200 -40.043500
C 3.135500 -17.056100 -40.520000
C 3.240600 -19.469400 -41.889900
H 3.285300 -20.288200 -42.370700
C 4.050500 -17.210600 -41.548100
C 4.087600 -18.422100 -42.217300
H 4.638000 -16.503500 -41.788500
O 4.997700 -19.624300 -43.970000
N 5.056200 -18.589500 -43.304500
O 5.883200 -17.705900 -43.494000
90
Fragment
O -8.105000 -12.340600 -23.429100
N -7.278000 -13.224300 -23.618700
O -7.219500 -14.259000 -22.953100
H -6.859800 -11.138300 -25.134700
C -6.309400 -13.056900 -24.705800
C -6.272400 -11.845400 -25.375100
H -5.507100 -14.922900 -24.552400
C -5.462500 -14.104200 -25.033300
C -5.357400 -11.690900 -26.403200
H -5.318200 -10.870000 -26.879700
C -4.558500 -13.951800 -26.056900
C -4.493300 -12.730700 -26.745700
H -3.981700 -14.667500 -26.295800
N -3.587200 -12.438200 -27.800400
H -2.957500 -11.020200 -28.815400
N -2.800700 -13.402900 -28.113100
H -2.672600 -7.286000 -29.600100
H -2.516200 -10.187500 -31.878800
H -2.487400 -10.848500 -34.002000
O -2.391100 -7.663800 -30.329400
N -2.344300 -10.854400 -29.446900
H -2.098600 -10.011600 -29.698800
H -2.001000 -8.120800 -32.804100
C -1.880700 -13.172800 -29.098500
O -1.756800 -11.033000 -33.521100
C -1.665800 -10.176800 -32.404700
C -1.661800 -11.936600 -29.759700
C -1.217700 -8.731400 -32.688600
O -1.046700 -15.382900 -28.818400
C -1.006500 -14.289800 -29.376900
C -1.002500 -7.355800 -30.496900
H -0.902300 -6.443700 -30.868300
N -0.698900 -11.856200 -30.754700
H -0.542700 -7.387900 -29.620200
C -0.497100 -10.654300 -31.552800
O -0.405800 -8.766100 -33.858900
C -0.386800 -8.359100 -31.434100
O -0.185600 -9.580900 -30.689300
N -0.037900 -14.066900 -30.339300
H -0.012000 -7.983500 -33.879800
C 0.175600 -12.920600 -31.040100
H 0.286500 -10.807800 -32.154900
H 0.500500 -14.765200 -30.560500
H 0.504000 -8.014600 -31.731600
O 1.065100 -12.814100 -31.860900
O -3.286900 -18.179400 -35.062200
H -2.725800 -13.379900 -35.191500
H -2.722300 -20.130400 -36.362700
H -2.508300 -16.173000 -34.768200
C -2.397400 -18.285800 -35.883000
H -2.209800 -13.348700 -33.043300
N -2.183900 -19.432200 -36.583900
O -2.036200 -14.946200 -36.233900
C -1.835000 -13.724300 -35.489000
O -1.816100 -14.131300 -33.064200
C -1.724700 -16.019600 -35.370400
H -1.679100 -12.753200 -37.303000
N -1.522900 -17.221500 -36.168400
H -1.319500 -11.808900 -36.054800
C -1.219300 -12.721000 -36.426300
C -1.215300 -19.655100 -37.546200
O -1.175100 -20.748200 -38.104700
C -1.004100 -14.096700 -34.234500
C -0.560000 -17.301900 -37.163400
C -0.556100 -15.542100 -34.518500
O -0.465100 -16.398200 -33.402000
C -0.341200 -18.538000 -37.824600
H -0.220800 -13.486100 -34.119100
H -0.123300 -15.376800 -37.224300
N 0.122400 -16.219700 -37.476300
O 0.169300 -13.029100 -36.593700
H 0.265500 -16.213800 -32.921200
H 0.294400 -15.552800 -35.044300
H 0.450800 -12.651300 -37.323000
N 0.578800 -18.768200 -38.810100
H 0.735600 -16.385500 -38.107700
N 1.365300 -17.803400 -39.122800
H 1.759800 -20.032800 -40.627400
C 2.271400 -18.095900 -40.177500
C 2.336600 -19.317000 -40.866300
H 3.096400 -16.235200 -40.043500
C 3.135500 -17.056100 -40.520000
C 3.240600 -19.469400 -41.889900
H 3.285300 -20.288200 -42.370700
C 4.050500 -17.210600 -41.548100
C 4.087600 -18.422100 -42.217300
H 4.638000 -16.503500 -41.788500
O 4.997700 -19.624300 -43.970000
N 5.056200 -18.589500 -43.304500
O 5.883200 -17.705900 -43.494000
