45
Fragment
O -8.105000 -12.340600 -23.429100
N -7.278000 -13.224300 -23.618700
O -7.219500 -14.259000 -22.953100
H -6.859800 -11.138300 -25.134700
C -6.309400 -13.056900 -24.705800
C -6.272400 -11.845400 -25.375100
H -5.507100 -14.922900 -24.552400
C -5.462500 -14.104200 -25.033300
C -5.357400 -11.690900 -26.403200
H -5.318200 -10.870000 -26.879700
C -4.558500 -13.951800 -26.056900
C -4.493300 -12.730700 -26.745700
H -3.981700 -14.667500 -26.295800
N -3.587200 -12.438200 -27.800400
H -2.957500 -11.020200 -28.815400
N -2.800700 -13.402900 -28.113100
H -2.672600 -7.286000 -29.600100
H -2.516200 -10.187500 -31.878800
H -2.487400 -10.848500 -34.002000
O -2.391100 -7.663800 -30.329400
N -2.344300 -10.854400 -29.446900
H -2.098600 -10.011600 -29.698800
H -2.001000 -8.120800 -32.804100
C -1.880700 -13.172800 -29.098500
O -1.756800 -11.033000 -33.521100
C -1.665800 -10.176800 -32.404700
C -1.661800 -11.936600 -29.759700
C -1.217700 -8.731400 -32.688600
O -1.046700 -15.382900 -28.818400
C -1.006500 -14.289800 -29.376900
C -1.002500 -7.355800 -30.496900
H -0.902300 -6.443700 -30.868300
N -0.698900 -11.856200 -30.754700
H -0.542700 -7.387900 -29.620200
C -0.497100 -10.654300 -31.552800
O -0.405800 -8.766100 -33.858900
C -0.386800 -8.359100 -31.434100
O -0.185600 -9.580900 -30.689300
N -0.037900 -14.066900 -30.339300
H -0.012000 -7.983500 -33.879800
C 0.175600 -12.920600 -31.040100
H 0.286500 -10.807800 -32.154900
H 0.500500 -14.765200 -30.560500
H 0.504000 -8.014600 -31.731600
O 1.065100 -12.814100 -31.860900
45
Fragment
O -8.105000 -1.610100 -23.429100
N -7.278000 -2.493800 -23.618700
O -7.219500 -3.528500 -22.953100
H -6.859800 -0.407800 -25.134700
C -6.309400 -2.326400 -24.705800
C -6.272400 -1.114900 -25.375100
H -5.507100 -4.192400 -24.552400
C -5.462500 -3.373700 -25.033300
C -5.357400 -0.960400 -26.403200
H -5.318200 -0.139500 -26.879700
C -4.558500 -3.221300 -26.056900
C -4.493300 -2.000200 -26.745700
H -3.981700 -3.937000 -26.295800
N -3.587200 -1.707700 -27.800400
H -2.957500 -0.289700 -28.815400
N -2.800700 -2.672400 -28.113100
H -2.672600 3.444500 -29.600100
H -2.516200 0.543000 -31.878800
H -2.487400 -0.118000 -34.002000
O -2.391100 3.066700 -30.329400
N -2.344300 -0.123900 -29.446900
H -2.098600 0.718900 -29.698800
H -2.001000 2.609700 -32.804100
C -1.880700 -2.442300 -29.098500
O -1.756800 -0.302500 -33.521100
C -1.665800 0.553700 -32.404700
C -1.661800 -1.206100 -29.759700
C -1.217700 1.999100 -32.688600
O -1.046700 -4.652400 -28.818400
C -1.006500 -3.559300 -29.376900
C -1.002500 3.374700 -30.496900
H -0.902300 4.286800 -30.868300
N -0.698900 -1.125700 -30.754700
H -0.542700 3.342600 -29.620200
C -0.497100 0.076200 -31.552800
O -0.405800 1.964400 -33.858900
C -0.386800 2.371400 -31.434100
O -0.185600 1.149600 -30.689300
N -0.037900 -3.336400 -30.339300
H -0.012000 2.747000 -33.879800
C 0.175600 -2.190100 -31.040100
H 0.286500 -0.077300 -32.154900
H 0.500500 -4.034700 -30.560500
H 0.504000 2.715900 -31.731600
O 1.065100 -2.083600 -31.860900
90
Fragment
O -8.105000 -12.340600 -23.429100
N -7.278000 -13.224300 -23.618700
O -7.219500 -14.259000 -22.953100
H -6.859800 -11.138300 -25.134700
C -6.309400 -13.056900 -24.705800
C -6.272400 -11.845400 -25.375100
H -5.507100 -14.922900 -24.552400
C -5.462500 -14.104200 -25.033300
C -5.357400 -11.690900 -26.403200
H -5.318200 -10.870000 -26.879700
C -4.558500 -13.951800 -26.056900
C -4.493300 -12.730700 -26.745700
H -3.981700 -14.667500 -26.295800
N -3.587200 -12.438200 -27.800400
H -2.957500 -11.020200 -28.815400
N -2.800700 -13.402900 -28.113100
H -2.672600 -7.286000 -29.600100
H -2.516200 -10.187500 -31.878800
H -2.487400 -10.848500 -34.002000
O -2.391100 -7.663800 -30.329400
N -2.344300 -10.854400 -29.446900
H -2.098600 -10.011600 -29.698800
H -2.001000 -8.120800 -32.804100
C -1.880700 -13.172800 -29.098500
O -1.756800 -11.033000 -33.521100
C -1.665800 -10.176800 -32.404700
C -1.661800 -11.936600 -29.759700
C -1.217700 -8.731400 -32.688600
O -1.046700 -15.382900 -28.818400
C -1.006500 -14.289800 -29.376900
C -1.002500 -7.355800 -30.496900
H -0.902300 -6.443700 -30.868300
N -0.698900 -11.856200 -30.754700
H -0.542700 -7.387900 -29.620200
C -0.497100 -10.654300 -31.552800
O -0.405800 -8.766100 -33.858900
C -0.386800 -8.359100 -31.434100
O -0.185600 -9.580900 -30.689300
N -0.037900 -14.066900 -30.339300
H -0.012000 -7.983500 -33.879800
C 0.175600 -12.920600 -31.040100
H 0.286500 -10.807800 -32.154900
H 0.500500 -14.765200 -30.560500
H 0.504000 -8.014600 -31.731600
O 1.065100 -12.814100 -31.860900
O -8.105000 -1.610100 -23.429100
N -7.278000 -2.493800 -23.618700
O -7.219500 -3.528500 -22.953100
H -6.859800 -0.407800 -25.134700
C -6.309400 -2.326400 -24.705800
C -6.272400 -1.114900 -25.375100
H -5.507100 -4.192400 -24.552400
C -5.462500 -3.373700 -25.033300
C -5.357400 -0.960400 -26.403200
H -5.318200 -0.139500 -26.879700
C -4.558500 -3.221300 -26.056900
C -4.493300 -2.000200 -26.745700
H -3.981700 -3.937000 -26.295800
N -3.587200 -1.707700 -27.800400
H -2.957500 -0.289700 -28.815400
N -2.800700 -2.672400 -28.113100
H -2.672600 3.444500 -29.600100
H -2.516200 0.543000 -31.878800
H -2.487400 -0.118000 -34.002000
O -2.391100 3.066700 -30.329400
N -2.344300 -0.123900 -29.446900
H -2.098600 0.718900 -29.698800
H -2.001000 2.609700 -32.804100
C -1.880700 -2.442300 -29.098500
O -1.756800 -0.302500 -33.521100
C -1.665800 0.553700 -32.404700
C -1.661800 -1.206100 -29.759700
C -1.217700 1.999100 -32.688600
O -1.046700 -4.652400 -28.818400
C -1.006500 -3.559300 -29.376900
C -1.002500 3.374700 -30.496900
H -0.902300 4.286800 -30.868300
N -0.698900 -1.125700 -30.754700
H -0.542700 3.342600 -29.620200
C -0.497100 0.076200 -31.552800
O -0.405800 1.964400 -33.858900
C -0.386800 2.371400 -31.434100
O -0.185600 1.149600 -30.689300
N -0.037900 -3.336400 -30.339300
H -0.012000 2.747000 -33.879800
C 0.175600 -2.190100 -31.040100
H 0.286500 -0.077300 -32.154900
H 0.500500 -4.034700 -30.560500
H 0.504000 2.715900 -31.731600
O 1.065100 -2.083600 -31.860900
