45
Fragment
O -8.105000 -12.340600 -23.429100
N -7.278000 -13.224300 -23.618700
O -7.219500 -14.259000 -22.953100
H -6.859800 -11.138300 -25.134700
C -6.309400 -13.056900 -24.705800
C -6.272400 -11.845400 -25.375100
H -5.507100 -14.922900 -24.552400
C -5.462500 -14.104200 -25.033300
C -5.357400 -11.690900 -26.403200
H -5.318200 -10.870000 -26.879700
C -4.558500 -13.951800 -26.056900
C -4.493300 -12.730700 -26.745700
H -3.981700 -14.667500 -26.295800
N -3.587200 -12.438200 -27.800400
H -2.957500 -11.020200 -28.815400
N -2.800700 -13.402900 -28.113100
H -2.672600 -7.286000 -29.600100
H -2.516200 -10.187500 -31.878800
H -2.487400 -10.848500 -34.002000
O -2.391100 -7.663800 -30.329400
N -2.344300 -10.854400 -29.446900
H -2.098600 -10.011600 -29.698800
H -2.001000 -8.120800 -32.804100
C -1.880700 -13.172800 -29.098500
O -1.756800 -11.033000 -33.521100
C -1.665800 -10.176800 -32.404700
C -1.661800 -11.936600 -29.759700
C -1.217700 -8.731400 -32.688600
O -1.046700 -15.382900 -28.818400
C -1.006500 -14.289800 -29.376900
C -1.002500 -7.355800 -30.496900
H -0.902300 -6.443700 -30.868300
N -0.698900 -11.856200 -30.754700
H -0.542700 -7.387900 -29.620200
C -0.497100 -10.654300 -31.552800
O -0.405800 -8.766100 -33.858900
C -0.386800 -8.359100 -31.434100
O -0.185600 -9.580900 -30.689300
N -0.037900 -14.066900 -30.339300
H -0.012000 -7.983500 -33.879800
C 0.175600 -12.920600 -31.040100
H 0.286500 -10.807800 -32.154900
H 0.500500 -14.765200 -30.560500
H 0.504000 -8.014600 -31.731600
O 1.065100 -12.814100 -31.860900
45
Fragment
O 1.692100 -7.448900 -35.062200
H 2.253200 -2.649400 -35.191500
H 2.256700 -9.399900 -36.362700
H 2.470700 -5.442500 -34.768200
C 2.581600 -7.555300 -35.883000
H 2.769200 -2.618200 -33.043300
N 2.795100 -8.701700 -36.583900
O 2.942800 -4.215700 -36.233900
C 3.144000 -2.993800 -35.489000
O 3.162900 -3.400800 -33.064200
C 3.254300 -5.289100 -35.370400
H 3.299900 -2.022700 -37.303000
N 3.456100 -6.491000 -36.168400
H 3.659500 -1.078400 -36.054800
C 3.759700 -1.990500 -36.426300
C 3.763700 -8.924600 -37.546200
O 3.803900 -10.017700 -38.104700
C 3.974900 -3.366200 -34.234500
C 4.419000 -6.571400 -37.163400
C 4.422900 -4.811600 -34.518500
O 4.513900 -5.667700 -33.402000
C 4.637800 -7.807500 -37.824600
H 4.758200 -2.755600 -34.119100
H 4.855700 -4.646300 -37.224300
N 5.101400 -5.489200 -37.476300
O 5.148300 -2.298600 -36.593700
H 5.244500 -5.483300 -32.921200
H 5.273400 -4.822300 -35.044300
H 5.429800 -1.920800 -37.323000
N 5.557800 -8.037700 -38.810100
H 5.714600 -5.655000 -38.107700
N 6.344300 -7.072900 -39.122800
H 6.738800 -9.302300 -40.627400
C 7.250400 -7.365400 -40.177500
C 7.315600 -8.586500 -40.866300
H 8.075400 -5.504700 -40.043500
C 8.114500 -6.325600 -40.520000
C 8.219600 -8.738900 -41.889900
H 8.264300 -9.557700 -42.370700
C 9.029500 -6.480100 -41.548100
C 9.066600 -7.691600 -42.217300
H 9.617000 -5.773000 -41.788500
O 9.976700 -8.893800 -43.970000
N 10.035200 -7.859000 -43.304500
O 10.862200 -6.975400 -43.494000
90
Fragment
O -8.105000 -12.340600 -23.429100
N -7.278000 -13.224300 -23.618700
O -7.219500 -14.259000 -22.953100
H -6.859800 -11.138300 -25.134700
C -6.309400 -13.056900 -24.705800
C -6.272400 -11.845400 -25.375100
H -5.507100 -14.922900 -24.552400
C -5.462500 -14.104200 -25.033300
C -5.357400 -11.690900 -26.403200
H -5.318200 -10.870000 -26.879700
C -4.558500 -13.951800 -26.056900
C -4.493300 -12.730700 -26.745700
H -3.981700 -14.667500 -26.295800
N -3.587200 -12.438200 -27.800400
H -2.957500 -11.020200 -28.815400
N -2.800700 -13.402900 -28.113100
H -2.672600 -7.286000 -29.600100
H -2.516200 -10.187500 -31.878800
H -2.487400 -10.848500 -34.002000
O -2.391100 -7.663800 -30.329400
N -2.344300 -10.854400 -29.446900
H -2.098600 -10.011600 -29.698800
H -2.001000 -8.120800 -32.804100
C -1.880700 -13.172800 -29.098500
O -1.756800 -11.033000 -33.521100
C -1.665800 -10.176800 -32.404700
C -1.661800 -11.936600 -29.759700
C -1.217700 -8.731400 -32.688600
O -1.046700 -15.382900 -28.818400
C -1.006500 -14.289800 -29.376900
C -1.002500 -7.355800 -30.496900
H -0.902300 -6.443700 -30.868300
N -0.698900 -11.856200 -30.754700
H -0.542700 -7.387900 -29.620200
C -0.497100 -10.654300 -31.552800
O -0.405800 -8.766100 -33.858900
C -0.386800 -8.359100 -31.434100
O -0.185600 -9.580900 -30.689300
N -0.037900 -14.066900 -30.339300
H -0.012000 -7.983500 -33.879800
C 0.175600 -12.920600 -31.040100
H 0.286500 -10.807800 -32.154900
H 0.500500 -14.765200 -30.560500
H 0.504000 -8.014600 -31.731600
O 1.065100 -12.814100 -31.860900
O 1.692100 -7.448900 -35.062200
H 2.253200 -2.649400 -35.191500
H 2.256700 -9.399900 -36.362700
H 2.470700 -5.442500 -34.768200
C 2.581600 -7.555300 -35.883000
H 2.769200 -2.618200 -33.043300
N 2.795100 -8.701700 -36.583900
O 2.942800 -4.215700 -36.233900
C 3.144000 -2.993800 -35.489000
O 3.162900 -3.400800 -33.064200
C 3.254300 -5.289100 -35.370400
H 3.299900 -2.022700 -37.303000
N 3.456100 -6.491000 -36.168400
H 3.659500 -1.078400 -36.054800
C 3.759700 -1.990500 -36.426300
C 3.763700 -8.924600 -37.546200
O 3.803900 -10.017700 -38.104700
C 3.974900 -3.366200 -34.234500
C 4.419000 -6.571400 -37.163400
C 4.422900 -4.811600 -34.518500
O 4.513900 -5.667700 -33.402000
C 4.637800 -7.807500 -37.824600
H 4.758200 -2.755600 -34.119100
H 4.855700 -4.646300 -37.224300
N 5.101400 -5.489200 -37.476300
O 5.148300 -2.298600 -36.593700
H 5.244500 -5.483300 -32.921200
H 5.273400 -4.822300 -35.044300
H 5.429800 -1.920800 -37.323000
N 5.557800 -8.037700 -38.810100
H 5.714600 -5.655000 -38.107700
N 6.344300 -7.072900 -39.122800
H 6.738800 -9.302300 -40.627400
C 7.250400 -7.365400 -40.177500
C 7.315600 -8.586500 -40.866300
H 8.075400 -5.504700 -40.043500
C 8.114500 -6.325600 -40.520000
C 8.219600 -8.738900 -41.889900
H 8.264300 -9.557700 -42.370700
C 9.029500 -6.480100 -41.548100
C 9.066600 -7.691600 -42.217300
H 9.617000 -5.773000 -41.788500
O 9.976700 -8.893800 -43.970000
N 10.035200 -7.859000 -43.304500
O 10.862200 -6.975400 -43.494000
