34
Fragment
H -19.080400 -20.019300 -24.300300
H -18.715400 -24.259600 -27.295500
N -18.709500 -20.027800 -26.246600
F -18.592800 -22.282300 -28.850100
C -18.515400 -19.725900 -24.978600
H -18.257900 -19.838200 -28.722200
C -17.945500 -23.755500 -27.161900
N -17.670400 -19.389900 -26.861300
C -17.668400 -22.639000 -27.920600
C -17.437500 -19.546500 -28.294400
N -17.429900 -18.956400 -24.741200
F -17.294600 -25.135900 -25.388800
H -17.190200 -18.688800 -28.675000
H -17.161900 -21.224300 -30.364000
C -17.028300 -24.083200 -26.201500
C -16.929400 -18.759000 -25.950500
N -16.756800 -18.777000 -31.187100
C -16.525400 -21.856000 -27.776000
H -16.321500 -17.138600 -32.214200
C -16.315800 -20.576500 -28.584000
C -16.282200 -20.923700 -30.086800
H -16.171400 -18.253400 -26.137500
C -16.002000 -17.945800 -31.879200
N -15.887300 -19.790200 -30.905000
C -15.858800 -23.388500 -26.011200
H -15.659100 -21.653100 -30.230400
C -15.621300 -22.277700 -26.811100
H -15.243700 -23.653300 -25.365500
O -15.066100 -19.963400 -28.323400
H -14.831200 -21.800900 -26.696100
H -14.787200 -20.092000 -27.530000
N -14.719500 -18.361200 -32.064500
C -14.693400 -19.516700 -31.423900
H -13.944600 -20.062300 -31.346100
34
Fragment
H -22.837300 -15.427100 -17.515100
C -22.088500 -15.972700 -17.437300
N -22.062400 -17.128200 -16.796700
H -21.994700 -15.397400 -21.331200
H -21.950700 -13.688500 -22.165100
O -21.715800 -15.525900 -20.537800
H -21.538200 -11.836100 -23.495700
C -21.160600 -13.211700 -22.050100
H -21.122800 -13.836200 -18.630800
C -20.923100 -12.100900 -22.849900
N -20.894600 -15.699200 -17.956200
C -20.779900 -17.543600 -16.982000
H -20.610500 -17.236000 -22.723700
C -20.499700 -14.565700 -18.774400
C -20.466100 -14.912800 -20.277200
H -20.460400 -18.350800 -16.647000
C -20.256500 -13.633400 -21.085200
N -20.025100 -16.712400 -17.674100
C -19.852500 -16.730400 -22.910700
C -19.753600 -11.406200 -22.659700
H -19.620000 -14.265100 -18.497200
H -19.591600 -16.800600 -20.186200
F -19.487300 -10.353500 -23.472400
N -19.352000 -16.533000 -24.120000
C -19.344400 -15.942800 -20.566800
C -19.113500 -12.850400 -20.940600
N -19.111500 -16.099500 -21.999900
C -18.836400 -11.733900 -21.699200
H -18.524000 -15.651200 -20.138900
C -18.266500 -15.763500 -23.882500
F -18.189100 -13.207100 -20.011100
N -18.072400 -15.461600 -22.614600
H -18.066500 -11.229800 -21.565700
H -17.701500 -15.470100 -24.560900
68
Fragment
H -19.080400 -20.019300 -24.300300
H -18.715400 -24.259600 -27.295500
N -18.709500 -20.027800 -26.246600
F -18.592800 -22.282300 -28.850100
C -18.515400 -19.725900 -24.978600
H -18.257900 -19.838200 -28.722200
C -17.945500 -23.755500 -27.161900
N -17.670400 -19.389900 -26.861300
C -17.668400 -22.639000 -27.920600
C -17.437500 -19.546500 -28.294400
N -17.429900 -18.956400 -24.741200
F -17.294600 -25.135900 -25.388800
H -17.190200 -18.688800 -28.675000
H -17.161900 -21.224300 -30.364000
C -17.028300 -24.083200 -26.201500
C -16.929400 -18.759000 -25.950500
N -16.756800 -18.777000 -31.187100
C -16.525400 -21.856000 -27.776000
H -16.321500 -17.138600 -32.214200
C -16.315800 -20.576500 -28.584000
C -16.282200 -20.923700 -30.086800
H -16.171400 -18.253400 -26.137500
C -16.002000 -17.945800 -31.879200
N -15.887300 -19.790200 -30.905000
C -15.858800 -23.388500 -26.011200
H -15.659100 -21.653100 -30.230400
C -15.621300 -22.277700 -26.811100
H -15.243700 -23.653300 -25.365500
O -15.066100 -19.963400 -28.323400
H -14.831200 -21.800900 -26.696100
H -14.787200 -20.092000 -27.530000
N -14.719500 -18.361200 -32.064500
C -14.693400 -19.516700 -31.423900
H -13.944600 -20.062300 -31.346100
H -22.837300 -15.427100 -17.515100
C -22.088500 -15.972700 -17.437300
N -22.062400 -17.128200 -16.796700
H -21.994700 -15.397400 -21.331200
H -21.950700 -13.688500 -22.165100
O -21.715800 -15.525900 -20.537800
H -21.538200 -11.836100 -23.495700
C -21.160600 -13.211700 -22.050100
H -21.122800 -13.836200 -18.630800
C -20.923100 -12.100900 -22.849900
N -20.894600 -15.699200 -17.956200
C -20.779900 -17.543600 -16.982000
H -20.610500 -17.236000 -22.723700
C -20.499700 -14.565700 -18.774400
C -20.466100 -14.912800 -20.277200
H -20.460400 -18.350800 -16.647000
C -20.256500 -13.633400 -21.085200
N -20.025100 -16.712400 -17.674100
C -19.852500 -16.730400 -22.910700
C -19.753600 -11.406200 -22.659700
H -19.620000 -14.265100 -18.497200
H -19.591600 -16.800600 -20.186200
F -19.487300 -10.353500 -23.472400
N -19.352000 -16.533000 -24.120000
C -19.344400 -15.942800 -20.566800
C -19.113500 -12.850400 -20.940600
N -19.111500 -16.099500 -21.999900
C -18.836400 -11.733900 -21.699200
H -18.524000 -15.651200 -20.138900
C -18.266500 -15.763500 -23.882500
F -18.189100 -13.207100 -20.011100
N -18.072400 -15.461600 -22.614600
H -18.066500 -11.229800 -21.565700
H -17.701500 -15.470100 -24.560900
