34
Fragment
H -18.266800 -19.787400 -9.070400
C -17.676300 -20.500800 -8.980900
H -17.540200 -20.017300 -11.586800
N -17.489400 -21.186100 -7.867300
N -16.904600 -20.971000 -9.954800
H -16.722600 -15.946100 -14.106300
C -16.717400 -20.439000 -11.294000
C -16.545400 -22.096700 -8.235900
H -16.528300 -17.022100 -12.064800
H -16.524200 -21.169600 -11.902800
C -16.338900 -16.791200 -14.049700
C -16.218300 -17.445200 -12.832800
H -16.202400 -22.728900 -7.645500
N -16.156800 -22.014100 -9.486100
F -15.996100 -16.828300 -16.379300
C -15.873200 -17.434700 -15.167900
O -15.827600 -18.497200 -10.307300
C -15.650200 -18.713500 -12.716200
C -15.569600 -19.409000 -11.356400
H -15.319000 -17.857200 -10.370200
C -15.304500 -18.679600 -15.129300
C -15.224500 -19.293800 -13.899700
H -14.985100 -19.091600 -15.899400
F -14.699400 -20.545100 -13.879600
H -14.290200 -20.562600 -10.210100
C -14.240900 -20.138300 -11.080500
H -14.122600 -20.837100 -11.742700
N -13.083100 -19.260400 -11.110300
N -12.575200 -18.776000 -12.282700
H -12.471900 -19.092800 -9.200700
C -12.317500 -18.872700 -10.090900
C -11.522800 -18.110600 -11.859600
N -11.307000 -18.131500 -10.519700
H -10.960200 -17.653300 -12.442300
34
Fragment
H -16.555900 -12.721900 -19.328800
C -15.965500 -13.435300 -19.239200
H -15.829400 -12.951800 -21.845200
N -15.778500 -14.120600 -18.125700
N -15.193700 -13.905500 -20.213100
H -15.011700 -8.880600 -24.364600
C -15.006500 -13.373600 -21.552400
C -14.834600 -15.031200 -18.494300
H -14.817500 -9.956600 -22.323200
H -14.813400 -14.104100 -22.161100
C -14.628100 -9.725700 -24.308100
C -14.507500 -10.379700 -23.091100
H -14.491600 -15.663500 -17.903900
N -14.446000 -14.948600 -19.744400
F -14.285300 -9.762800 -26.637600
C -14.162400 -10.369200 -25.426200
O -14.116800 -11.431800 -20.565600
C -13.939400 -11.648000 -22.974600
C -13.858700 -12.343500 -21.614700
H -13.608100 -10.791800 -20.628500
C -13.593600 -11.614100 -25.387700
C -13.513700 -12.228300 -24.158000
H -13.274300 -12.026100 -26.157800
F -12.988600 -13.479600 -24.138000
H -12.579400 -13.497100 -20.468500
C -12.530100 -13.072800 -21.338800
H -12.411700 -13.771600 -22.001100
N -11.372200 -12.194900 -21.368700
N -10.864300 -11.710600 -22.541100
H -10.761000 -12.027300 -19.459100
C -10.606700 -11.807200 -20.349300
C -9.811900 -11.045100 -22.117900
N -9.596100 -11.066000 -20.778100
H -9.249400 -10.587800 -22.700700
68
Fragment
H -18.266800 -19.787400 -9.070400
C -17.676300 -20.500800 -8.980900
H -17.540200 -20.017300 -11.586800
N -17.489400 -21.186100 -7.867300
N -16.904600 -20.971000 -9.954800
H -16.722600 -15.946100 -14.106300
C -16.717400 -20.439000 -11.294000
C -16.545400 -22.096700 -8.235900
H -16.528300 -17.022100 -12.064800
H -16.524200 -21.169600 -11.902800
C -16.338900 -16.791200 -14.049700
C -16.218300 -17.445200 -12.832800
H -16.202400 -22.728900 -7.645500
N -16.156800 -22.014100 -9.486100
F -15.996100 -16.828300 -16.379300
C -15.873200 -17.434700 -15.167900
O -15.827600 -18.497200 -10.307300
C -15.650200 -18.713500 -12.716200
C -15.569600 -19.409000 -11.356400
H -15.319000 -17.857200 -10.370200
C -15.304500 -18.679600 -15.129300
C -15.224500 -19.293800 -13.899700
H -14.985100 -19.091600 -15.899400
F -14.699400 -20.545100 -13.879600
H -14.290200 -20.562600 -10.210100
C -14.240900 -20.138300 -11.080500
H -14.122600 -20.837100 -11.742700
N -13.083100 -19.260400 -11.110300
N -12.575200 -18.776000 -12.282700
H -12.471900 -19.092800 -9.200700
C -12.317500 -18.872700 -10.090900
C -11.522800 -18.110600 -11.859600
N -11.307000 -18.131500 -10.519700
H -10.960200 -17.653300 -12.442300
H -16.555900 -12.721900 -19.328800
C -15.965500 -13.435300 -19.239200
H -15.829400 -12.951800 -21.845200
N -15.778500 -14.120600 -18.125700
N -15.193700 -13.905500 -20.213100
H -15.011700 -8.880600 -24.364600
C -15.006500 -13.373600 -21.552400
C -14.834600 -15.031200 -18.494300
H -14.817500 -9.956600 -22.323200
H -14.813400 -14.104100 -22.161100
C -14.628100 -9.725700 -24.308100
C -14.507500 -10.379700 -23.091100
H -14.491600 -15.663500 -17.903900
N -14.446000 -14.948600 -19.744400
F -14.285300 -9.762800 -26.637600
C -14.162400 -10.369200 -25.426200
O -14.116800 -11.431800 -20.565600
C -13.939400 -11.648000 -22.974600
C -13.858700 -12.343500 -21.614700
H -13.608100 -10.791800 -20.628500
C -13.593600 -11.614100 -25.387700
C -13.513700 -12.228300 -24.158000
H -13.274300 -12.026100 -26.157800
F -12.988600 -13.479600 -24.138000
H -12.579400 -13.497100 -20.468500
C -12.530100 -13.072800 -21.338800
H -12.411700 -13.771600 -22.001100
N -11.372200 -12.194900 -21.368700
N -10.864300 -11.710600 -22.541100
H -10.761000 -12.027300 -19.459100
C -10.606700 -11.807200 -20.349300
C -9.811900 -11.045100 -22.117900
N -9.596100 -11.066000 -20.778100
H -9.249400 -10.587800 -22.700700
