34
Fragment
H -19.080400 -20.019300 -24.300300
H -18.715400 -24.259600 -27.295500
N -18.709500 -20.027800 -26.246600
F -18.592800 -22.282300 -28.850100
C -18.515400 -19.725900 -24.978600
H -18.257900 -19.838200 -28.722200
C -17.945500 -23.755500 -27.161900
N -17.670400 -19.389900 -26.861300
C -17.668400 -22.639000 -27.920600
C -17.437500 -19.546500 -28.294400
N -17.429900 -18.956400 -24.741200
F -17.294600 -25.135900 -25.388800
H -17.190200 -18.688800 -28.675000
H -17.161900 -21.224300 -30.364000
C -17.028300 -24.083200 -26.201500
C -16.929400 -18.759000 -25.950500
N -16.756800 -18.777000 -31.187100
C -16.525400 -21.856000 -27.776000
H -16.321500 -17.138600 -32.214200
C -16.315800 -20.576500 -28.584000
C -16.282200 -20.923700 -30.086800
H -16.171400 -18.253400 -26.137500
C -16.002000 -17.945800 -31.879200
N -15.887300 -19.790200 -30.905000
C -15.858800 -23.388500 -26.011200
H -15.659100 -21.653100 -30.230400
C -15.621300 -22.277700 -26.811100
H -15.243700 -23.653300 -25.365500
O -15.066100 -19.963400 -28.323400
H -14.831200 -21.800900 -26.696100
H -14.787200 -20.092000 -27.530000
N -14.719500 -18.361200 -32.064500
C -14.693400 -19.516700 -31.423900
H -13.944600 -20.062300 -31.346100
17
Fragment
O -19.880300 -15.366500 -33.695200
H -19.258400 -17.501500 -33.043200
H -18.943600 -13.662900 -35.476500
C -18.873300 -15.918900 -34.054000
O -18.557900 -17.149200 -33.662100
O -18.421700 -14.064100 -37.978700
C -18.036600 -13.824500 -35.172200
H -17.925200 -13.373700 -34.320100
H -17.887900 -15.761600 -35.829900
C -17.844100 -15.316700 -34.968500
C -17.472700 -13.414300 -37.616300
C -17.061200 -13.220600 -36.182400
H -16.990700 -12.923600 -39.380500
H -16.978700 -12.270700 -36.007400
H -16.961400 -15.474500 -34.598600
O -16.688700 -12.763500 -38.464000
H -16.187800 -13.621300 -36.051400
51
Fragment
H -19.080400 -20.019300 -24.300300
H -18.715400 -24.259600 -27.295500
N -18.709500 -20.027800 -26.246600
F -18.592800 -22.282300 -28.850100
C -18.515400 -19.725900 -24.978600
H -18.257900 -19.838200 -28.722200
C -17.945500 -23.755500 -27.161900
N -17.670400 -19.389900 -26.861300
C -17.668400 -22.639000 -27.920600
C -17.437500 -19.546500 -28.294400
N -17.429900 -18.956400 -24.741200
F -17.294600 -25.135900 -25.388800
H -17.190200 -18.688800 -28.675000
H -17.161900 -21.224300 -30.364000
C -17.028300 -24.083200 -26.201500
C -16.929400 -18.759000 -25.950500
N -16.756800 -18.777000 -31.187100
C -16.525400 -21.856000 -27.776000
H -16.321500 -17.138600 -32.214200
C -16.315800 -20.576500 -28.584000
C -16.282200 -20.923700 -30.086800
H -16.171400 -18.253400 -26.137500
C -16.002000 -17.945800 -31.879200
N -15.887300 -19.790200 -30.905000
C -15.858800 -23.388500 -26.011200
H -15.659100 -21.653100 -30.230400
C -15.621300 -22.277700 -26.811100
H -15.243700 -23.653300 -25.365500
O -15.066100 -19.963400 -28.323400
H -14.831200 -21.800900 -26.696100
H -14.787200 -20.092000 -27.530000
N -14.719500 -18.361200 -32.064500
C -14.693400 -19.516700 -31.423900
H -13.944600 -20.062300 -31.346100
O -19.880300 -15.366500 -33.695200
H -19.258400 -17.501500 -33.043200
H -18.943600 -13.662900 -35.476500
C -18.873300 -15.918900 -34.054000
O -18.557900 -17.149200 -33.662100
O -18.421700 -14.064100 -37.978700
C -18.036600 -13.824500 -35.172200
H -17.925200 -13.373700 -34.320100
H -17.887900 -15.761600 -35.829900
C -17.844100 -15.316700 -34.968500
C -17.472700 -13.414300 -37.616300
C -17.061200 -13.220600 -36.182400
H -16.990700 -12.923600 -39.380500
H -16.978700 -12.270700 -36.007400
H -16.961400 -15.474500 -34.598600
O -16.688700 -12.763500 -38.464000
H -16.187800 -13.621300 -36.051400
