34
Fragment
H -18.266800 -19.787400 -9.070400
C -17.676300 -20.500800 -8.980900
H -17.540200 -20.017300 -11.586800
N -17.489400 -21.186100 -7.867300
N -16.904600 -20.971000 -9.954800
H -16.722600 -15.946100 -14.106300
C -16.717400 -20.439000 -11.294000
C -16.545400 -22.096700 -8.235900
H -16.528300 -17.022100 -12.064800
H -16.524200 -21.169600 -11.902800
C -16.338900 -16.791200 -14.049700
C -16.218300 -17.445200 -12.832800
H -16.202400 -22.728900 -7.645500
N -16.156800 -22.014100 -9.486100
F -15.996100 -16.828300 -16.379300
C -15.873200 -17.434700 -15.167900
O -15.827600 -18.497200 -10.307300
C -15.650200 -18.713500 -12.716200
C -15.569600 -19.409000 -11.356400
H -15.319000 -17.857200 -10.370200
C -15.304500 -18.679600 -15.129300
C -15.224500 -19.293800 -13.899700
H -14.985100 -19.091600 -15.899400
F -14.699400 -20.545100 -13.879600
H -14.290200 -20.562600 -10.210100
C -14.240900 -20.138300 -11.080500
H -14.122600 -20.837100 -11.742700
N -13.083100 -19.260400 -11.110300
N -12.575200 -18.776000 -12.282700
H -12.471900 -19.092800 -9.200700
C -12.317500 -18.872700 -10.090900
C -11.522800 -18.110600 -11.859600
N -11.307000 -18.131500 -10.519700
H -10.960200 -17.653300 -12.442300
34
Fragment
H -19.977600 -26.852800 1.187900
C -19.387200 -27.566300 1.277500
H -19.251000 -27.082800 -1.328500
N -19.200200 -28.251600 2.391000
N -18.615400 -28.036400 0.303500
H -18.433400 -23.011600 -3.847900
C -18.428200 -27.504500 -1.035700
C -18.256200 -29.162200 2.022400
H -18.239100 -24.087500 -1.806500
H -18.235000 -28.235000 -1.644400
C -18.049700 -23.856600 -3.791400
C -17.929200 -24.510600 -2.574400
H -17.913200 -29.794400 2.612800
N -17.867700 -29.079500 0.772200
F -17.707000 -23.893800 -6.121000
C -17.584000 -24.500200 -4.909500
O -17.538400 -25.562700 -0.048900
C -17.361100 -25.778900 -2.457900
C -17.280400 -26.474500 -1.098100
H -17.029800 -24.922700 -0.111800
C -17.015300 -25.745100 -4.871000
C -16.935400 -26.359300 -3.641300
H -16.695900 -26.157100 -5.641100
F -16.410200 -27.610500 -3.621300
H -16.001100 -27.628000 0.048200
C -15.951800 -27.203800 -0.822100
H -15.833400 -27.902500 -1.484400
N -14.793900 -26.325800 -0.852000
N -14.286000 -25.841500 -2.024400
H -14.182700 -26.158300 1.057600
C -14.028300 -25.938100 0.167400
C -13.233600 -25.176100 -1.601200
N -13.017800 -25.197000 -0.261400
H -12.671000 -24.718800 -2.184000
68
Fragment
H -18.266800 -19.787400 -9.070400
C -17.676300 -20.500800 -8.980900
H -17.540200 -20.017300 -11.586800
N -17.489400 -21.186100 -7.867300
N -16.904600 -20.971000 -9.954800
H -16.722600 -15.946100 -14.106300
C -16.717400 -20.439000 -11.294000
C -16.545400 -22.096700 -8.235900
H -16.528300 -17.022100 -12.064800
H -16.524200 -21.169600 -11.902800
C -16.338900 -16.791200 -14.049700
C -16.218300 -17.445200 -12.832800
H -16.202400 -22.728900 -7.645500
N -16.156800 -22.014100 -9.486100
F -15.996100 -16.828300 -16.379300
C -15.873200 -17.434700 -15.167900
O -15.827600 -18.497200 -10.307300
C -15.650200 -18.713500 -12.716200
C -15.569600 -19.409000 -11.356400
H -15.319000 -17.857200 -10.370200
C -15.304500 -18.679600 -15.129300
C -15.224500 -19.293800 -13.899700
H -14.985100 -19.091600 -15.899400
F -14.699400 -20.545100 -13.879600
H -14.290200 -20.562600 -10.210100
C -14.240900 -20.138300 -11.080500
H -14.122600 -20.837100 -11.742700
N -13.083100 -19.260400 -11.110300
N -12.575200 -18.776000 -12.282700
H -12.471900 -19.092800 -9.200700
C -12.317500 -18.872700 -10.090900
C -11.522800 -18.110600 -11.859600
N -11.307000 -18.131500 -10.519700
H -10.960200 -17.653300 -12.442300
H -19.977600 -26.852800 1.187900
C -19.387200 -27.566300 1.277500
H -19.251000 -27.082800 -1.328500
N -19.200200 -28.251600 2.391000
N -18.615400 -28.036400 0.303500
H -18.433400 -23.011600 -3.847900
C -18.428200 -27.504500 -1.035700
C -18.256200 -29.162200 2.022400
H -18.239100 -24.087500 -1.806500
H -18.235000 -28.235000 -1.644400
C -18.049700 -23.856600 -3.791400
C -17.929200 -24.510600 -2.574400
H -17.913200 -29.794400 2.612800
N -17.867700 -29.079500 0.772200
F -17.707000 -23.893800 -6.121000
C -17.584000 -24.500200 -4.909500
O -17.538400 -25.562700 -0.048900
C -17.361100 -25.778900 -2.457900
C -17.280400 -26.474500 -1.098100
H -17.029800 -24.922700 -0.111800
C -17.015300 -25.745100 -4.871000
C -16.935400 -26.359300 -3.641300
H -16.695900 -26.157100 -5.641100
F -16.410200 -27.610500 -3.621300
H -16.001100 -27.628000 0.048200
C -15.951800 -27.203800 -0.822100
H -15.833400 -27.902500 -1.484400
N -14.793900 -26.325800 -0.852000
N -14.286000 -25.841500 -2.024400
H -14.182700 -26.158300 1.057600
C -14.028300 -25.938100 0.167400
C -13.233600 -25.176100 -1.601200
N -13.017800 -25.197000 -0.261400
H -12.671000 -24.718800 -2.184000
