34
Fragment
H -19.080400 -20.019300 -24.300300
H -18.715400 -24.259600 -27.295500
N -18.709500 -20.027800 -26.246600
F -18.592800 -22.282300 -28.850100
C -18.515400 -19.725900 -24.978600
H -18.257900 -19.838200 -28.722200
C -17.945500 -23.755500 -27.161900
N -17.670400 -19.389900 -26.861300
C -17.668400 -22.639000 -27.920600
C -17.437500 -19.546500 -28.294400
N -17.429900 -18.956400 -24.741200
F -17.294600 -25.135900 -25.388800
H -17.190200 -18.688800 -28.675000
H -17.161900 -21.224300 -30.364000
C -17.028300 -24.083200 -26.201500
C -16.929400 -18.759000 -25.950500
N -16.756800 -18.777000 -31.187100
C -16.525400 -21.856000 -27.776000
H -16.321500 -17.138600 -32.214200
C -16.315800 -20.576500 -28.584000
C -16.282200 -20.923700 -30.086800
H -16.171400 -18.253400 -26.137500
C -16.002000 -17.945800 -31.879200
N -15.887300 -19.790200 -30.905000
C -15.858800 -23.388500 -26.011200
H -15.659100 -21.653100 -30.230400
C -15.621300 -22.277700 -26.811100
H -15.243700 -23.653300 -25.365500
O -15.066100 -19.963400 -28.323400
H -14.831200 -21.800900 -26.696100
H -14.787200 -20.092000 -27.530000
N -14.719500 -18.361200 -32.064500
C -14.693400 -19.516700 -31.423900
H -13.944600 -20.062300 -31.346100
34
Fragment
H -13.107300 -20.241000 -33.802200
C -12.358500 -20.786600 -33.724300
N -12.332400 -21.942100 -33.083700
H -12.264700 -20.211300 -37.618200
H -12.220700 -18.502500 -38.452100
O -11.985800 -20.339900 -36.824900
H -11.808200 -16.650000 -39.782800
C -11.430600 -18.025700 -38.337100
H -11.392800 -18.650200 -34.917800
C -11.193000 -16.914800 -39.137000
N -11.164600 -20.513100 -34.243200
C -11.049900 -22.357500 -33.269100
H -10.880500 -22.049900 -39.010800
C -10.769700 -19.379600 -35.061500
C -10.736100 -19.726800 -36.564300
H -10.730400 -23.164700 -32.934100
C -10.526500 -18.447400 -37.372300
N -10.295100 -21.526300 -33.961100
C -10.122500 -21.544400 -39.197700
C -10.023600 -16.220100 -38.946800
H -9.889900 -19.079000 -34.784300
H -9.861600 -21.614600 -36.473200
F -9.757300 -15.167500 -39.759500
N -9.622000 -21.346900 -40.407100
C -9.614400 -20.756800 -36.853900
C -9.383500 -17.664400 -37.227700
N -9.381500 -20.913500 -38.287000
C -9.106400 -16.547900 -37.986300
H -8.794000 -20.465100 -36.426000
C -8.536400 -20.577400 -40.169600
F -8.459100 -18.021100 -36.298200
N -8.342400 -20.275600 -38.901600
H -8.336500 -16.043800 -37.852800
H -7.971500 -20.284000 -40.847900
68
Fragment
H -19.080400 -20.019300 -24.300300
H -18.715400 -24.259600 -27.295500
N -18.709500 -20.027800 -26.246600
F -18.592800 -22.282300 -28.850100
C -18.515400 -19.725900 -24.978600
H -18.257900 -19.838200 -28.722200
C -17.945500 -23.755500 -27.161900
N -17.670400 -19.389900 -26.861300
C -17.668400 -22.639000 -27.920600
C -17.437500 -19.546500 -28.294400
N -17.429900 -18.956400 -24.741200
F -17.294600 -25.135900 -25.388800
H -17.190200 -18.688800 -28.675000
H -17.161900 -21.224300 -30.364000
C -17.028300 -24.083200 -26.201500
C -16.929400 -18.759000 -25.950500
N -16.756800 -18.777000 -31.187100
C -16.525400 -21.856000 -27.776000
H -16.321500 -17.138600 -32.214200
C -16.315800 -20.576500 -28.584000
C -16.282200 -20.923700 -30.086800
H -16.171400 -18.253400 -26.137500
C -16.002000 -17.945800 -31.879200
N -15.887300 -19.790200 -30.905000
C -15.858800 -23.388500 -26.011200
H -15.659100 -21.653100 -30.230400
C -15.621300 -22.277700 -26.811100
H -15.243700 -23.653300 -25.365500
O -15.066100 -19.963400 -28.323400
H -14.831200 -21.800900 -26.696100
H -14.787200 -20.092000 -27.530000
N -14.719500 -18.361200 -32.064500
C -14.693400 -19.516700 -31.423900
H -13.944600 -20.062300 -31.346100
H -13.107300 -20.241000 -33.802200
C -12.358500 -20.786600 -33.724300
N -12.332400 -21.942100 -33.083700
H -12.264700 -20.211300 -37.618200
H -12.220700 -18.502500 -38.452100
O -11.985800 -20.339900 -36.824900
H -11.808200 -16.650000 -39.782800
C -11.430600 -18.025700 -38.337100
H -11.392800 -18.650200 -34.917800
C -11.193000 -16.914800 -39.137000
N -11.164600 -20.513100 -34.243200
C -11.049900 -22.357500 -33.269100
H -10.880500 -22.049900 -39.010800
C -10.769700 -19.379600 -35.061500
C -10.736100 -19.726800 -36.564300
H -10.730400 -23.164700 -32.934100
C -10.526500 -18.447400 -37.372300
N -10.295100 -21.526300 -33.961100
C -10.122500 -21.544400 -39.197700
C -10.023600 -16.220100 -38.946800
H -9.889900 -19.079000 -34.784300
H -9.861600 -21.614600 -36.473200
F -9.757300 -15.167500 -39.759500
N -9.622000 -21.346900 -40.407100
C -9.614400 -20.756800 -36.853900
C -9.383500 -17.664400 -37.227700
N -9.381500 -20.913500 -38.287000
C -9.106400 -16.547900 -37.986300
H -8.794000 -20.465100 -36.426000
C -8.536400 -20.577400 -40.169600
F -8.459100 -18.021100 -36.298200
N -8.342400 -20.275600 -38.901600
H -8.336500 -16.043800 -37.852800
H -7.971500 -20.284000 -40.847900
