34
Fragment
H -18.266800 -19.787400 -9.070400
C -17.676300 -20.500800 -8.980900
H -17.540200 -20.017300 -11.586800
N -17.489400 -21.186100 -7.867300
N -16.904600 -20.971000 -9.954800
H -16.722600 -15.946100 -14.106300
C -16.717400 -20.439000 -11.294000
C -16.545400 -22.096700 -8.235900
H -16.528300 -17.022100 -12.064800
H -16.524200 -21.169600 -11.902800
C -16.338900 -16.791200 -14.049700
C -16.218300 -17.445200 -12.832800
H -16.202400 -22.728900 -7.645500
N -16.156800 -22.014100 -9.486100
F -15.996100 -16.828300 -16.379300
C -15.873200 -17.434700 -15.167900
O -15.827600 -18.497200 -10.307300
C -15.650200 -18.713500 -12.716200
C -15.569600 -19.409000 -11.356400
H -15.319000 -17.857200 -10.370200
C -15.304500 -18.679600 -15.129300
C -15.224500 -19.293800 -13.899700
H -14.985100 -19.091600 -15.899400
F -14.699400 -20.545100 -13.879600
H -14.290200 -20.562600 -10.210100
C -14.240900 -20.138300 -11.080500
H -14.122600 -20.837100 -11.742700
N -13.083100 -19.260400 -11.110300
N -12.575200 -18.776000 -12.282700
H -12.471900 -19.092800 -9.200700
C -12.317500 -18.872700 -10.090900
C -11.522800 -18.110600 -11.859600
N -11.307000 -18.131500 -10.519700
H -10.960200 -17.653300 -12.442300
12
Fragment
H -17.693400 -23.059600 -14.023200
O -17.126200 -23.051000 -14.773600
C -15.910100 -23.340800 -14.364600
O -15.617000 -23.598300 -13.219800
H -15.242100 -23.158700 -16.344600
C -14.930400 -23.302100 -15.480800
C -13.643700 -23.461800 -15.294300
H -13.332000 -23.605300 -14.430400
O -12.957100 -23.165700 -17.555200
C -12.664100 -23.423100 -16.410500
O -11.448000 -23.713000 -16.001500
H -10.880700 -23.704400 -16.751900
46
Fragment
H -18.266800 -19.787400 -9.070400
C -17.676300 -20.500800 -8.980900
H -17.540200 -20.017300 -11.586800
N -17.489400 -21.186100 -7.867300
N -16.904600 -20.971000 -9.954800
H -16.722600 -15.946100 -14.106300
C -16.717400 -20.439000 -11.294000
C -16.545400 -22.096700 -8.235900
H -16.528300 -17.022100 -12.064800
H -16.524200 -21.169600 -11.902800
C -16.338900 -16.791200 -14.049700
C -16.218300 -17.445200 -12.832800
H -16.202400 -22.728900 -7.645500
N -16.156800 -22.014100 -9.486100
F -15.996100 -16.828300 -16.379300
C -15.873200 -17.434700 -15.167900
O -15.827600 -18.497200 -10.307300
C -15.650200 -18.713500 -12.716200
C -15.569600 -19.409000 -11.356400
H -15.319000 -17.857200 -10.370200
C -15.304500 -18.679600 -15.129300
C -15.224500 -19.293800 -13.899700
H -14.985100 -19.091600 -15.899400
F -14.699400 -20.545100 -13.879600
H -14.290200 -20.562600 -10.210100
C -14.240900 -20.138300 -11.080500
H -14.122600 -20.837100 -11.742700
N -13.083100 -19.260400 -11.110300
N -12.575200 -18.776000 -12.282700
H -12.471900 -19.092800 -9.200700
C -12.317500 -18.872700 -10.090900
C -11.522800 -18.110600 -11.859600
N -11.307000 -18.131500 -10.519700
H -10.960200 -17.653300 -12.442300
H -17.693400 -23.059600 -14.023200
O -17.126200 -23.051000 -14.773600
C -15.910100 -23.340800 -14.364600
O -15.617000 -23.598300 -13.219800
H -15.242100 -23.158700 -16.344600
C -14.930400 -23.302100 -15.480800
C -13.643700 -23.461800 -15.294300
H -13.332000 -23.605300 -14.430400
O -12.957100 -23.165700 -17.555200
C -12.664100 -23.423100 -16.410500
O -11.448000 -23.713000 -16.001500
H -10.880700 -23.704400 -16.751900
