34
Fragment
H -18.266800 -19.787400 -9.070400
C -17.676300 -20.500800 -8.980900
H -17.540200 -20.017300 -11.586800
N -17.489400 -21.186100 -7.867300
N -16.904600 -20.971000 -9.954800
H -16.722600 -15.946100 -14.106300
C -16.717400 -20.439000 -11.294000
C -16.545400 -22.096700 -8.235900
H -16.528300 -17.022100 -12.064800
H -16.524200 -21.169600 -11.902800
C -16.338900 -16.791200 -14.049700
C -16.218300 -17.445200 -12.832800
H -16.202400 -22.728900 -7.645500
N -16.156800 -22.014100 -9.486100
F -15.996100 -16.828300 -16.379300
C -15.873200 -17.434700 -15.167900
O -15.827600 -18.497200 -10.307300
C -15.650200 -18.713500 -12.716200
C -15.569600 -19.409000 -11.356400
H -15.319000 -17.857200 -10.370200
C -15.304500 -18.679600 -15.129300
C -15.224500 -19.293800 -13.899700
H -14.985100 -19.091600 -15.899400
F -14.699400 -20.545100 -13.879600
H -14.290200 -20.562600 -10.210100
C -14.240900 -20.138300 -11.080500
H -14.122600 -20.837100 -11.742700
N -13.083100 -19.260400 -11.110300
N -12.575200 -18.776000 -12.282700
H -12.471900 -19.092800 -9.200700
C -12.317500 -18.872700 -10.090900
C -11.522800 -18.110600 -11.859600
N -11.307000 -18.131500 -10.519700
H -10.960200 -17.653300 -12.442300
34
Fragment
H -15.203000 -19.402100 -18.332700
N -14.856200 -18.923900 -20.255300
C -14.640400 -18.944700 -18.915500
C -13.845700 -18.182700 -20.684100
H -13.691300 -17.962600 -21.574300
N -13.588000 -18.279300 -18.492300
N -13.080100 -17.795000 -19.664700
H -12.040600 -16.218300 -19.032300
C -11.922300 -16.917100 -19.694600
H -11.873000 -16.492800 -20.564900
F -11.463800 -16.510300 -16.895400
H -11.178100 -17.963700 -14.875600
C -10.938700 -17.761500 -16.875400
C -10.858700 -18.375800 -15.645700
H -10.844200 -19.198100 -20.404900
C -10.593600 -17.646400 -19.418600
C -10.513000 -18.341900 -18.058800
O -10.335600 -18.558100 -20.467800
C -10.290000 -19.620700 -15.607200
F -10.167100 -20.227100 -14.395700
N -10.006400 -15.041300 -21.288900
H -9.960800 -14.326400 -23.129500
C -9.944900 -19.610200 -17.942300
C -9.824300 -20.264200 -16.725300
H -9.639000 -15.885800 -18.872300
H -9.634900 -20.033300 -18.710200
C -9.617800 -14.958700 -22.539100
C -9.445900 -16.616300 -19.481000
H -9.440600 -21.109200 -16.668800
N -9.258600 -16.084400 -20.820200
N -8.673800 -15.869300 -22.907700
H -8.623000 -17.038100 -19.188200
C -8.486900 -16.554600 -21.794200
H -7.896400 -17.268000 -21.704600
68
Fragment
H -18.266800 -19.787400 -9.070400
C -17.676300 -20.500800 -8.980900
H -17.540200 -20.017300 -11.586800
N -17.489400 -21.186100 -7.867300
N -16.904600 -20.971000 -9.954800
H -16.722600 -15.946100 -14.106300
C -16.717400 -20.439000 -11.294000
C -16.545400 -22.096700 -8.235900
H -16.528300 -17.022100 -12.064800
H -16.524200 -21.169600 -11.902800
C -16.338900 -16.791200 -14.049700
C -16.218300 -17.445200 -12.832800
H -16.202400 -22.728900 -7.645500
N -16.156800 -22.014100 -9.486100
F -15.996100 -16.828300 -16.379300
C -15.873200 -17.434700 -15.167900
O -15.827600 -18.497200 -10.307300
C -15.650200 -18.713500 -12.716200
C -15.569600 -19.409000 -11.356400
H -15.319000 -17.857200 -10.370200
C -15.304500 -18.679600 -15.129300
C -15.224500 -19.293800 -13.899700
H -14.985100 -19.091600 -15.899400
F -14.699400 -20.545100 -13.879600
H -14.290200 -20.562600 -10.210100
C -14.240900 -20.138300 -11.080500
H -14.122600 -20.837100 -11.742700
N -13.083100 -19.260400 -11.110300
N -12.575200 -18.776000 -12.282700
H -12.471900 -19.092800 -9.200700
C -12.317500 -18.872700 -10.090900
C -11.522800 -18.110600 -11.859600
N -11.307000 -18.131500 -10.519700
H -10.960200 -17.653300 -12.442300
H -15.203000 -19.402100 -18.332700
N -14.856200 -18.923900 -20.255300
C -14.640400 -18.944700 -18.915500
C -13.845700 -18.182700 -20.684100
H -13.691300 -17.962600 -21.574300
N -13.588000 -18.279300 -18.492300
N -13.080100 -17.795000 -19.664700
H -12.040600 -16.218300 -19.032300
C -11.922300 -16.917100 -19.694600
H -11.873000 -16.492800 -20.564900
F -11.463800 -16.510300 -16.895400
H -11.178100 -17.963700 -14.875600
C -10.938700 -17.761500 -16.875400
C -10.858700 -18.375800 -15.645700
H -10.844200 -19.198100 -20.404900
C -10.593600 -17.646400 -19.418600
C -10.513000 -18.341900 -18.058800
O -10.335600 -18.558100 -20.467800
C -10.290000 -19.620700 -15.607200
F -10.167100 -20.227100 -14.395700
N -10.006400 -15.041300 -21.288900
H -9.960800 -14.326400 -23.129500
C -9.944900 -19.610200 -17.942300
C -9.824300 -20.264200 -16.725300
H -9.639000 -15.885800 -18.872300
H -9.634900 -20.033300 -18.710200
C -9.617800 -14.958700 -22.539100
C -9.445900 -16.616300 -19.481000
H -9.440600 -21.109200 -16.668800
N -9.258600 -16.084400 -20.820200
N -8.673800 -15.869300 -22.907700
H -8.623000 -17.038100 -19.188200
C -8.486900 -16.554600 -21.794200
H -7.896400 -17.268000 -21.704600
