17
Fragment
H -9.501600 -15.003000 -29.688900
N -8.641700 -14.831600 -29.527600
H -8.275600 -15.591600 -29.233100
H -8.077100 -15.092800 -31.389500
N -8.026200 -14.520800 -30.766600
O -7.899600 -12.325100 -30.212300
C -7.699100 -13.246500 -31.013200
H -7.428300 -10.956000 -32.268100
C -7.045900 -12.966500 -32.332600
C -7.024900 -11.645900 -32.781300
C -6.431400 -13.935300 -33.118400
H -6.422400 -14.844400 -32.842000
C -6.410400 -11.355400 -33.980000
H -6.404800 -10.454200 -34.280400
C -5.832100 -13.556300 -34.308500
N -5.820800 -12.284600 -34.739800
H -5.412800 -14.221900 -34.840200
9
Fragment
H -7.537200 -13.147600 -24.261300
O -7.050300 -13.477400 -25.076600
H -6.624600 -13.477800 -27.669500
O -6.604200 -11.342300 -25.586800
C -6.549900 -12.530100 -25.843800
C -5.922400 -13.099900 -27.082300
H -5.299300 -13.828900 -26.835700
O -5.223100 -12.087100 -27.769200
H -4.880900 -12.439300 -28.515000
26
Fragment
H -9.501600 -15.003000 -29.688900
N -8.641700 -14.831600 -29.527600
H -8.275600 -15.591600 -29.233100
H -8.077100 -15.092800 -31.389500
N -8.026200 -14.520800 -30.766600
O -7.899600 -12.325100 -30.212300
C -7.699100 -13.246500 -31.013200
H -7.428300 -10.956000 -32.268100
C -7.045900 -12.966500 -32.332600
C -7.024900 -11.645900 -32.781300
C -6.431400 -13.935300 -33.118400
H -6.422400 -14.844400 -32.842000
C -6.410400 -11.355400 -33.980000
H -6.404800 -10.454200 -34.280400
C -5.832100 -13.556300 -34.308500
N -5.820800 -12.284600 -34.739800
H -5.412800 -14.221900 -34.840200
H -7.537200 -13.147600 -24.261300
O -7.050300 -13.477400 -25.076600
H -6.624600 -13.477800 -27.669500
O -6.604200 -11.342300 -25.586800
C -6.549900 -12.530100 -25.843800
C -5.922400 -13.099900 -27.082300
H -5.299300 -13.828900 -26.835700
O -5.223100 -12.087100 -27.769200
H -4.880900 -12.439300 -28.515000
