17
Fragment
H -9.501600 -15.003000 -29.688900
N -8.641700 -14.831600 -29.527600
H -8.275600 -15.591600 -29.233100
H -8.077100 -15.092800 -31.389500
N -8.026200 -14.520800 -30.766600
O -7.899600 -12.325100 -30.212300
C -7.699100 -13.246500 -31.013200
H -7.428300 -10.956000 -32.268100
C -7.045900 -12.966500 -32.332600
C -7.024900 -11.645900 -32.781300
C -6.431400 -13.935300 -33.118400
H -6.422400 -14.844400 -32.842000
C -6.410400 -11.355400 -33.980000
H -6.404800 -10.454200 -34.280400
C -5.832100 -13.556300 -34.308500
N -5.820800 -12.284600 -34.739800
H -5.412800 -14.221900 -34.840200
17
Fragment
H -9.548300 -19.209600 -24.207000
N -9.140300 -17.272300 -24.307300
C -9.129000 -18.544000 -24.738600
H -8.556300 -15.441900 -24.766700
C -8.550700 -16.343100 -25.067200
H -8.538700 -19.832100 -26.205100
C -8.529700 -18.923000 -25.928800
C -7.936200 -16.633600 -26.265800
C -7.915200 -17.954200 -26.714600
H -7.532800 -15.943700 -26.779100
C -7.262000 -18.234200 -28.033900
O -7.061500 -17.312800 -28.834800
N -6.934900 -19.508500 -28.280500
H -6.884000 -20.080500 -27.657700
H -6.685500 -20.579300 -29.814100
N -6.319400 -19.819300 -29.519600
H -5.459500 -19.990700 -29.358200
34
Fragment
H -9.501600 -15.003000 -29.688900
N -8.641700 -14.831600 -29.527600
H -8.275600 -15.591600 -29.233100
H -8.077100 -15.092800 -31.389500
N -8.026200 -14.520800 -30.766600
O -7.899600 -12.325100 -30.212300
C -7.699100 -13.246500 -31.013200
H -7.428300 -10.956000 -32.268100
C -7.045900 -12.966500 -32.332600
C -7.024900 -11.645900 -32.781300
C -6.431400 -13.935300 -33.118400
H -6.422400 -14.844400 -32.842000
C -6.410400 -11.355400 -33.980000
H -6.404800 -10.454200 -34.280400
C -5.832100 -13.556300 -34.308500
N -5.820800 -12.284600 -34.739800
H -5.412800 -14.221900 -34.840200
H -9.548300 -19.209600 -24.207000
N -9.140300 -17.272300 -24.307300
C -9.129000 -18.544000 -24.738600
H -8.556300 -15.441900 -24.766700
C -8.550700 -16.343100 -25.067200
H -8.538700 -19.832100 -26.205100
C -8.529700 -18.923000 -25.928800
C -7.936200 -16.633600 -26.265800
C -7.915200 -17.954200 -26.714600
H -7.532800 -15.943700 -26.779100
C -7.262000 -18.234200 -28.033900
O -7.061500 -17.312800 -28.834800
N -6.934900 -19.508500 -28.280500
H -6.884000 -20.080500 -27.657700
H -6.685500 -20.579300 -29.814100
N -6.319400 -19.819300 -29.519600
H -5.459500 -19.990700 -29.358200
