17
Fragment
H -9.501600 -15.003000 -29.688900
N -8.641700 -14.831600 -29.527600
H -8.275600 -15.591600 -29.233100
H -8.077100 -15.092800 -31.389500
N -8.026200 -14.520800 -30.766600
O -7.899600 -12.325100 -30.212300
C -7.699100 -13.246500 -31.013200
H -7.428300 -10.956000 -32.268100
C -7.045900 -12.966500 -32.332600
C -7.024900 -11.645900 -32.781300
C -6.431400 -13.935300 -33.118400
H -6.422400 -14.844400 -32.842000
C -6.410400 -11.355400 -33.980000
H -6.404800 -10.454200 -34.280400
C -5.832100 -13.556300 -34.308500
N -5.820800 -12.284600 -34.739800
H -5.412800 -14.221900 -34.840200
17
Fragment
H -7.090300 -15.704300 -36.016400
N -6.682300 -17.641600 -36.116800
C -6.671000 -16.369900 -36.548100
H -6.098300 -19.472000 -36.576200
C -6.092700 -18.570800 -36.876600
H -6.080800 -15.081800 -38.014600
C -6.071700 -15.990900 -37.738200
C -5.478200 -18.280300 -38.075300
C -5.457200 -16.959700 -38.524000
H -5.074900 -18.970200 -38.588500
C -4.804100 -16.679700 -39.843400
O -4.603500 -17.601100 -40.644300
N -4.476900 -15.405400 -40.089900
H -4.426000 -14.833400 -39.467100
H -4.227500 -14.334600 -41.623500
N -3.861500 -15.094600 -41.329000
H -3.001500 -14.923200 -41.167700
34
Fragment
H -9.501600 -15.003000 -29.688900
N -8.641700 -14.831600 -29.527600
H -8.275600 -15.591600 -29.233100
H -8.077100 -15.092800 -31.389500
N -8.026200 -14.520800 -30.766600
O -7.899600 -12.325100 -30.212300
C -7.699100 -13.246500 -31.013200
H -7.428300 -10.956000 -32.268100
C -7.045900 -12.966500 -32.332600
C -7.024900 -11.645900 -32.781300
C -6.431400 -13.935300 -33.118400
H -6.422400 -14.844400 -32.842000
C -6.410400 -11.355400 -33.980000
H -6.404800 -10.454200 -34.280400
C -5.832100 -13.556300 -34.308500
N -5.820800 -12.284600 -34.739800
H -5.412800 -14.221900 -34.840200
H -7.090300 -15.704300 -36.016400
N -6.682300 -17.641600 -36.116800
C -6.671000 -16.369900 -36.548100
H -6.098300 -19.472000 -36.576200
C -6.092700 -18.570800 -36.876600
H -6.080800 -15.081800 -38.014600
C -6.071700 -15.990900 -37.738200
C -5.478200 -18.280300 -38.075300
C -5.457200 -16.959700 -38.524000
H -5.074900 -18.970200 -38.588500
C -4.804100 -16.679700 -39.843400
O -4.603500 -17.601100 -40.644300
N -4.476900 -15.405400 -40.089900
H -4.426000 -14.833400 -39.467100
H -4.227500 -14.334600 -41.623500
N -3.861500 -15.094600 -41.329000
H -3.001500 -14.923200 -41.167700
