39
Fragment
H -36.020900 -10.689600 -29.761800
F -35.599700 -12.650000 -28.205400
C -35.287600 -10.535400 -29.176900
C -34.893900 -11.483700 -28.257100
H -34.834500 -8.671000 -29.828200
C -34.572300 -9.348000 -29.215200
C -33.848500 -11.307100 -27.402900
H -33.614100 -11.980000 -26.775000
C -33.489600 -9.120900 -28.383300
H -33.351400 -7.061700 -28.282500
C -33.132400 -10.114100 -27.474200
C -32.730600 -7.805300 -28.487600
H -32.421500 -7.688300 -29.419700
H -32.391700 -9.976100 -26.895700
H -31.806600 -7.597900 -26.762900
N -31.590700 -7.719100 -27.603000
C -30.351800 -7.922400 -28.016800
N -30.033200 -8.075900 -29.287200
H -29.756900 -7.861400 -23.188300
N -29.482000 -7.906300 -25.708400
N -29.359800 -7.966500 -27.081100
H -29.199300 -7.915400 -20.920000
H -29.105400 -8.382900 -31.428300
C -28.848600 -7.952500 -22.926500
C -28.707900 -8.237100 -29.586300
C -28.518800 -7.984800 -21.578000
N -28.424500 -8.403200 -30.880300
C -28.224200 -8.039400 -25.323200
C -28.052500 -8.131300 -27.441800
C -27.854900 -8.053500 -23.896800
N -27.677600 -8.249700 -28.729100
H -27.587200 -8.642200 -31.114400
N -27.311800 -8.175400 -26.338200
C -27.193900 -8.117900 -21.195000
H -26.968800 -8.155800 -20.271900
C -26.526300 -8.162100 -23.493900
C -26.198400 -8.196400 -22.154200
H -25.840100 -8.212600 -24.148400
H -25.288200 -8.274200 -21.890200
39
Fragment
H -36.020900 -3.680500 -29.761800
F -35.599700 -5.640900 -28.205400
C -35.287600 -3.526300 -29.176900
C -34.893900 -4.474600 -28.257100
H -34.834500 -1.661900 -29.828200
C -34.572300 -2.338900 -29.215200
C -33.848500 -4.298000 -27.402900
H -33.614100 -4.970900 -26.775000
C -33.489600 -2.111800 -28.383300
H -33.351400 -0.052600 -28.282500
C -33.132400 -3.105000 -27.474200
C -32.730600 -0.796200 -28.487600
H -32.421500 -0.679200 -29.419700
H -32.391700 -2.967000 -26.895700
H -31.806600 -0.588800 -26.762900
N -31.590700 -0.710000 -27.603000
C -30.351800 -0.913300 -28.016800
N -30.033200 -1.066800 -29.287200
H -29.756900 -0.852300 -23.188300
N -29.482000 -0.897200 -25.708400
N -29.359800 -0.957400 -27.081100
H -29.199300 -0.906300 -20.920000
H -29.105400 -1.373800 -31.428300
C -28.848600 -0.943400 -22.926500
C -28.707900 -1.228000 -29.586300
C -28.518800 -0.975700 -21.578000
N -28.424500 -1.394100 -30.880300
C -28.224200 -1.030300 -25.323200
C -28.052500 -1.122200 -27.441800
C -27.854900 -1.044400 -23.896800
N -27.677600 -1.240600 -28.729100
H -27.587200 -1.633100 -31.114400
N -27.311800 -1.166300 -26.338200
C -27.193900 -1.108800 -21.195000
H -26.968800 -1.146700 -20.271900
C -26.526300 -1.153000 -23.493900
C -26.198400 -1.187300 -22.154200
H -25.840100 -1.203500 -24.148400
H -25.288200 -1.265100 -21.890200
78
Fragment
H -36.020900 -10.689600 -29.761800
F -35.599700 -12.650000 -28.205400
C -35.287600 -10.535400 -29.176900
C -34.893900 -11.483700 -28.257100
H -34.834500 -8.671000 -29.828200
C -34.572300 -9.348000 -29.215200
C -33.848500 -11.307100 -27.402900
H -33.614100 -11.980000 -26.775000
C -33.489600 -9.120900 -28.383300
H -33.351400 -7.061700 -28.282500
C -33.132400 -10.114100 -27.474200
C -32.730600 -7.805300 -28.487600
H -32.421500 -7.688300 -29.419700
H -32.391700 -9.976100 -26.895700
H -31.806600 -7.597900 -26.762900
N -31.590700 -7.719100 -27.603000
C -30.351800 -7.922400 -28.016800
N -30.033200 -8.075900 -29.287200
H -29.756900 -7.861400 -23.188300
N -29.482000 -7.906300 -25.708400
N -29.359800 -7.966500 -27.081100
H -29.199300 -7.915400 -20.920000
H -29.105400 -8.382900 -31.428300
C -28.848600 -7.952500 -22.926500
C -28.707900 -8.237100 -29.586300
C -28.518800 -7.984800 -21.578000
N -28.424500 -8.403200 -30.880300
C -28.224200 -8.039400 -25.323200
C -28.052500 -8.131300 -27.441800
C -27.854900 -8.053500 -23.896800
N -27.677600 -8.249700 -28.729100
H -27.587200 -8.642200 -31.114400
N -27.311800 -8.175400 -26.338200
C -27.193900 -8.117900 -21.195000
H -26.968800 -8.155800 -20.271900
C -26.526300 -8.162100 -23.493900
C -26.198400 -8.196400 -22.154200
H -25.840100 -8.212600 -24.148400
H -25.288200 -8.274200 -21.890200
H -36.020900 -3.680500 -29.761800
F -35.599700 -5.640900 -28.205400
C -35.287600 -3.526300 -29.176900
C -34.893900 -4.474600 -28.257100
H -34.834500 -1.661900 -29.828200
C -34.572300 -2.338900 -29.215200
C -33.848500 -4.298000 -27.402900
H -33.614100 -4.970900 -26.775000
C -33.489600 -2.111800 -28.383300
H -33.351400 -0.052600 -28.282500
C -33.132400 -3.105000 -27.474200
C -32.730600 -0.796200 -28.487600
H -32.421500 -0.679200 -29.419700
H -32.391700 -2.967000 -26.895700
H -31.806600 -0.588800 -26.762900
N -31.590700 -0.710000 -27.603000
C -30.351800 -0.913300 -28.016800
N -30.033200 -1.066800 -29.287200
H -29.756900 -0.852300 -23.188300
N -29.482000 -0.897200 -25.708400
N -29.359800 -0.957400 -27.081100
H -29.199300 -0.906300 -20.920000
H -29.105400 -1.373800 -31.428300
C -28.848600 -0.943400 -22.926500
C -28.707900 -1.228000 -29.586300
C -28.518800 -0.975700 -21.578000
N -28.424500 -1.394100 -30.880300
C -28.224200 -1.030300 -25.323200
C -28.052500 -1.122200 -27.441800
C -27.854900 -1.044400 -23.896800
N -27.677600 -1.240600 -28.729100
H -27.587200 -1.633100 -31.114400
N -27.311800 -1.166300 -26.338200
C -27.193900 -1.108800 -21.195000
H -26.968800 -1.146700 -20.271900
C -26.526300 -1.153000 -23.493900
C -26.198400 -1.187300 -22.154200
H -25.840100 -1.203500 -24.148400
H -25.288200 -1.265100 -21.890200
