39
Fragment
H -36.020900 -10.689600 -29.761800
F -35.599700 -12.650000 -28.205400
C -35.287600 -10.535400 -29.176900
C -34.893900 -11.483700 -28.257100
H -34.834500 -8.671000 -29.828200
C -34.572300 -9.348000 -29.215200
C -33.848500 -11.307100 -27.402900
H -33.614100 -11.980000 -26.775000
C -33.489600 -9.120900 -28.383300
H -33.351400 -7.061700 -28.282500
C -33.132400 -10.114100 -27.474200
C -32.730600 -7.805300 -28.487600
H -32.421500 -7.688300 -29.419700
H -32.391700 -9.976100 -26.895700
H -31.806600 -7.597900 -26.762900
N -31.590700 -7.719100 -27.603000
C -30.351800 -7.922400 -28.016800
N -30.033200 -8.075900 -29.287200
H -29.756900 -7.861400 -23.188300
N -29.482000 -7.906300 -25.708400
N -29.359800 -7.966500 -27.081100
H -29.199300 -7.915400 -20.920000
H -29.105400 -8.382900 -31.428300
C -28.848600 -7.952500 -22.926500
C -28.707900 -8.237100 -29.586300
C -28.518800 -7.984800 -21.578000
N -28.424500 -8.403200 -30.880300
C -28.224200 -8.039400 -25.323200
C -28.052500 -8.131300 -27.441800
C -27.854900 -8.053500 -23.896800
N -27.677600 -8.249700 -28.729100
H -27.587200 -8.642200 -31.114400
N -27.311800 -8.175400 -26.338200
C -27.193900 -8.117900 -21.195000
H -26.968800 -8.155800 -20.271900
C -26.526300 -8.162100 -23.493900
C -26.198400 -8.196400 -22.154200
H -25.840100 -8.212600 -24.148400
H -25.288200 -8.274200 -21.890200
39
Fragment
H -47.198800 -6.833200 -39.825300
F -46.777600 -4.872700 -38.268900
C -46.465500 -6.987400 -39.240400
C -46.071700 -6.039000 -38.320600
H -46.012300 -8.851800 -39.891800
C -45.750200 -8.174700 -39.278700
C -45.026400 -6.215700 -37.466500
H -44.792000 -5.542800 -36.838500
C -44.667400 -8.401800 -38.446800
H -44.529300 -10.461100 -38.346000
C -44.310300 -7.408600 -37.537700
C -43.908500 -9.717400 -38.551100
H -43.599400 -9.834500 -39.483200
H -43.569600 -7.546700 -36.959300
H -42.984500 -9.924900 -36.826400
N -42.768600 -9.803600 -37.666500
C -41.529700 -9.600400 -38.080300
N -41.211100 -9.446900 -39.350700
H -40.934800 -9.661300 -33.251900
N -40.659800 -9.616500 -35.772000
N -40.537700 -9.556200 -37.144600
H -40.377200 -9.607400 -30.983500
H -40.283200 -9.139900 -41.491900
C -40.026400 -9.570200 -32.990000
C -39.885700 -9.285700 -39.649800
C -39.696700 -9.538000 -31.641500
N -39.602400 -9.119500 -40.943800
C -39.402100 -9.483300 -35.386700
C -39.230400 -9.391500 -37.505300
C -39.032800 -9.469300 -33.960300
N -38.855500 -9.273000 -38.792600
H -38.765100 -8.880500 -41.177900
N -38.489700 -9.347300 -36.401700
C -38.371700 -9.404800 -31.258500
H -38.146700 -9.367000 -30.335400
C -37.704200 -9.360700 -33.557400
C -37.376300 -9.326300 -32.217700
H -37.018000 -9.310200 -34.211900
H -36.466100 -9.248500 -31.953700
78
Fragment
H -36.020900 -10.689600 -29.761800
F -35.599700 -12.650000 -28.205400
C -35.287600 -10.535400 -29.176900
C -34.893900 -11.483700 -28.257100
H -34.834500 -8.671000 -29.828200
C -34.572300 -9.348000 -29.215200
C -33.848500 -11.307100 -27.402900
H -33.614100 -11.980000 -26.775000
C -33.489600 -9.120900 -28.383300
H -33.351400 -7.061700 -28.282500
C -33.132400 -10.114100 -27.474200
C -32.730600 -7.805300 -28.487600
H -32.421500 -7.688300 -29.419700
H -32.391700 -9.976100 -26.895700
H -31.806600 -7.597900 -26.762900
N -31.590700 -7.719100 -27.603000
C -30.351800 -7.922400 -28.016800
N -30.033200 -8.075900 -29.287200
H -29.756900 -7.861400 -23.188300
N -29.482000 -7.906300 -25.708400
N -29.359800 -7.966500 -27.081100
H -29.199300 -7.915400 -20.920000
H -29.105400 -8.382900 -31.428300
C -28.848600 -7.952500 -22.926500
C -28.707900 -8.237100 -29.586300
C -28.518800 -7.984800 -21.578000
N -28.424500 -8.403200 -30.880300
C -28.224200 -8.039400 -25.323200
C -28.052500 -8.131300 -27.441800
C -27.854900 -8.053500 -23.896800
N -27.677600 -8.249700 -28.729100
H -27.587200 -8.642200 -31.114400
N -27.311800 -8.175400 -26.338200
C -27.193900 -8.117900 -21.195000
H -26.968800 -8.155800 -20.271900
C -26.526300 -8.162100 -23.493900
C -26.198400 -8.196400 -22.154200
H -25.840100 -8.212600 -24.148400
H -25.288200 -8.274200 -21.890200
H -47.198800 -6.833200 -39.825300
F -46.777600 -4.872700 -38.268900
C -46.465500 -6.987400 -39.240400
C -46.071700 -6.039000 -38.320600
H -46.012300 -8.851800 -39.891800
C -45.750200 -8.174700 -39.278700
C -45.026400 -6.215700 -37.466500
H -44.792000 -5.542800 -36.838500
C -44.667400 -8.401800 -38.446800
H -44.529300 -10.461100 -38.346000
C -44.310300 -7.408600 -37.537700
C -43.908500 -9.717400 -38.551100
H -43.599400 -9.834500 -39.483200
H -43.569600 -7.546700 -36.959300
H -42.984500 -9.924900 -36.826400
N -42.768600 -9.803600 -37.666500
C -41.529700 -9.600400 -38.080300
N -41.211100 -9.446900 -39.350700
H -40.934800 -9.661300 -33.251900
N -40.659800 -9.616500 -35.772000
N -40.537700 -9.556200 -37.144600
H -40.377200 -9.607400 -30.983500
H -40.283200 -9.139900 -41.491900
C -40.026400 -9.570200 -32.990000
C -39.885700 -9.285700 -39.649800
C -39.696700 -9.538000 -31.641500
N -39.602400 -9.119500 -40.943800
C -39.402100 -9.483300 -35.386700
C -39.230400 -9.391500 -37.505300
C -39.032800 -9.469300 -33.960300
N -38.855500 -9.273000 -38.792600
H -38.765100 -8.880500 -41.177900
N -38.489700 -9.347300 -36.401700
C -38.371700 -9.404800 -31.258500
H -38.146700 -9.367000 -30.335400
C -37.704200 -9.360700 -33.557400
C -37.376300 -9.326300 -32.217700
H -37.018000 -9.310200 -34.211900
H -36.466100 -9.248500 -31.953700
