39
Fragment
H -36.020900 -10.689600 -29.761800
F -35.599700 -12.650000 -28.205400
C -35.287600 -10.535400 -29.176900
C -34.893900 -11.483700 -28.257100
H -34.834500 -8.671000 -29.828200
C -34.572300 -9.348000 -29.215200
C -33.848500 -11.307100 -27.402900
H -33.614100 -11.980000 -26.775000
C -33.489600 -9.120900 -28.383300
H -33.351400 -7.061700 -28.282500
C -33.132400 -10.114100 -27.474200
C -32.730600 -7.805300 -28.487600
H -32.421500 -7.688300 -29.419700
H -32.391700 -9.976100 -26.895700
H -31.806600 -7.597900 -26.762900
N -31.590700 -7.719100 -27.603000
C -30.351800 -7.922400 -28.016800
N -30.033200 -8.075900 -29.287200
H -29.756900 -7.861400 -23.188300
N -29.482000 -7.906300 -25.708400
N -29.359800 -7.966500 -27.081100
H -29.199300 -7.915400 -20.920000
H -29.105400 -8.382900 -31.428300
C -28.848600 -7.952500 -22.926500
C -28.707900 -8.237100 -29.586300
C -28.518800 -7.984800 -21.578000
N -28.424500 -8.403200 -30.880300
C -28.224200 -8.039400 -25.323200
C -28.052500 -8.131300 -27.441800
C -27.854900 -8.053500 -23.896800
N -27.677600 -8.249700 -28.729100
H -27.587200 -8.642200 -31.114400
N -27.311800 -8.175400 -26.338200
C -27.193900 -8.117900 -21.195000
H -26.968800 -8.155800 -20.271900
C -26.526300 -8.162100 -23.493900
C -26.198400 -8.196400 -22.154200
H -25.840100 -8.212600 -24.148400
H -25.288200 -8.274200 -21.890200
39
Fragment
H -33.440800 -3.328600 -39.825300
F -33.019600 -1.368200 -38.268900
C -32.707500 -3.482800 -39.240400
C -32.313700 -2.534500 -38.320600
H -32.254300 -5.347200 -39.891800
C -31.992200 -4.670200 -39.278700
C -31.268400 -2.711100 -37.466500
H -31.034000 -2.038200 -36.838500
C -30.909400 -4.897300 -38.446800
H -30.771300 -6.956500 -38.346000
C -30.552300 -3.904100 -37.537700
C -30.150500 -6.212900 -38.551100
H -29.841400 -6.329900 -39.483200
H -29.811600 -4.042100 -36.959300
H -29.226500 -6.420300 -36.826400
N -29.010600 -6.299100 -37.666500
C -27.771700 -6.095800 -38.080300
N -27.453100 -5.942300 -39.350700
H -27.176800 -6.156800 -33.251900
N -26.901800 -6.111900 -35.772000
N -26.779700 -6.051700 -37.144600
H -26.619200 -6.102800 -30.983500
H -26.525200 -5.635300 -41.491900
C -26.268400 -6.065700 -32.990000
C -26.127700 -5.781100 -39.649800
C -25.938700 -6.033400 -31.641500
N -25.844400 -5.615000 -40.943800
C -25.644100 -5.978800 -35.386700
C -25.472400 -5.886900 -37.505300
C -25.274800 -5.964700 -33.960300
N -25.097500 -5.768500 -38.792600
H -25.007100 -5.376000 -41.177900
N -24.731700 -5.842800 -36.401700
C -24.613700 -5.900300 -31.258500
H -24.388700 -5.862400 -30.335400
C -23.946200 -5.856100 -33.557400
C -23.618300 -5.821800 -32.217700
H -23.260000 -5.805600 -34.211900
H -22.708100 -5.744000 -31.953700
78
Fragment
H -36.020900 -10.689600 -29.761800
F -35.599700 -12.650000 -28.205400
C -35.287600 -10.535400 -29.176900
C -34.893900 -11.483700 -28.257100
H -34.834500 -8.671000 -29.828200
C -34.572300 -9.348000 -29.215200
C -33.848500 -11.307100 -27.402900
H -33.614100 -11.980000 -26.775000
C -33.489600 -9.120900 -28.383300
H -33.351400 -7.061700 -28.282500
C -33.132400 -10.114100 -27.474200
C -32.730600 -7.805300 -28.487600
H -32.421500 -7.688300 -29.419700
H -32.391700 -9.976100 -26.895700
H -31.806600 -7.597900 -26.762900
N -31.590700 -7.719100 -27.603000
C -30.351800 -7.922400 -28.016800
N -30.033200 -8.075900 -29.287200
H -29.756900 -7.861400 -23.188300
N -29.482000 -7.906300 -25.708400
N -29.359800 -7.966500 -27.081100
H -29.199300 -7.915400 -20.920000
H -29.105400 -8.382900 -31.428300
C -28.848600 -7.952500 -22.926500
C -28.707900 -8.237100 -29.586300
C -28.518800 -7.984800 -21.578000
N -28.424500 -8.403200 -30.880300
C -28.224200 -8.039400 -25.323200
C -28.052500 -8.131300 -27.441800
C -27.854900 -8.053500 -23.896800
N -27.677600 -8.249700 -28.729100
H -27.587200 -8.642200 -31.114400
N -27.311800 -8.175400 -26.338200
C -27.193900 -8.117900 -21.195000
H -26.968800 -8.155800 -20.271900
C -26.526300 -8.162100 -23.493900
C -26.198400 -8.196400 -22.154200
H -25.840100 -8.212600 -24.148400
H -25.288200 -8.274200 -21.890200
H -33.440800 -3.328600 -39.825300
F -33.019600 -1.368200 -38.268900
C -32.707500 -3.482800 -39.240400
C -32.313700 -2.534500 -38.320600
H -32.254300 -5.347200 -39.891800
C -31.992200 -4.670200 -39.278700
C -31.268400 -2.711100 -37.466500
H -31.034000 -2.038200 -36.838500
C -30.909400 -4.897300 -38.446800
H -30.771300 -6.956500 -38.346000
C -30.552300 -3.904100 -37.537700
C -30.150500 -6.212900 -38.551100
H -29.841400 -6.329900 -39.483200
H -29.811600 -4.042100 -36.959300
H -29.226500 -6.420300 -36.826400
N -29.010600 -6.299100 -37.666500
C -27.771700 -6.095800 -38.080300
N -27.453100 -5.942300 -39.350700
H -27.176800 -6.156800 -33.251900
N -26.901800 -6.111900 -35.772000
N -26.779700 -6.051700 -37.144600
H -26.619200 -6.102800 -30.983500
H -26.525200 -5.635300 -41.491900
C -26.268400 -6.065700 -32.990000
C -26.127700 -5.781100 -39.649800
C -25.938700 -6.033400 -31.641500
N -25.844400 -5.615000 -40.943800
C -25.644100 -5.978800 -35.386700
C -25.472400 -5.886900 -37.505300
C -25.274800 -5.964700 -33.960300
N -25.097500 -5.768500 -38.792600
H -25.007100 -5.376000 -41.177900
N -24.731700 -5.842800 -36.401700
C -24.613700 -5.900300 -31.258500
H -24.388700 -5.862400 -30.335400
C -23.946200 -5.856100 -33.557400
C -23.618300 -5.821800 -32.217700
H -23.260000 -5.805600 -34.211900
H -22.708100 -5.744000 -31.953700
