39
Fragment
H -36.020900 -10.689600 -29.761800
F -35.599700 -12.650000 -28.205400
C -35.287600 -10.535400 -29.176900
C -34.893900 -11.483700 -28.257100
H -34.834500 -8.671000 -29.828200
C -34.572300 -9.348000 -29.215200
C -33.848500 -11.307100 -27.402900
H -33.614100 -11.980000 -26.775000
C -33.489600 -9.120900 -28.383300
H -33.351400 -7.061700 -28.282500
C -33.132400 -10.114100 -27.474200
C -32.730600 -7.805300 -28.487600
H -32.421500 -7.688300 -29.419700
H -32.391700 -9.976100 -26.895700
H -31.806600 -7.597900 -26.762900
N -31.590700 -7.719100 -27.603000
C -30.351800 -7.922400 -28.016800
N -30.033200 -8.075900 -29.287200
H -29.756900 -7.861400 -23.188300
N -29.482000 -7.906300 -25.708400
N -29.359800 -7.966500 -27.081100
H -29.199300 -7.915400 -20.920000
H -29.105400 -8.382900 -31.428300
C -28.848600 -7.952500 -22.926500
C -28.707900 -8.237100 -29.586300
C -28.518800 -7.984800 -21.578000
N -28.424500 -8.403200 -30.880300
C -28.224200 -8.039400 -25.323200
C -28.052500 -8.131300 -27.441800
C -27.854900 -8.053500 -23.896800
N -27.677600 -8.249700 -28.729100
H -27.587200 -8.642200 -31.114400
N -27.311800 -8.175400 -26.338200
C -27.193900 -8.117900 -21.195000
H -26.968800 -8.155800 -20.271900
C -26.526300 -8.162100 -23.493900
C -26.198400 -8.196400 -22.154200
H -25.840100 -8.212600 -24.148400
H -25.288200 -8.274200 -21.890200
39
Fragment
H -24.843000 -6.833200 -19.698300
F -24.421800 -4.872700 -18.141900
C -24.109700 -6.987400 -19.113400
C -23.716000 -6.039000 -18.193600
H -23.656600 -8.851800 -19.764700
C -23.394400 -8.174700 -19.151700
C -22.670600 -6.215700 -17.339400
H -22.436200 -5.542800 -16.711500
C -22.311700 -8.401800 -18.319800
H -22.173500 -10.461100 -18.219000
C -21.954600 -7.408600 -17.410700
C -21.552800 -9.717400 -18.424100
H -21.243600 -9.834500 -19.356200
H -21.213800 -7.546700 -16.832200
H -20.628800 -9.924900 -16.699400
N -20.412800 -9.803600 -17.539500
C -19.173900 -9.600400 -17.953300
N -18.855300 -9.446900 -19.223700
H -18.579000 -9.661300 -13.124800
N -18.304100 -9.616500 -15.644900
N -18.181900 -9.556200 -17.017600
H -18.021400 -9.607400 -10.856500
H -17.927500 -9.139900 -21.364800
C -17.670700 -9.570200 -12.863000
C -17.530000 -9.285700 -19.522800
C -17.340900 -9.538000 -11.514500
N -17.246700 -9.119500 -20.816800
C -17.046300 -9.483300 -15.259700
C -16.874600 -9.391500 -17.378300
C -16.677100 -9.469300 -13.833300
N -16.499700 -9.273000 -18.665600
H -16.409300 -8.880500 -21.050900
N -16.134000 -9.347300 -16.274700
C -16.016000 -9.404800 -11.131500
H -15.790900 -9.367000 -10.208400
C -15.348400 -9.360700 -13.430400
C -15.020500 -9.326300 -12.090700
H -14.662200 -9.310200 -14.084900
H -14.110300 -9.248500 -11.826600
78
Fragment
H -36.020900 -10.689600 -29.761800
F -35.599700 -12.650000 -28.205400
C -35.287600 -10.535400 -29.176900
C -34.893900 -11.483700 -28.257100
H -34.834500 -8.671000 -29.828200
C -34.572300 -9.348000 -29.215200
C -33.848500 -11.307100 -27.402900
H -33.614100 -11.980000 -26.775000
C -33.489600 -9.120900 -28.383300
H -33.351400 -7.061700 -28.282500
C -33.132400 -10.114100 -27.474200
C -32.730600 -7.805300 -28.487600
H -32.421500 -7.688300 -29.419700
H -32.391700 -9.976100 -26.895700
H -31.806600 -7.597900 -26.762900
N -31.590700 -7.719100 -27.603000
C -30.351800 -7.922400 -28.016800
N -30.033200 -8.075900 -29.287200
H -29.756900 -7.861400 -23.188300
N -29.482000 -7.906300 -25.708400
N -29.359800 -7.966500 -27.081100
H -29.199300 -7.915400 -20.920000
H -29.105400 -8.382900 -31.428300
C -28.848600 -7.952500 -22.926500
C -28.707900 -8.237100 -29.586300
C -28.518800 -7.984800 -21.578000
N -28.424500 -8.403200 -30.880300
C -28.224200 -8.039400 -25.323200
C -28.052500 -8.131300 -27.441800
C -27.854900 -8.053500 -23.896800
N -27.677600 -8.249700 -28.729100
H -27.587200 -8.642200 -31.114400
N -27.311800 -8.175400 -26.338200
C -27.193900 -8.117900 -21.195000
H -26.968800 -8.155800 -20.271900
C -26.526300 -8.162100 -23.493900
C -26.198400 -8.196400 -22.154200
H -25.840100 -8.212600 -24.148400
H -25.288200 -8.274200 -21.890200
H -24.843000 -6.833200 -19.698300
F -24.421800 -4.872700 -18.141900
C -24.109700 -6.987400 -19.113400
C -23.716000 -6.039000 -18.193600
H -23.656600 -8.851800 -19.764700
C -23.394400 -8.174700 -19.151700
C -22.670600 -6.215700 -17.339400
H -22.436200 -5.542800 -16.711500
C -22.311700 -8.401800 -18.319800
H -22.173500 -10.461100 -18.219000
C -21.954600 -7.408600 -17.410700
C -21.552800 -9.717400 -18.424100
H -21.243600 -9.834500 -19.356200
H -21.213800 -7.546700 -16.832200
H -20.628800 -9.924900 -16.699400
N -20.412800 -9.803600 -17.539500
C -19.173900 -9.600400 -17.953300
N -18.855300 -9.446900 -19.223700
H -18.579000 -9.661300 -13.124800
N -18.304100 -9.616500 -15.644900
N -18.181900 -9.556200 -17.017600
H -18.021400 -9.607400 -10.856500
H -17.927500 -9.139900 -21.364800
C -17.670700 -9.570200 -12.863000
C -17.530000 -9.285700 -19.522800
C -17.340900 -9.538000 -11.514500
N -17.246700 -9.119500 -20.816800
C -17.046300 -9.483300 -15.259700
C -16.874600 -9.391500 -17.378300
C -16.677100 -9.469300 -13.833300
N -16.499700 -9.273000 -18.665600
H -16.409300 -8.880500 -21.050900
N -16.134000 -9.347300 -16.274700
C -16.016000 -9.404800 -11.131500
H -15.790900 -9.367000 -10.208400
C -15.348400 -9.360700 -13.430400
C -15.020500 -9.326300 -12.090700
H -14.662200 -9.310200 -14.084900
H -14.110300 -9.248500 -11.826600
