39
Fragment
H -36.020900 -10.689600 -29.761800
F -35.599700 -12.650000 -28.205400
C -35.287600 -10.535400 -29.176900
C -34.893900 -11.483700 -28.257100
H -34.834500 -8.671000 -29.828200
C -34.572300 -9.348000 -29.215200
C -33.848500 -11.307100 -27.402900
H -33.614100 -11.980000 -26.775000
C -33.489600 -9.120900 -28.383300
H -33.351400 -7.061700 -28.282500
C -33.132400 -10.114100 -27.474200
C -32.730600 -7.805300 -28.487600
H -32.421500 -7.688300 -29.419700
H -32.391700 -9.976100 -26.895700
H -31.806600 -7.597900 -26.762900
N -31.590700 -7.719100 -27.603000
C -30.351800 -7.922400 -28.016800
N -30.033200 -8.075900 -29.287200
H -29.756900 -7.861400 -23.188300
N -29.482000 -7.906300 -25.708400
N -29.359800 -7.966500 -27.081100
H -29.199300 -7.915400 -20.920000
H -29.105400 -8.382900 -31.428300
C -28.848600 -7.952500 -22.926500
C -28.707900 -8.237100 -29.586300
C -28.518800 -7.984800 -21.578000
N -28.424500 -8.403200 -30.880300
C -28.224200 -8.039400 -25.323200
C -28.052500 -8.131300 -27.441800
C -27.854900 -8.053500 -23.896800
N -27.677600 -8.249700 -28.729100
H -27.587200 -8.642200 -31.114400
N -27.311800 -8.175400 -26.338200
C -27.193900 -8.117900 -21.195000
H -26.968800 -8.155800 -20.271900
C -26.526300 -8.162100 -23.493900
C -26.198400 -8.196400 -22.154200
H -25.840100 -8.212600 -24.148400
H -25.288200 -8.274200 -21.890200
39
Fragment
H -41.779100 -12.753100 -38.490900
H -41.227100 -12.814700 -36.232700
C -40.868800 -12.830900 -38.226900
C -40.540900 -12.865200 -36.887200
H -40.098400 -12.871500 -40.109100
C -39.873400 -12.909400 -39.186100
N -39.755400 -12.851900 -34.042800
H -39.480000 -12.385100 -29.266700
N -39.389700 -12.777600 -31.652000
C -39.212300 -12.973800 -36.484300
C -39.014800 -12.896000 -32.939300
C -38.843100 -12.987900 -35.057900
N -38.642700 -12.624100 -29.500800
C -38.548400 -13.042500 -38.803100
C -38.359400 -12.790200 -30.794700
C -38.218700 -13.074800 -37.454600
H -37.961900 -12.644400 -28.952700
H -37.868000 -13.111900 -39.461000
N -37.707500 -13.060800 -33.300000
N -37.585300 -13.121000 -34.672600
H -37.310400 -13.165900 -37.192700
N -37.034000 -12.951400 -31.093800
C -36.715500 -13.104900 -32.364300
N -35.476500 -13.308200 -32.778100
H -35.260600 -13.429400 -33.618200
H -34.675500 -11.051200 -33.485300
H -34.645700 -13.339000 -30.961400
C -34.336600 -13.222000 -31.893500
C -33.934800 -10.913200 -32.906900
H -33.715800 -13.965600 -32.098600
C -33.577700 -11.906400 -31.997700
H -33.453100 -9.047300 -33.606100
C -33.218700 -9.720200 -32.978100
C -32.494900 -11.679300 -31.165900
H -32.232800 -12.356300 -30.552800
C -32.173400 -9.543600 -32.123900
C -31.779600 -10.491900 -31.204100
F -31.467500 -8.377300 -32.175700
H -31.046300 -10.337700 -30.619200
78
Fragment
H -36.020900 -10.689600 -29.761800
F -35.599700 -12.650000 -28.205400
C -35.287600 -10.535400 -29.176900
C -34.893900 -11.483700 -28.257100
H -34.834500 -8.671000 -29.828200
C -34.572300 -9.348000 -29.215200
C -33.848500 -11.307100 -27.402900
H -33.614100 -11.980000 -26.775000
C -33.489600 -9.120900 -28.383300
H -33.351400 -7.061700 -28.282500
C -33.132400 -10.114100 -27.474200
C -32.730600 -7.805300 -28.487600
H -32.421500 -7.688300 -29.419700
H -32.391700 -9.976100 -26.895700
H -31.806600 -7.597900 -26.762900
N -31.590700 -7.719100 -27.603000
C -30.351800 -7.922400 -28.016800
N -30.033200 -8.075900 -29.287200
H -29.756900 -7.861400 -23.188300
N -29.482000 -7.906300 -25.708400
N -29.359800 -7.966500 -27.081100
H -29.199300 -7.915400 -20.920000
H -29.105400 -8.382900 -31.428300
C -28.848600 -7.952500 -22.926500
C -28.707900 -8.237100 -29.586300
C -28.518800 -7.984800 -21.578000
N -28.424500 -8.403200 -30.880300
C -28.224200 -8.039400 -25.323200
C -28.052500 -8.131300 -27.441800
C -27.854900 -8.053500 -23.896800
N -27.677600 -8.249700 -28.729100
H -27.587200 -8.642200 -31.114400
N -27.311800 -8.175400 -26.338200
C -27.193900 -8.117900 -21.195000
H -26.968800 -8.155800 -20.271900
C -26.526300 -8.162100 -23.493900
C -26.198400 -8.196400 -22.154200
H -25.840100 -8.212600 -24.148400
H -25.288200 -8.274200 -21.890200
H -41.779100 -12.753100 -38.490900
H -41.227100 -12.814700 -36.232700
C -40.868800 -12.830900 -38.226900
C -40.540900 -12.865200 -36.887200
H -40.098400 -12.871500 -40.109100
C -39.873400 -12.909400 -39.186100
N -39.755400 -12.851900 -34.042800
H -39.480000 -12.385100 -29.266700
N -39.389700 -12.777600 -31.652000
C -39.212300 -12.973800 -36.484300
C -39.014800 -12.896000 -32.939300
C -38.843100 -12.987900 -35.057900
N -38.642700 -12.624100 -29.500800
C -38.548400 -13.042500 -38.803100
C -38.359400 -12.790200 -30.794700
C -38.218700 -13.074800 -37.454600
H -37.961900 -12.644400 -28.952700
H -37.868000 -13.111900 -39.461000
N -37.707500 -13.060800 -33.300000
N -37.585300 -13.121000 -34.672600
H -37.310400 -13.165900 -37.192700
N -37.034000 -12.951400 -31.093800
C -36.715500 -13.104900 -32.364300
N -35.476500 -13.308200 -32.778100
H -35.260600 -13.429400 -33.618200
H -34.675500 -11.051200 -33.485300
H -34.645700 -13.339000 -30.961400
C -34.336600 -13.222000 -31.893500
C -33.934800 -10.913200 -32.906900
H -33.715800 -13.965600 -32.098600
C -33.577700 -11.906400 -31.997700
H -33.453100 -9.047300 -33.606100
C -33.218700 -9.720200 -32.978100
C -32.494900 -11.679300 -31.165900
H -32.232800 -12.356300 -30.552800
C -32.173400 -9.543600 -32.123900
C -31.779600 -10.491900 -31.204100
F -31.467500 -8.377300 -32.175700
H -31.046300 -10.337700 -30.619200
