21
Fragment
O -29.883800 -10.886500 -17.160500
O -29.706700 -10.899200 -19.330100
N -29.221300 -10.866500 -18.210900
C -27.757100 -10.809800 -18.084700
H -27.712000 -10.795200 -16.048900
H -27.411100 -10.777800 -20.091700
C -27.181300 -10.789200 -16.838300
C -27.001800 -10.780500 -19.234400
C -25.799500 -10.759200 -16.773800
O -25.751300 -11.399900 -14.541700
C -25.620700 -10.754500 -19.099900
O -25.370700 -11.244500 -21.347700
N -25.248300 -10.692500 -15.403000
C -24.942500 -10.772500 -17.874600
N -24.878500 -10.687800 -20.370800
O -24.318500 -9.905700 -15.203700
O -23.829200 -10.051700 -20.394200
C -23.440600 -10.900500 -17.742300
H -23.226000 -11.405900 -16.930600
H -23.083200 -11.371200 -18.523900
H -23.039400 -10.007700 -17.686700
16
Fragment
H -23.267900 -10.754500 -11.619100
H -23.151700 -11.074500 -12.875600
N -22.792200 -10.662500 -12.325200
H -22.051200 -10.401100 -14.843600
C -21.407600 -10.793800 -12.269600
N -21.386800 -11.002500 -14.681700
H -21.209500 -10.707100 -10.251500
H -20.883900 -10.927800 -15.377300
C -20.721900 -10.773200 -11.064300
C -20.677400 -10.884500 -13.471500
C -19.333600 -10.846500 -11.025400
C -19.285300 -10.957800 -13.424800
H -18.880900 -10.831800 -10.190400
H -18.793300 -11.020500 -14.234300
C -18.607400 -10.941200 -12.208400
H -17.658400 -10.993800 -12.187300
37
Fragment
O -29.883800 -10.886500 -17.160500
O -29.706700 -10.899200 -19.330100
N -29.221300 -10.866500 -18.210900
C -27.757100 -10.809800 -18.084700
H -27.712000 -10.795200 -16.048900
H -27.411100 -10.777800 -20.091700
C -27.181300 -10.789200 -16.838300
C -27.001800 -10.780500 -19.234400
C -25.799500 -10.759200 -16.773800
O -25.751300 -11.399900 -14.541700
C -25.620700 -10.754500 -19.099900
O -25.370700 -11.244500 -21.347700
N -25.248300 -10.692500 -15.403000
C -24.942500 -10.772500 -17.874600
N -24.878500 -10.687800 -20.370800
O -24.318500 -9.905700 -15.203700
O -23.829200 -10.051700 -20.394200
C -23.440600 -10.900500 -17.742300
H -23.226000 -11.405900 -16.930600
H -23.083200 -11.371200 -18.523900
H -23.039400 -10.007700 -17.686700
H -23.267900 -10.754500 -11.619100
H -23.151700 -11.074500 -12.875600
N -22.792200 -10.662500 -12.325200
H -22.051200 -10.401100 -14.843600
C -21.407600 -10.793800 -12.269600
N -21.386800 -11.002500 -14.681700
H -21.209500 -10.707100 -10.251500
H -20.883900 -10.927800 -15.377300
C -20.721900 -10.773200 -11.064300
C -20.677400 -10.884500 -13.471500
C -19.333600 -10.846500 -11.025400
C -19.285300 -10.957800 -13.424800
H -18.880900 -10.831800 -10.190400
H -18.793300 -11.020500 -14.234300
C -18.607400 -10.941200 -12.208400
H -17.658400 -10.993800 -12.187300
