15
Fragment
O -4.842400 -29.390700 -12.901300
O -4.836000 -27.227200 -12.890600
N -4.708700 -28.302800 -13.450100
C -4.380700 -28.325600 -14.833100
H -4.361800 -30.264200 -15.512400
C -4.230700 -29.350200 -15.669000
O -4.224800 -27.120000 -15.432000
C -3.961000 -27.431100 -16.742000
C -3.951800 -28.772000 -16.917600
H -3.871800 -29.192100 -17.792900
N -3.812300 -25.135800 -17.285100
C -3.753100 -26.343200 -17.667400
H -3.726700 -23.304400 -17.973300
H -3.652900 -26.608600 -18.539400
O -3.597100 -24.246500 -18.325300
15
Fragment
O -7.648200 -28.478500 -14.487800
H -7.592400 -26.116500 -14.273700
H -7.518600 -29.420600 -14.839700
C -7.492200 -26.381800 -15.145700
N -7.433000 -27.589200 -15.527900
H -7.373500 -23.532900 -15.020200
C -7.293500 -23.953000 -15.895400
C -7.284300 -25.293900 -16.071000
O -7.020500 -25.605000 -17.381100
C -7.014600 -23.374800 -17.144000
H -6.883500 -22.460900 -17.300700
C -6.864600 -24.399400 -17.979900
N -6.536600 -24.422200 -19.363000
O -6.409300 -25.497800 -19.922400
O -6.402900 -23.334300 -19.911800
30
Fragment
O -4.842400 -29.390700 -12.901300
O -4.836000 -27.227200 -12.890600
N -4.708700 -28.302800 -13.450100
C -4.380700 -28.325600 -14.833100
H -4.361800 -30.264200 -15.512400
C -4.230700 -29.350200 -15.669000
O -4.224800 -27.120000 -15.432000
C -3.961000 -27.431100 -16.742000
C -3.951800 -28.772000 -16.917600
H -3.871800 -29.192100 -17.792900
N -3.812300 -25.135800 -17.285100
C -3.753100 -26.343200 -17.667400
H -3.726700 -23.304400 -17.973300
H -3.652900 -26.608600 -18.539400
O -3.597100 -24.246500 -18.325300
O -7.648200 -28.478500 -14.487800
H -7.592400 -26.116500 -14.273700
H -7.518600 -29.420600 -14.839700
C -7.492200 -26.381800 -15.145700
N -7.433000 -27.589200 -15.527900
H -7.373500 -23.532900 -15.020200
C -7.293500 -23.953000 -15.895400
C -7.284300 -25.293900 -16.071000
O -7.020500 -25.605000 -17.381100
C -7.014600 -23.374800 -17.144000
H -6.883500 -22.460900 -17.300700
C -6.864600 -24.399400 -17.979900
N -6.536600 -24.422200 -19.363000
O -6.409300 -25.497800 -19.922400
O -6.402900 -23.334300 -19.911800
