10
Fragment
H -5.842100 -8.069600 -22.553900
O -5.499600 -9.986400 -20.814900
N -5.136100 -8.736500 -22.761000
C -4.905800 -9.798100 -21.878700
C -4.282500 -8.856200 -23.878700
O -4.188800 -8.095400 -24.820500
N -3.899700 -10.612900 -22.437600
H -3.619100 -11.350600 -22.071600
C -3.455100 -10.132100 -23.656000
O -2.597400 -10.596500 -24.421900
10
Fragment
O -7.593800 -13.408000 -25.221900
C -6.736000 -12.943600 -25.987800
H -6.572100 -14.162100 -27.572200
N -6.291500 -13.424400 -27.206200
O -6.002400 -10.906900 -24.823300
C -5.908700 -11.667700 -25.765100
C -5.285400 -12.609600 -27.765100
N -5.055000 -11.548000 -26.882800
O -4.691600 -12.797900 -28.828900
H -4.349100 -10.881100 -27.089900
20
Fragment
H -5.842100 -8.069600 -22.553900
O -5.499600 -9.986400 -20.814900
N -5.136100 -8.736500 -22.761000
C -4.905800 -9.798100 -21.878700
C -4.282500 -8.856200 -23.878700
O -4.188800 -8.095400 -24.820500
N -3.899700 -10.612900 -22.437600
H -3.619100 -11.350600 -22.071600
C -3.455100 -10.132100 -23.656000
O -2.597400 -10.596500 -24.421900
O -7.593800 -13.408000 -25.221900
C -6.736000 -12.943600 -25.987800
H -6.572100 -14.162100 -27.572200
N -6.291500 -13.424400 -27.206200
O -6.002400 -10.906900 -24.823300
C -5.908700 -11.667700 -25.765100
C -5.285400 -12.609600 -27.765100
N -5.055000 -11.548000 -26.882800
O -4.691600 -12.797900 -28.828900
H -4.349100 -10.881100 -27.089900
