8
Fragment
H -6.001100 -4.972900 -10.868000
H -5.839100 -6.723400 -9.435100
N -5.396500 -5.313500 -11.376000
N -5.232600 -7.086100 -9.925600
H -5.159800 -4.906000 -12.095500
H -4.887600 -7.839400 -9.696000
C -4.825100 -6.476300 -11.047800
O -3.944600 -6.976700 -11.783700
10
Fragment
O -9.381400 -4.345800 -4.891900
H -8.752100 -5.653100 -7.037700
C -8.541400 -4.145600 -5.743200
N -8.310300 -4.939200 -6.851200
N -7.656300 -3.085000 -5.784000
H -7.615800 -2.463200 -5.191300
C -7.294800 -4.445700 -7.607800
C -6.853700 -3.152000 -6.887800
O -6.819900 -4.896900 -8.622300
O -5.998000 -2.387600 -7.243800
18
Fragment
H -6.001100 -4.972900 -10.868000
H -5.839100 -6.723400 -9.435100
N -5.396500 -5.313500 -11.376000
N -5.232600 -7.086100 -9.925600
H -5.159800 -4.906000 -12.095500
H -4.887600 -7.839400 -9.696000
C -4.825100 -6.476300 -11.047800
O -3.944600 -6.976700 -11.783700
O -9.381400 -4.345800 -4.891900
H -8.752100 -5.653100 -7.037700
C -8.541400 -4.145600 -5.743200
N -8.310300 -4.939200 -6.851200
N -7.656300 -3.085000 -5.784000
H -7.615800 -2.463200 -5.191300
C -7.294800 -4.445700 -7.607800
C -6.853700 -3.152000 -6.887800
O -6.819900 -4.896900 -8.622300
O -5.998000 -2.387600 -7.243800
