8
Fragment
H -6.001100 -4.972900 -10.868000
H -5.839100 -6.723400 -9.435100
N -5.396500 -5.313500 -11.376000
N -5.232600 -7.086100 -9.925600
H -5.159800 -4.906000 -12.095500
H -4.887600 -7.839400 -9.696000
C -4.825100 -6.476300 -11.047800
O -3.944600 -6.976700 -11.783700
10
Fragment
O -3.438200 -9.601000 -9.156300
H -2.808800 -8.293600 -11.302100
C -2.598200 -9.801100 -10.007600
N -2.367000 -9.007500 -11.115600
N -1.713000 -10.861700 -10.048400
H -1.672500 -11.483500 -9.455700
C -1.351500 -9.501100 -11.872200
C -0.910400 -10.794800 -11.152200
O -0.876600 -9.049900 -12.886700
O -0.054700 -11.559100 -11.508200
18
Fragment
H -6.001100 -4.972900 -10.868000
H -5.839100 -6.723400 -9.435100
N -5.396500 -5.313500 -11.376000
N -5.232600 -7.086100 -9.925600
H -5.159800 -4.906000 -12.095500
H -4.887600 -7.839400 -9.696000
C -4.825100 -6.476300 -11.047800
O -3.944600 -6.976700 -11.783700
O -3.438200 -9.601000 -9.156300
H -2.808800 -8.293600 -11.302100
C -2.598200 -9.801100 -10.007600
N -2.367000 -9.007500 -11.115600
N -1.713000 -10.861700 -10.048400
H -1.672500 -11.483500 -9.455700
C -1.351500 -9.501100 -11.872200
C -0.910400 -10.794800 -11.152200
O -0.876600 -9.049900 -12.886700
O -0.054700 -11.559100 -11.508200
