10
Fragment
H -5.842100 -8.069600 -22.553900
O -5.499600 -9.986400 -20.814900
N -5.136100 -8.736500 -22.761000
C -4.905800 -9.798100 -21.878700
C -4.282500 -8.856200 -23.878700
O -4.188800 -8.095400 -24.820500
N -3.899700 -10.612900 -22.437600
H -3.619100 -11.350600 -22.071600
C -3.455100 -10.132100 -23.656000
O -2.597400 -10.596500 -24.421900
10
Fragment
H -8.302100 -11.610900 -15.461900
O -7.959600 -9.694100 -13.723000
N -7.596100 -10.944000 -15.669000
C -7.365800 -9.882400 -14.786800
C -6.742400 -10.824300 -16.786700
O -6.648800 -11.585100 -17.728500
N -6.359700 -9.067600 -15.345600
H -6.079100 -8.329900 -14.979700
C -5.915100 -9.548400 -16.564000
O -5.057400 -9.084000 -17.329900
20
Fragment
H -5.842100 -8.069600 -22.553900
O -5.499600 -9.986400 -20.814900
N -5.136100 -8.736500 -22.761000
C -4.905800 -9.798100 -21.878700
C -4.282500 -8.856200 -23.878700
O -4.188800 -8.095400 -24.820500
N -3.899700 -10.612900 -22.437600
H -3.619100 -11.350600 -22.071600
C -3.455100 -10.132100 -23.656000
O -2.597400 -10.596500 -24.421900
H -8.302100 -11.610900 -15.461900
O -7.959600 -9.694100 -13.723000
N -7.596100 -10.944000 -15.669000
C -7.365800 -9.882400 -14.786800
C -6.742400 -10.824300 -16.786700
O -6.648800 -11.585100 -17.728500
N -6.359700 -9.067600 -15.345600
H -6.079100 -8.329900 -14.979700
C -5.915100 -9.548400 -16.564000
O -5.057400 -9.084000 -17.329900
