8
Fragment
H -6.001100 -4.972900 -10.868000
H -5.839100 -6.723400 -9.435100
N -5.396500 -5.313500 -11.376000
N -5.232600 -7.086100 -9.925600
H -5.159800 -4.906000 -12.095500
H -4.887600 -7.839400 -9.696000
C -4.825100 -6.476300 -11.047800
O -3.944600 -6.976700 -11.783700
8
Fragment
O -10.205600 -4.187400 -9.538300
C -9.325100 -3.687000 -10.274200
H -9.262500 -5.050100 -11.625900
H -8.990400 -2.116700 -9.226500
N -8.917500 -4.296700 -11.396400
N -8.753600 -2.524200 -9.945900
H -8.311100 -3.934100 -11.886800
H -8.149100 -2.183500 -10.454000
16
Fragment
H -6.001100 -4.972900 -10.868000
H -5.839100 -6.723400 -9.435100
N -5.396500 -5.313500 -11.376000
N -5.232600 -7.086100 -9.925600
H -5.159800 -4.906000 -12.095500
H -4.887600 -7.839400 -9.696000
C -4.825100 -6.476300 -11.047800
O -3.944600 -6.976700 -11.783700
O -10.205600 -4.187400 -9.538300
C -9.325100 -3.687000 -10.274200
H -9.262500 -5.050100 -11.625900
H -8.990400 -2.116700 -9.226500
N -8.917500 -4.296700 -11.396400
N -8.753600 -2.524200 -9.945900
H -8.311100 -3.934100 -11.886800
H -8.149100 -2.183500 -10.454000
