10
Fragment
H -5.842100 -8.069600 -22.553900
O -5.499600 -9.986400 -20.814900
N -5.136100 -8.736500 -22.761000
C -4.905800 -9.798100 -21.878700
C -4.282500 -8.856200 -23.878700
O -4.188800 -8.095400 -24.820500
N -3.899700 -10.612900 -22.437600
H -3.619100 -11.350600 -22.071600
C -3.455100 -10.132100 -23.656000
O -2.597400 -10.596500 -24.421900
10
Fragment
H -5.842100 -13.692600 -22.553900
O -5.499600 -15.609400 -20.814900
N -5.136100 -14.359500 -22.761000
C -4.905800 -15.421100 -21.878700
C -4.282500 -14.479200 -23.878700
O -4.188800 -13.718400 -24.820500
N -3.899700 -16.235900 -22.437600
H -3.619100 -16.973600 -22.071600
C -3.455100 -15.755100 -23.656000
O -2.597400 -16.219500 -24.421900
20
Fragment
H -5.842100 -8.069600 -22.553900
O -5.499600 -9.986400 -20.814900
N -5.136100 -8.736500 -22.761000
C -4.905800 -9.798100 -21.878700
C -4.282500 -8.856200 -23.878700
O -4.188800 -8.095400 -24.820500
N -3.899700 -10.612900 -22.437600
H -3.619100 -11.350600 -22.071600
C -3.455100 -10.132100 -23.656000
O -2.597400 -10.596500 -24.421900
H -5.842100 -13.692600 -22.553900
O -5.499600 -15.609400 -20.814900
N -5.136100 -14.359500 -22.761000
C -4.905800 -15.421100 -21.878700
C -4.282500 -14.479200 -23.878700
O -4.188800 -13.718400 -24.820500
N -3.899700 -16.235900 -22.437600
H -3.619100 -16.973600 -22.071600
C -3.455100 -15.755100 -23.656000
O -2.597400 -16.219500 -24.421900
