17
Fragment
H -33.567800 -18.753900 -12.730800
H -33.286100 -21.109500 -12.738000
H -33.080900 -23.192800 -11.798800
C -32.765100 -19.261200 -12.423700
C -32.640600 -20.638900 -12.454100
N -32.266400 -23.468400 -11.931700
N -32.176800 -24.881600 -11.936000
N -31.797300 -18.447400 -11.983000
H -31.733500 -25.025100 -12.694700
H -31.550100 -25.091100 -11.199100
C -31.449200 -21.199500 -12.011200
C -31.185600 -22.678400 -12.004700
C -30.642800 -18.989700 -11.558900
C -30.433800 -20.361100 -11.561800
O -30.042900 -23.121900 -12.071100
H -29.953800 -18.338000 -11.278500
H -29.604400 -20.700200 -11.271300
35
Fragment
H -30.678800 -29.247600 -14.334800
O -30.538000 -26.680300 -14.381800
H -30.012800 -25.833900 -14.378100
C -29.833500 -28.927100 -14.118000
H -29.818400 -31.495900 -14.183100
C -29.536900 -27.573500 -14.118000
N -29.105000 -31.223400 -13.863000
C -28.835100 -29.881200 -13.847800
O -28.744700 -24.858200 -14.369500
H -28.375000 -31.778200 -13.821800
C -28.223900 -27.120200 -13.861500
H -27.966600 -22.395500 -13.012600
C -27.883200 -25.695900 -13.998100
H -27.682800 -20.048100 -12.969200
C -27.538000 -29.432700 -13.514700
H -27.446900 -18.154700 -14.045800
C -27.258500 -28.081400 -13.526300
C -27.155600 -22.013500 -13.333400
C -26.979400 -20.634000 -13.344900
H -26.826800 -30.092800 -13.373800
O -26.656200 -25.365900 -13.739400
N -26.556600 -17.839100 -13.943200
H -26.466400 -24.133700 -13.720700
N -26.436500 -16.414400 -13.926600
H -26.309200 -27.682700 -13.330500
H -26.226200 -16.078100 -13.005400
N -26.219900 -22.856300 -13.803000
H -25.852800 -16.177200 -14.537100
C -25.793600 -20.117400 -13.855800
C -25.491000 -18.636100 -13.880300
C -25.069500 -22.365400 -14.278400
C -24.821000 -20.994500 -14.316700
H -24.470500 -23.035900 -14.696100
O -24.328400 -18.238900 -13.835500
H -23.963900 -20.658900 -14.717700
52
Fragment
H -33.567800 -18.753900 -12.730800
H -33.286100 -21.109500 -12.738000
H -33.080900 -23.192800 -11.798800
C -32.765100 -19.261200 -12.423700
C -32.640600 -20.638900 -12.454100
N -32.266400 -23.468400 -11.931700
N -32.176800 -24.881600 -11.936000
N -31.797300 -18.447400 -11.983000
H -31.733500 -25.025100 -12.694700
H -31.550100 -25.091100 -11.199100
C -31.449200 -21.199500 -12.011200
C -31.185600 -22.678400 -12.004700
C -30.642800 -18.989700 -11.558900
C -30.433800 -20.361100 -11.561800
O -30.042900 -23.121900 -12.071100
H -29.953800 -18.338000 -11.278500
H -29.604400 -20.700200 -11.271300
H -30.678800 -29.247600 -14.334800
O -30.538000 -26.680300 -14.381800
H -30.012800 -25.833900 -14.378100
C -29.833500 -28.927100 -14.118000
H -29.818400 -31.495900 -14.183100
C -29.536900 -27.573500 -14.118000
N -29.105000 -31.223400 -13.863000
C -28.835100 -29.881200 -13.847800
O -28.744700 -24.858200 -14.369500
H -28.375000 -31.778200 -13.821800
C -28.223900 -27.120200 -13.861500
H -27.966600 -22.395500 -13.012600
C -27.883200 -25.695900 -13.998100
H -27.682800 -20.048100 -12.969200
C -27.538000 -29.432700 -13.514700
H -27.446900 -18.154700 -14.045800
C -27.258500 -28.081400 -13.526300
C -27.155600 -22.013500 -13.333400
C -26.979400 -20.634000 -13.344900
H -26.826800 -30.092800 -13.373800
O -26.656200 -25.365900 -13.739400
N -26.556600 -17.839100 -13.943200
H -26.466400 -24.133700 -13.720700
N -26.436500 -16.414400 -13.926600
H -26.309200 -27.682700 -13.330500
H -26.226200 -16.078100 -13.005400
N -26.219900 -22.856300 -13.803000
H -25.852800 -16.177200 -14.537100
C -25.793600 -20.117400 -13.855800
C -25.491000 -18.636100 -13.880300
C -25.069500 -22.365400 -14.278400
C -24.821000 -20.994500 -14.316700
H -24.470500 -23.035900 -14.696100
O -24.328400 -18.238900 -13.835500
H -23.963900 -20.658900 -14.717700
