17
Fragment
H -33.567800 -18.753900 -12.730800
H -33.286100 -21.109500 -12.738000
H -33.080900 -23.192800 -11.798800
C -32.765100 -19.261200 -12.423700
C -32.640600 -20.638900 -12.454100
N -32.266400 -23.468400 -11.931700
N -32.176800 -24.881600 -11.936000
N -31.797300 -18.447400 -11.983000
H -31.733500 -25.025100 -12.694700
H -31.550100 -25.091100 -11.199100
C -31.449200 -21.199500 -12.011200
C -31.185600 -22.678400 -12.004700
C -30.642800 -18.989700 -11.558900
C -30.433800 -20.361100 -11.561800
O -30.042900 -23.121900 -12.071100
H -29.953800 -18.338000 -11.278500
H -29.604400 -20.700200 -11.271300
17
Fragment
H -35.906600 -28.821700 -14.883900
H -35.557200 -31.183900 -14.891100
O -35.468100 -26.400000 -15.683700
C -35.077200 -29.160800 -15.174400
C -34.868200 -30.532200 -15.171500
C -34.325400 -26.843500 -15.617300
C -34.061800 -28.322400 -15.623800
H -33.960900 -24.430800 -14.811700
H -33.777500 -24.496800 -16.307300
N -33.713700 -31.074500 -15.595600
N -33.334200 -24.640300 -15.548600
N -33.244600 -26.053500 -15.544300
C -32.870400 -28.883000 -16.066700
C -32.745900 -30.260700 -16.036300
H -32.430100 -26.329100 -15.411400
H -32.224900 -28.412400 -16.350600
H -31.943200 -30.768000 -16.343400
34
Fragment
H -33.567800 -18.753900 -12.730800
H -33.286100 -21.109500 -12.738000
H -33.080900 -23.192800 -11.798800
C -32.765100 -19.261200 -12.423700
C -32.640600 -20.638900 -12.454100
N -32.266400 -23.468400 -11.931700
N -32.176800 -24.881600 -11.936000
N -31.797300 -18.447400 -11.983000
H -31.733500 -25.025100 -12.694700
H -31.550100 -25.091100 -11.199100
C -31.449200 -21.199500 -12.011200
C -31.185600 -22.678400 -12.004700
C -30.642800 -18.989700 -11.558900
C -30.433800 -20.361100 -11.561800
O -30.042900 -23.121900 -12.071100
H -29.953800 -18.338000 -11.278500
H -29.604400 -20.700200 -11.271300
H -35.906600 -28.821700 -14.883900
H -35.557200 -31.183900 -14.891100
O -35.468100 -26.400000 -15.683700
C -35.077200 -29.160800 -15.174400
C -34.868200 -30.532200 -15.171500
C -34.325400 -26.843500 -15.617300
C -34.061800 -28.322400 -15.623800
H -33.960900 -24.430800 -14.811700
H -33.777500 -24.496800 -16.307300
N -33.713700 -31.074500 -15.595600
N -33.334200 -24.640300 -15.548600
N -33.244600 -26.053500 -15.544300
C -32.870400 -28.883000 -16.066700
C -32.745900 -30.260700 -16.036300
H -32.430100 -26.329100 -15.411400
H -32.224900 -28.412400 -16.350600
H -31.943200 -30.768000 -16.343400
