17
Fragment
H -33.567800 -18.753900 -12.730800
H -33.286100 -21.109500 -12.738000
H -33.080900 -23.192800 -11.798800
C -32.765100 -19.261200 -12.423700
C -32.640600 -20.638900 -12.454100
N -32.266400 -23.468400 -11.931700
N -32.176800 -24.881600 -11.936000
N -31.797300 -18.447400 -11.983000
H -31.733500 -25.025100 -12.694700
H -31.550100 -25.091100 -11.199100
C -31.449200 -21.199500 -12.011200
C -31.185600 -22.678400 -12.004700
C -30.642800 -18.989700 -11.558900
C -30.433800 -20.361100 -11.561800
O -30.042900 -23.121900 -12.071100
H -29.953800 -18.338000 -11.278500
H -29.604400 -20.700200 -11.271300
35
Fragment
H -41.547100 -28.863000 -11.105100
O -41.182600 -31.283000 -10.222900
H -41.040500 -26.486000 -11.083500
C -40.690000 -28.527400 -10.704100
C -40.441500 -27.156500 -10.665800
C -40.020000 -30.885800 -10.267700
C -39.717400 -29.404500 -10.243200
H -39.658200 -33.344700 -10.924500
N -39.291100 -26.665600 -10.190400
H -39.284800 -33.443800 -9.392800
H -39.201800 -21.839200 -9.717900
N -39.074500 -33.107500 -10.314000
H -39.044600 -25.388200 -10.108100
N -38.954400 -31.682800 -10.330600
O -38.854800 -24.156000 -10.126800
H -38.684200 -19.429100 -9.761200
C -38.531600 -28.887900 -9.732300
C -38.355400 -27.508400 -9.720800
C -38.252500 -21.440500 -9.913700
H -38.064100 -31.367200 -10.433200
C -37.973000 -20.089200 -9.902100
H -37.828200 -29.473800 -9.356600
C -37.627800 -23.826000 -10.385500
H -37.544400 -27.126400 -9.400000
C -37.287100 -22.401700 -10.248900
H -37.136000 -17.743700 -10.209200
O -36.766300 -24.663700 -10.756900
C -36.675900 -19.640700 -10.235200
N -36.406000 -18.298500 -10.250400
C -35.974100 -21.948400 -10.505400
H -35.692600 -18.026000 -10.570500
C -35.677500 -20.594800 -10.505400
H -35.498200 -23.688000 -10.765500
O -34.973000 -22.841600 -10.769200
H -34.832200 -20.274300 -10.722200
52
Fragment
H -33.567800 -18.753900 -12.730800
H -33.286100 -21.109500 -12.738000
H -33.080900 -23.192800 -11.798800
C -32.765100 -19.261200 -12.423700
C -32.640600 -20.638900 -12.454100
N -32.266400 -23.468400 -11.931700
N -32.176800 -24.881600 -11.936000
N -31.797300 -18.447400 -11.983000
H -31.733500 -25.025100 -12.694700
H -31.550100 -25.091100 -11.199100
C -31.449200 -21.199500 -12.011200
C -31.185600 -22.678400 -12.004700
C -30.642800 -18.989700 -11.558900
C -30.433800 -20.361100 -11.561800
O -30.042900 -23.121900 -12.071100
H -29.953800 -18.338000 -11.278500
H -29.604400 -20.700200 -11.271300
H -41.547100 -28.863000 -11.105100
O -41.182600 -31.283000 -10.222900
H -41.040500 -26.486000 -11.083500
C -40.690000 -28.527400 -10.704100
C -40.441500 -27.156500 -10.665800
C -40.020000 -30.885800 -10.267700
C -39.717400 -29.404500 -10.243200
H -39.658200 -33.344700 -10.924500
N -39.291100 -26.665600 -10.190400
H -39.284800 -33.443800 -9.392800
H -39.201800 -21.839200 -9.717900
N -39.074500 -33.107500 -10.314000
H -39.044600 -25.388200 -10.108100
N -38.954400 -31.682800 -10.330600
O -38.854800 -24.156000 -10.126800
H -38.684200 -19.429100 -9.761200
C -38.531600 -28.887900 -9.732300
C -38.355400 -27.508400 -9.720800
C -38.252500 -21.440500 -9.913700
H -38.064100 -31.367200 -10.433200
C -37.973000 -20.089200 -9.902100
H -37.828200 -29.473800 -9.356600
C -37.627800 -23.826000 -10.385500
H -37.544400 -27.126400 -9.400000
C -37.287100 -22.401700 -10.248900
H -37.136000 -17.743700 -10.209200
O -36.766300 -24.663700 -10.756900
C -36.675900 -19.640700 -10.235200
N -36.406000 -18.298500 -10.250400
C -35.974100 -21.948400 -10.505400
H -35.692600 -18.026000 -10.570500
C -35.677500 -20.594800 -10.505400
H -35.498200 -23.688000 -10.765500
O -34.973000 -22.841600 -10.769200
H -34.832200 -20.274300 -10.722200
