21
Fragment
H -9.519000 -10.271500 -23.011800
H -9.454100 -16.093000 -17.249600
N -9.441000 -8.497900 -22.188900
N -9.428600 -9.844500 -22.210300
C -9.409300 -15.411200 -17.881800
H -9.398300 -13.705300 -16.750400
C -9.376900 -14.089500 -17.597800
N -9.365100 -15.598300 -19.241700
H -9.353400 -16.372700 -19.650700
C -9.305100 -13.395700 -18.840600
C -9.303800 -14.382100 -19.859400
N -9.273400 -8.164400 -20.944600
C -9.267200 -12.044100 -19.219300
C -9.264400 -14.059600 -21.207600
C -9.264400 -10.315300 -20.964800
H -9.258200 -11.374300 -18.574300
H -9.255500 -14.724500 -21.858500
C -9.242400 -11.721600 -20.568300
C -9.238200 -12.737800 -21.553300
H -9.217500 -12.502000 -22.452300
N -9.169900 -9.263300 -20.158400
21
Fragment
H -12.967900 -14.611000 -18.127200
H -12.903000 -8.789500 -23.889400
N -12.889900 -16.384600 -18.950100
N -12.877500 -15.038000 -18.928700
C -12.858200 -9.471300 -23.257200
H -12.847200 -11.177200 -24.388600
C -12.825800 -10.793000 -23.541200
N -12.814000 -9.284200 -21.897300
H -12.802300 -8.509800 -21.488300
C -12.754000 -11.486800 -22.298400
C -12.752700 -10.500400 -21.279600
N -12.722300 -16.718100 -20.194400
C -12.716100 -12.838400 -21.919700
C -12.713300 -14.567200 -20.174200
C -12.713300 -10.822900 -19.931400
H -12.707100 -13.508200 -22.564700
H -12.704400 -10.158000 -19.280500
C -12.691300 -13.160900 -20.570700
C -12.687100 -12.144700 -19.585700
H -12.666400 -12.380500 -18.686700
N -12.618800 -15.619200 -20.980600
42
Fragment
H -9.519000 -10.271500 -23.011800
H -9.454100 -16.093000 -17.249600
N -9.441000 -8.497900 -22.188900
N -9.428600 -9.844500 -22.210300
C -9.409300 -15.411200 -17.881800
H -9.398300 -13.705300 -16.750400
C -9.376900 -14.089500 -17.597800
N -9.365100 -15.598300 -19.241700
H -9.353400 -16.372700 -19.650700
C -9.305100 -13.395700 -18.840600
C -9.303800 -14.382100 -19.859400
N -9.273400 -8.164400 -20.944600
C -9.267200 -12.044100 -19.219300
C -9.264400 -14.059600 -21.207600
C -9.264400 -10.315300 -20.964800
H -9.258200 -11.374300 -18.574300
H -9.255500 -14.724500 -21.858500
C -9.242400 -11.721600 -20.568300
C -9.238200 -12.737800 -21.553300
H -9.217500 -12.502000 -22.452300
N -9.169900 -9.263300 -20.158400
H -12.967900 -14.611000 -18.127200
H -12.903000 -8.789500 -23.889400
N -12.889900 -16.384600 -18.950100
N -12.877500 -15.038000 -18.928700
C -12.858200 -9.471300 -23.257200
H -12.847200 -11.177200 -24.388600
C -12.825800 -10.793000 -23.541200
N -12.814000 -9.284200 -21.897300
H -12.802300 -8.509800 -21.488300
C -12.754000 -11.486800 -22.298400
C -12.752700 -10.500400 -21.279600
N -12.722300 -16.718100 -20.194400
C -12.716100 -12.838400 -21.919700
C -12.713300 -14.567200 -20.174200
C -12.713300 -10.822900 -19.931400
H -12.707100 -13.508200 -22.564700
H -12.704400 -10.158000 -19.280500
C -12.691300 -13.160900 -20.570700
C -12.687100 -12.144700 -19.585700
H -12.666400 -12.380500 -18.686700
N -12.618800 -15.619200 -20.980600
