21
Fragment
H -9.519000 -10.271500 -23.011800
H -9.454100 -16.093000 -17.249600
N -9.441000 -8.497900 -22.188900
N -9.428600 -9.844500 -22.210300
C -9.409300 -15.411200 -17.881800
H -9.398300 -13.705300 -16.750400
C -9.376900 -14.089500 -17.597800
N -9.365100 -15.598300 -19.241700
H -9.353400 -16.372700 -19.650700
C -9.305100 -13.395700 -18.840600
C -9.303800 -14.382100 -19.859400
N -9.273400 -8.164400 -20.944600
C -9.267200 -12.044100 -19.219300
C -9.264400 -14.059600 -21.207600
C -9.264400 -10.315300 -20.964800
H -9.258200 -11.374300 -18.574300
H -9.255500 -14.724500 -21.858500
C -9.242400 -11.721600 -20.568300
C -9.238200 -12.737800 -21.553300
H -9.217500 -12.502000 -22.452300
N -9.169900 -9.263300 -20.158400
21
Fragment
N -8.074600 -10.642700 -27.014900
H -8.027000 -7.404000 -29.308800
C -8.006300 -7.168200 -28.409800
C -8.002100 -8.184400 -27.424800
H -7.989000 -5.181500 -28.715000
H -7.986300 -8.531700 -25.430800
C -7.980100 -9.590700 -27.821300
C -7.980100 -5.846400 -28.064100
C -7.977300 -7.861900 -26.075800
N -7.971100 -11.741600 -27.801100
C -7.940700 -5.523900 -26.715900
C -7.939400 -6.510300 -25.697100
H -7.891100 -3.533300 -26.507200
N -7.879400 -4.307700 -26.098200
C -7.867600 -5.816500 -24.454300
H -7.846200 -6.200700 -23.606900
C -7.835200 -4.494800 -24.738300
N -7.815900 -10.061500 -29.066800
N -7.803500 -11.408100 -29.045400
H -7.790400 -3.813000 -24.106100
H -7.725500 -9.634500 -29.868300
42
Fragment
H -9.519000 -10.271500 -23.011800
H -9.454100 -16.093000 -17.249600
N -9.441000 -8.497900 -22.188900
N -9.428600 -9.844500 -22.210300
C -9.409300 -15.411200 -17.881800
H -9.398300 -13.705300 -16.750400
C -9.376900 -14.089500 -17.597800
N -9.365100 -15.598300 -19.241700
H -9.353400 -16.372700 -19.650700
C -9.305100 -13.395700 -18.840600
C -9.303800 -14.382100 -19.859400
N -9.273400 -8.164400 -20.944600
C -9.267200 -12.044100 -19.219300
C -9.264400 -14.059600 -21.207600
C -9.264400 -10.315300 -20.964800
H -9.258200 -11.374300 -18.574300
H -9.255500 -14.724500 -21.858500
C -9.242400 -11.721600 -20.568300
C -9.238200 -12.737800 -21.553300
H -9.217500 -12.502000 -22.452300
N -9.169900 -9.263300 -20.158400
N -8.074600 -10.642700 -27.014900
H -8.027000 -7.404000 -29.308800
C -8.006300 -7.168200 -28.409800
C -8.002100 -8.184400 -27.424800
H -7.989000 -5.181500 -28.715000
H -7.986300 -8.531700 -25.430800
C -7.980100 -9.590700 -27.821300
C -7.980100 -5.846400 -28.064100
C -7.977300 -7.861900 -26.075800
N -7.971100 -11.741600 -27.801100
C -7.940700 -5.523900 -26.715900
C -7.939400 -6.510300 -25.697100
H -7.891100 -3.533300 -26.507200
N -7.879400 -4.307700 -26.098200
C -7.867600 -5.816500 -24.454300
H -7.846200 -6.200700 -23.606900
C -7.835200 -4.494800 -24.738300
N -7.815900 -10.061500 -29.066800
N -7.803500 -11.408100 -29.045400
H -7.790400 -3.813000 -24.106100
H -7.725500 -9.634500 -29.868300
