21
Fragment
H -9.519000 -10.271500 -23.011800
H -9.454100 -16.093000 -17.249600
N -9.441000 -8.497900 -22.188900
N -9.428600 -9.844500 -22.210300
C -9.409300 -15.411200 -17.881800
H -9.398300 -13.705300 -16.750400
C -9.376900 -14.089500 -17.597800
N -9.365100 -15.598300 -19.241700
H -9.353400 -16.372700 -19.650700
C -9.305100 -13.395700 -18.840600
C -9.303800 -14.382100 -19.859400
N -9.273400 -8.164400 -20.944600
C -9.267200 -12.044100 -19.219300
C -9.264400 -14.059600 -21.207600
C -9.264400 -10.315300 -20.964800
H -9.258200 -11.374300 -18.574300
H -9.255500 -14.724500 -21.858500
C -9.242400 -11.721600 -20.568300
C -9.238200 -12.737800 -21.553300
H -9.217500 -12.502000 -22.452300
N -9.169900 -9.263300 -20.158400
3
Fragment
H -6.587400 -13.108100 -16.373300
O -6.041100 -13.647600 -16.548600
H -5.635500 -13.874500 -15.901600
24
Fragment
H -9.519000 -10.271500 -23.011800
H -9.454100 -16.093000 -17.249600
N -9.441000 -8.497900 -22.188900
N -9.428600 -9.844500 -22.210300
C -9.409300 -15.411200 -17.881800
H -9.398300 -13.705300 -16.750400
C -9.376900 -14.089500 -17.597800
N -9.365100 -15.598300 -19.241700
H -9.353400 -16.372700 -19.650700
C -9.305100 -13.395700 -18.840600
C -9.303800 -14.382100 -19.859400
N -9.273400 -8.164400 -20.944600
C -9.267200 -12.044100 -19.219300
C -9.264400 -14.059600 -21.207600
C -9.264400 -10.315300 -20.964800
H -9.258200 -11.374300 -18.574300
H -9.255500 -14.724500 -21.858500
C -9.242400 -11.721600 -20.568300
C -9.238200 -12.737800 -21.553300
H -9.217500 -12.502000 -22.452300
N -9.169900 -9.263300 -20.158400
H -6.587400 -13.108100 -16.373300
O -6.041100 -13.647600 -16.548600
H -5.635500 -13.874500 -15.901600
