9
Fragment
H -8.367900 -19.809000 -45.582200
H -8.356600 -17.817000 -47.034400
C -8.189400 -19.745100 -46.494100
N -8.125700 -18.615000 -47.255500
H -8.020300 -21.624600 -47.116000
C -7.943600 -20.724800 -47.340800
C -7.601900 -19.041800 -48.464700
N -7.569600 -20.286500 -48.580400
H -7.302700 -18.459800 -49.126600
9
Fragment
H -10.338400 -24.511000 -42.247300
N -10.071500 -22.684300 -42.793400
C -10.039100 -23.929000 -42.909200
C -9.697500 -22.246000 -44.033100
H -9.620800 -21.346200 -44.257800
N -9.515400 -24.355800 -44.118400
C -9.451700 -23.225700 -44.879800
H -9.284500 -25.153800 -44.339500
H -9.273100 -23.161800 -45.791700
18
Fragment
H -8.367900 -19.809000 -45.582200
H -8.356600 -17.817000 -47.034400
C -8.189400 -19.745100 -46.494100
N -8.125700 -18.615000 -47.255500
H -8.020300 -21.624600 -47.116000
C -7.943600 -20.724800 -47.340800
C -7.601900 -19.041800 -48.464700
N -7.569600 -20.286500 -48.580400
H -7.302700 -18.459800 -49.126600
H -10.338400 -24.511000 -42.247300
N -10.071500 -22.684300 -42.793400
C -10.039100 -23.929000 -42.909200
C -9.697500 -22.246000 -44.033100
H -9.620800 -21.346200 -44.257800
N -9.515400 -24.355800 -44.118400
C -9.451700 -23.225700 -44.879800
H -9.284500 -25.153800 -44.339500
H -9.273100 -23.161800 -45.791700
