14
Fragment
H -19.857400 -3.560700 -24.143400
O -19.143100 -3.455200 -24.530800
N -18.387200 -4.539600 -22.613100
N -18.168300 -3.963500 -23.801500
N -17.214300 -4.912500 -22.170200
N -16.857000 -2.884000 -26.286200
C -16.856400 -4.002800 -24.065300
C -16.248000 -3.478400 -25.267300
N -16.247400 -4.597200 -23.046400
N -15.890100 -2.568700 -27.162400
N -14.936000 -3.517700 -25.531100
N -14.717200 -2.941600 -26.719500
O -13.961300 -4.026000 -24.801800
H -13.247000 -3.920500 -25.189200
14
Fragment
H -19.857400 0.179900 -24.143400
O -19.143100 0.285400 -24.530800
N -18.387200 -0.799000 -22.613100
N -18.168300 -0.222900 -23.801500
N -17.214300 -1.171900 -22.170200
N -16.857000 0.856600 -26.286200
C -16.856400 -0.262200 -24.065300
C -16.248000 0.262200 -25.267300
N -16.247400 -0.856600 -23.046400
N -15.890100 1.171900 -27.162400
N -14.936000 0.222900 -25.531100
N -14.717200 0.799000 -26.719500
O -13.961300 -0.285400 -24.801800
H -13.247000 -0.179900 -25.189200
28
Fragment
H -19.857400 -3.560700 -24.143400
O -19.143100 -3.455200 -24.530800
N -18.387200 -4.539600 -22.613100
N -18.168300 -3.963500 -23.801500
N -17.214300 -4.912500 -22.170200
N -16.857000 -2.884000 -26.286200
C -16.856400 -4.002800 -24.065300
C -16.248000 -3.478400 -25.267300
N -16.247400 -4.597200 -23.046400
N -15.890100 -2.568700 -27.162400
N -14.936000 -3.517700 -25.531100
N -14.717200 -2.941600 -26.719500
O -13.961300 -4.026000 -24.801800
H -13.247000 -3.920500 -25.189200
H -19.857400 0.179900 -24.143400
O -19.143100 0.285400 -24.530800
N -18.387200 -0.799000 -22.613100
N -18.168300 -0.222900 -23.801500
N -17.214300 -1.171900 -22.170200
N -16.857000 0.856600 -26.286200
C -16.856400 -0.262200 -24.065300
C -16.248000 0.262200 -25.267300
N -16.247400 -0.856600 -23.046400
N -15.890100 1.171900 -27.162400
N -14.936000 0.222900 -25.531100
N -14.717200 0.799000 -26.719500
O -13.961300 -0.285400 -24.801800
H -13.247000 -0.179900 -25.189200
