14
Fragment
H -19.857400 -3.560700 -24.143400
O -19.143100 -3.455200 -24.530800
N -18.387200 -4.539600 -22.613100
N -18.168300 -3.963500 -23.801500
N -17.214300 -4.912500 -22.170200
N -16.857000 -2.884000 -26.286200
C -16.856400 -4.002800 -24.065300
C -16.248000 -3.478400 -25.267300
N -16.247400 -4.597200 -23.046400
N -15.890100 -2.568700 -27.162400
N -14.936000 -3.517700 -25.531100
N -14.717200 -2.941600 -26.719500
O -13.961300 -4.026000 -24.801800
H -13.247000 -3.920500 -25.189200
10
Fragment
H -19.818200 -4.002100 -30.768700
H -19.309700 -2.766900 -31.339400
N -19.237500 -3.337400 -30.660500
N -17.947500 -3.857700 -30.626800
H -17.726000 -4.676100 -28.767500
C -17.350000 -4.462200 -29.591500
N -17.141200 -3.687500 -31.653400
C -16.080300 -4.694800 -30.005400
N -15.994300 -4.203300 -31.251200
H -15.403200 -5.111500 -29.522300
24
Fragment
H -19.857400 -3.560700 -24.143400
O -19.143100 -3.455200 -24.530800
N -18.387200 -4.539600 -22.613100
N -18.168300 -3.963500 -23.801500
N -17.214300 -4.912500 -22.170200
N -16.857000 -2.884000 -26.286200
C -16.856400 -4.002800 -24.065300
C -16.248000 -3.478400 -25.267300
N -16.247400 -4.597200 -23.046400
N -15.890100 -2.568700 -27.162400
N -14.936000 -3.517700 -25.531100
N -14.717200 -2.941600 -26.719500
O -13.961300 -4.026000 -24.801800
H -13.247000 -3.920500 -25.189200
H -19.818200 -4.002100 -30.768700
H -19.309700 -2.766900 -31.339400
N -19.237500 -3.337400 -30.660500
N -17.947500 -3.857700 -30.626800
H -17.726000 -4.676100 -28.767500
C -17.350000 -4.462200 -29.591500
N -17.141200 -3.687500 -31.653400
C -16.080300 -4.694800 -30.005400
N -15.994300 -4.203300 -31.251200
H -15.403200 -5.111500 -29.522300
