14
Fragment
H -19.857400 -3.560700 -24.143400
O -19.143100 -3.455200 -24.530800
N -18.387200 -4.539600 -22.613100
N -18.168300 -3.963500 -23.801500
N -17.214300 -4.912500 -22.170200
N -16.857000 -2.884000 -26.286200
C -16.856400 -4.002800 -24.065300
C -16.248000 -3.478400 -25.267300
N -16.247400 -4.597200 -23.046400
N -15.890100 -2.568700 -27.162400
N -14.936000 -3.517700 -25.531100
N -14.717200 -2.941600 -26.719500
O -13.961300 -4.026000 -24.801800
H -13.247000 -3.920500 -25.189200
10
Fragment
H -23.218600 -6.981800 -28.032400
N -22.627500 -6.073600 -26.303500
C -22.541500 -6.565100 -27.549300
N -21.480600 -5.557800 -25.901300
C -21.271700 -6.332500 -27.963200
H -20.895800 -6.546400 -28.787200
N -20.674300 -5.728000 -26.927900
N -19.384300 -5.207700 -26.894200
H -19.312100 -4.637200 -26.215300
H -18.803600 -5.872400 -26.786000
24
Fragment
H -19.857400 -3.560700 -24.143400
O -19.143100 -3.455200 -24.530800
N -18.387200 -4.539600 -22.613100
N -18.168300 -3.963500 -23.801500
N -17.214300 -4.912500 -22.170200
N -16.857000 -2.884000 -26.286200
C -16.856400 -4.002800 -24.065300
C -16.248000 -3.478400 -25.267300
N -16.247400 -4.597200 -23.046400
N -15.890100 -2.568700 -27.162400
N -14.936000 -3.517700 -25.531100
N -14.717200 -2.941600 -26.719500
O -13.961300 -4.026000 -24.801800
H -13.247000 -3.920500 -25.189200
H -23.218600 -6.981800 -28.032400
N -22.627500 -6.073600 -26.303500
C -22.541500 -6.565100 -27.549300
N -21.480600 -5.557800 -25.901300
C -21.271700 -6.332500 -27.963200
H -20.895800 -6.546400 -28.787200
N -20.674300 -5.728000 -26.927900
N -19.384300 -5.207700 -26.894200
H -19.312100 -4.637200 -26.215300
H -18.803600 -5.872400 -26.786000
