6
Fragment
H -10.015200 -27.549200 -17.029300
H -9.631800 -26.419400 -15.964000
C -9.274000 -27.084500 -16.589700
H -8.722700 -26.635300 -17.263900
C -8.457300 -28.049900 -15.858300
N -7.833300 -28.796000 -15.267500
6
Fragment
N -12.388200 -29.044000 -16.438500
C -11.764200 -29.790100 -15.847700
H -11.498800 -31.204700 -14.442100
C -10.947500 -30.755500 -15.116400
H -10.589700 -31.420600 -15.742100
H -10.206300 -30.290800 -14.676700
12
Fragment
H -10.015200 -27.549200 -17.029300
H -9.631800 -26.419400 -15.964000
C -9.274000 -27.084500 -16.589700
H -8.722700 -26.635300 -17.263900
C -8.457300 -28.049900 -15.858300
N -7.833300 -28.796000 -15.267500
N -12.388200 -29.044000 -16.438500
C -11.764200 -29.790100 -15.847700
H -11.498800 -31.204700 -14.442100
C -10.947500 -30.755500 -15.116400
H -10.589700 -31.420600 -15.742100
H -10.206300 -30.290800 -14.676700
