6
Fragment
H -10.015200 -27.549200 -17.029300
H -9.631800 -26.419400 -15.964000
C -9.274000 -27.084500 -16.589700
H -8.722700 -26.635300 -17.263900
C -8.457300 -28.049900 -15.858300
N -7.833300 -28.796000 -15.267500
52
Fragment
H -17.455700 -25.401400 -16.034800
H -16.972300 -23.238200 -15.193500
H -16.806400 -25.492000 -14.576300
C -16.623700 -25.254900 -15.519100
C -16.242400 -23.770300 -15.596200
H -16.177000 -23.512000 -16.549500
O -16.048200 -25.548300 -18.180200
H -15.909100 -28.305000 -14.650300
O -15.627500 -21.109500 -14.400900
N -15.577400 -26.138900 -16.041100
C -15.335700 -26.170500 -17.384400
C -15.083000 -27.895700 -14.421000
C -14.936300 -23.398400 -14.905000
O -14.930500 -23.874800 -13.598700
C -14.864800 -21.844000 -15.005400
C -14.697900 -26.722300 -15.058300
H -14.588600 -26.716300 -19.786700
H -14.556500 -29.272800 -13.025900
N -14.300000 -26.938800 -17.804000
C -14.282700 -28.473300 -13.460300
H -14.202600 -23.452200 -13.105200
H -13.943300 -19.470900 -16.206000
C -13.836800 -21.508400 -15.969300
C -13.817600 -26.839900 -19.177900
H -13.771300 -27.408400 -17.121300
N -13.718400 -23.815200 -15.693400
C -13.500900 -20.260200 -16.496700
C -13.481400 -26.108200 -14.728500
H -13.365200 -27.684200 -19.427300
H -13.261300 -24.863500 -18.968700
H -13.245800 -25.125700 -21.307500
C -13.205200 -22.681000 -16.373000
C -13.060100 -27.870400 -13.129500
C -12.928400 -24.931200 -15.463000
C -12.847100 -25.676300 -19.351300
C -12.667800 -26.712100 -13.774200
C -12.505300 -20.208900 -17.455200
H -12.503800 -28.256800 -12.464700
C -12.437900 -25.377900 -20.793900
H -12.361700 -27.304300 -21.526300
H -12.245600 -19.374500 -17.828300
C -12.202200 -22.629900 -17.350600
H -12.029900 -25.869900 -18.828100
C -11.883500 -21.383800 -17.872700
H -11.827500 -26.321100 -13.561700
H -11.826600 -24.599400 -20.796000
O -11.767000 -24.979600 -15.865700
H -11.757900 -23.417500 -17.643400
C -11.755000 -26.535600 -21.499900
H -11.524900 -26.270900 -22.414100
H -11.213200 -21.329500 -18.543800
H -10.939700 -26.778000 -21.013700
58
Fragment
H -10.015200 -27.549200 -17.029300
H -9.631800 -26.419400 -15.964000
C -9.274000 -27.084500 -16.589700
H -8.722700 -26.635300 -17.263900
C -8.457300 -28.049900 -15.858300
N -7.833300 -28.796000 -15.267500
H -17.455700 -25.401400 -16.034800
H -16.972300 -23.238200 -15.193500
H -16.806400 -25.492000 -14.576300
C -16.623700 -25.254900 -15.519100
C -16.242400 -23.770300 -15.596200
H -16.177000 -23.512000 -16.549500
O -16.048200 -25.548300 -18.180200
H -15.909100 -28.305000 -14.650300
O -15.627500 -21.109500 -14.400900
N -15.577400 -26.138900 -16.041100
C -15.335700 -26.170500 -17.384400
C -15.083000 -27.895700 -14.421000
C -14.936300 -23.398400 -14.905000
O -14.930500 -23.874800 -13.598700
C -14.864800 -21.844000 -15.005400
C -14.697900 -26.722300 -15.058300
H -14.588600 -26.716300 -19.786700
H -14.556500 -29.272800 -13.025900
N -14.300000 -26.938800 -17.804000
C -14.282700 -28.473300 -13.460300
H -14.202600 -23.452200 -13.105200
H -13.943300 -19.470900 -16.206000
C -13.836800 -21.508400 -15.969300
C -13.817600 -26.839900 -19.177900
H -13.771300 -27.408400 -17.121300
N -13.718400 -23.815200 -15.693400
C -13.500900 -20.260200 -16.496700
C -13.481400 -26.108200 -14.728500
H -13.365200 -27.684200 -19.427300
H -13.261300 -24.863500 -18.968700
H -13.245800 -25.125700 -21.307500
C -13.205200 -22.681000 -16.373000
C -13.060100 -27.870400 -13.129500
C -12.928400 -24.931200 -15.463000
C -12.847100 -25.676300 -19.351300
C -12.667800 -26.712100 -13.774200
C -12.505300 -20.208900 -17.455200
H -12.503800 -28.256800 -12.464700
C -12.437900 -25.377900 -20.793900
H -12.361700 -27.304300 -21.526300
H -12.245600 -19.374500 -17.828300
C -12.202200 -22.629900 -17.350600
H -12.029900 -25.869900 -18.828100
C -11.883500 -21.383800 -17.872700
H -11.827500 -26.321100 -13.561700
H -11.826600 -24.599400 -20.796000
O -11.767000 -24.979600 -15.865700
H -11.757900 -23.417500 -17.643400
C -11.755000 -26.535600 -21.499900
H -11.524900 -26.270900 -22.414100
H -11.213200 -21.329500 -18.543800
H -10.939700 -26.778000 -21.013700
