6
Fragment
H -10.015200 -27.549200 -17.029300
H -9.631800 -26.419400 -15.964000
C -9.274000 -27.084500 -16.589700
H -8.722700 -26.635300 -17.263900
C -8.457300 -28.049900 -15.858300
N -7.833300 -28.796000 -15.267500
52
Fragment
H -9.281800 -31.062000 -10.692300
H -9.008300 -36.510500 -13.162200
H -8.696600 -31.569100 -9.292000
C -8.466500 -31.304400 -10.206200
H -8.463600 -34.422500 -14.062700
O -8.454500 -32.860400 -15.840300
H -8.394900 -33.240600 -10.910000
H -8.394000 -31.518900 -18.144300
C -8.338000 -36.456200 -13.833300
H -8.191600 -31.970100 -12.877900
C -8.019300 -35.210100 -14.355400
H -7.975900 -38.465500 -13.877700
H -7.859700 -30.535700 -10.179800
C -7.783600 -32.462100 -10.912200
H -7.717700 -29.583200 -19.241300
C -7.716200 -37.631100 -14.250800
C -7.553700 -31.127900 -17.931900
C -7.374400 -32.163700 -12.354800
C -7.293100 -32.908800 -16.243000
C -7.161400 -29.969600 -18.576600
C -7.016300 -35.159000 -15.333000
H -6.975700 -32.714300 -10.398500
H -6.960200 -32.976500 -12.737400
H -6.856300 -30.155800 -12.278700
C -6.740100 -31.731800 -16.977500
C -6.720600 -37.579800 -15.209400
N -6.503100 -34.024800 -16.012600
H -6.450200 -30.431600 -14.584800
C -6.403900 -31.000100 -12.528100
C -6.384700 -36.331600 -15.736800
H -6.278100 -38.369100 -15.500000
H -6.018900 -34.387800 -18.600900
C -5.938800 -29.366700 -18.245800
N -5.921500 -30.901200 -13.902000
H -5.665000 -28.567200 -18.680100
H -5.632800 -31.123700 -11.919400
C -5.523600 -31.117700 -16.647800
C -5.356700 -35.996000 -16.700600
O -5.291000 -33.965200 -18.107300
C -5.285200 -34.441600 -16.801000
C -5.138500 -29.944300 -17.285100
C -4.885800 -31.669500 -14.321600
N -4.644100 -31.701100 -15.664900
O -4.594000 -36.730500 -17.305200
H -4.312400 -29.535000 -17.055700
O -4.173300 -32.291700 -13.525800
H -4.044400 -34.328000 -15.156500
C -3.979100 -34.069700 -16.109800
C -3.597800 -32.585100 -16.187000
H -3.415100 -32.348000 -17.129700
H -3.249200 -34.601800 -16.512500
H -2.765800 -32.438600 -15.671200
58
Fragment
H -10.015200 -27.549200 -17.029300
H -9.631800 -26.419400 -15.964000
C -9.274000 -27.084500 -16.589700
H -8.722700 -26.635300 -17.263900
C -8.457300 -28.049900 -15.858300
N -7.833300 -28.796000 -15.267500
H -9.281800 -31.062000 -10.692300
H -9.008300 -36.510500 -13.162200
H -8.696600 -31.569100 -9.292000
C -8.466500 -31.304400 -10.206200
H -8.463600 -34.422500 -14.062700
O -8.454500 -32.860400 -15.840300
H -8.394900 -33.240600 -10.910000
H -8.394000 -31.518900 -18.144300
C -8.338000 -36.456200 -13.833300
H -8.191600 -31.970100 -12.877900
C -8.019300 -35.210100 -14.355400
H -7.975900 -38.465500 -13.877700
H -7.859700 -30.535700 -10.179800
C -7.783600 -32.462100 -10.912200
H -7.717700 -29.583200 -19.241300
C -7.716200 -37.631100 -14.250800
C -7.553700 -31.127900 -17.931900
C -7.374400 -32.163700 -12.354800
C -7.293100 -32.908800 -16.243000
C -7.161400 -29.969600 -18.576600
C -7.016300 -35.159000 -15.333000
H -6.975700 -32.714300 -10.398500
H -6.960200 -32.976500 -12.737400
H -6.856300 -30.155800 -12.278700
C -6.740100 -31.731800 -16.977500
C -6.720600 -37.579800 -15.209400
N -6.503100 -34.024800 -16.012600
H -6.450200 -30.431600 -14.584800
C -6.403900 -31.000100 -12.528100
C -6.384700 -36.331600 -15.736800
H -6.278100 -38.369100 -15.500000
H -6.018900 -34.387800 -18.600900
C -5.938800 -29.366700 -18.245800
N -5.921500 -30.901200 -13.902000
H -5.665000 -28.567200 -18.680100
H -5.632800 -31.123700 -11.919400
C -5.523600 -31.117700 -16.647800
C -5.356700 -35.996000 -16.700600
O -5.291000 -33.965200 -18.107300
C -5.285200 -34.441600 -16.801000
C -5.138500 -29.944300 -17.285100
C -4.885800 -31.669500 -14.321600
N -4.644100 -31.701100 -15.664900
O -4.594000 -36.730500 -17.305200
H -4.312400 -29.535000 -17.055700
O -4.173300 -32.291700 -13.525800
H -4.044400 -34.328000 -15.156500
C -3.979100 -34.069700 -16.109800
C -3.597800 -32.585100 -16.187000
H -3.415100 -32.348000 -17.129700
H -3.249200 -34.601800 -16.512500
H -2.765800 -32.438600 -15.671200
