6
Fragment
H -10.015200 -27.549200 -17.029300
H -9.631800 -26.419400 -15.964000
C -9.274000 -27.084500 -16.589700
H -8.722700 -26.635300 -17.263900
C -8.457300 -28.049900 -15.858300
N -7.833300 -28.796000 -15.267500
52
Fragment
H -6.612700 -25.401400 -16.034800
H -6.129300 -23.238200 -15.193500
H -5.963400 -25.492000 -14.576300
C -5.780700 -25.254900 -15.519100
C -5.399400 -23.770300 -15.596200
H -5.334000 -23.512000 -16.549500
O -5.205200 -25.548300 -18.180200
H -5.066100 -28.305000 -14.650300
O -4.784500 -21.109500 -14.400900
N -4.734400 -26.138900 -16.041100
C -4.492700 -26.170500 -17.384400
C -4.240000 -27.895700 -14.421000
C -4.093300 -23.398400 -14.905000
O -4.087500 -23.874800 -13.598700
C -4.021800 -21.844000 -15.005400
C -3.854900 -26.722300 -15.058300
H -3.745600 -26.716300 -19.786700
H -3.713500 -29.272800 -13.025900
N -3.457000 -26.938800 -17.804000
C -3.439700 -28.473300 -13.460300
H -3.359600 -23.452200 -13.105200
H -3.100300 -19.470900 -16.206000
C -2.993800 -21.508400 -15.969300
C -2.974600 -26.839900 -19.177900
H -2.928300 -27.408400 -17.121300
N -2.875400 -23.815200 -15.693400
C -2.657900 -20.260200 -16.496700
C -2.638400 -26.108200 -14.728500
H -2.522200 -27.684200 -19.427300
H -2.418300 -24.863500 -18.968700
H -2.402800 -25.125700 -21.307500
C -2.362200 -22.681000 -16.373000
C -2.217100 -27.870400 -13.129500
C -2.085400 -24.931200 -15.463000
C -2.004100 -25.676300 -19.351300
C -1.824800 -26.712100 -13.774200
C -1.662300 -20.208900 -17.455200
H -1.660800 -28.256800 -12.464700
C -1.594900 -25.377900 -20.793900
H -1.518700 -27.304300 -21.526300
H -1.402600 -19.374500 -17.828300
C -1.359200 -22.629900 -17.350600
H -1.186900 -25.869900 -18.828100
C -1.040500 -21.383800 -17.872700
H -0.984500 -26.321100 -13.561700
H -0.983600 -24.599400 -20.796000
O -0.924000 -24.979600 -15.865700
H -0.914900 -23.417500 -17.643400
C -0.912000 -26.535600 -21.499900
H -0.681900 -26.270900 -22.414100
H -0.370200 -21.329500 -18.543800
H -0.096700 -26.778000 -21.013700
58
Fragment
H -10.015200 -27.549200 -17.029300
H -9.631800 -26.419400 -15.964000
C -9.274000 -27.084500 -16.589700
H -8.722700 -26.635300 -17.263900
C -8.457300 -28.049900 -15.858300
N -7.833300 -28.796000 -15.267500
H -6.612700 -25.401400 -16.034800
H -6.129300 -23.238200 -15.193500
H -5.963400 -25.492000 -14.576300
C -5.780700 -25.254900 -15.519100
C -5.399400 -23.770300 -15.596200
H -5.334000 -23.512000 -16.549500
O -5.205200 -25.548300 -18.180200
H -5.066100 -28.305000 -14.650300
O -4.784500 -21.109500 -14.400900
N -4.734400 -26.138900 -16.041100
C -4.492700 -26.170500 -17.384400
C -4.240000 -27.895700 -14.421000
C -4.093300 -23.398400 -14.905000
O -4.087500 -23.874800 -13.598700
C -4.021800 -21.844000 -15.005400
C -3.854900 -26.722300 -15.058300
H -3.745600 -26.716300 -19.786700
H -3.713500 -29.272800 -13.025900
N -3.457000 -26.938800 -17.804000
C -3.439700 -28.473300 -13.460300
H -3.359600 -23.452200 -13.105200
H -3.100300 -19.470900 -16.206000
C -2.993800 -21.508400 -15.969300
C -2.974600 -26.839900 -19.177900
H -2.928300 -27.408400 -17.121300
N -2.875400 -23.815200 -15.693400
C -2.657900 -20.260200 -16.496700
C -2.638400 -26.108200 -14.728500
H -2.522200 -27.684200 -19.427300
H -2.418300 -24.863500 -18.968700
H -2.402800 -25.125700 -21.307500
C -2.362200 -22.681000 -16.373000
C -2.217100 -27.870400 -13.129500
C -2.085400 -24.931200 -15.463000
C -2.004100 -25.676300 -19.351300
C -1.824800 -26.712100 -13.774200
C -1.662300 -20.208900 -17.455200
H -1.660800 -28.256800 -12.464700
C -1.594900 -25.377900 -20.793900
H -1.518700 -27.304300 -21.526300
H -1.402600 -19.374500 -17.828300
C -1.359200 -22.629900 -17.350600
H -1.186900 -25.869900 -18.828100
C -1.040500 -21.383800 -17.872700
H -0.984500 -26.321100 -13.561700
H -0.983600 -24.599400 -20.796000
O -0.924000 -24.979600 -15.865700
H -0.914900 -23.417500 -17.643400
C -0.912000 -26.535600 -21.499900
H -0.681900 -26.270900 -22.414100
H -0.370200 -21.329500 -18.543800
H -0.096700 -26.778000 -21.013700
