24
Fragment
H -8.490300 -19.778500 -18.098300
H -7.926600 -19.042400 -16.794100
C -7.713000 -19.676000 -17.510900
H -7.480800 -20.543900 -17.120200
H -6.724900 -17.168100 -18.042200
N -6.575300 -19.169400 -18.289500
C -6.250200 -17.886600 -18.443800
O -6.230200 -22.185600 -18.757100
C -5.656500 -19.905200 -19.015700
C -5.504000 -21.307100 -19.216100
N -5.175800 -17.724400 -19.231100
H -4.809200 -23.444800 -20.767800
C -4.806200 -18.988400 -19.574900
N -4.406100 -21.607000 -20.025500
C -4.096000 -23.030800 -20.239300
H -4.026300 -23.483300 -19.372300
N -3.761600 -19.346800 -20.378500
C -3.535700 -20.689700 -20.632100
H -3.303400 -17.719900 -21.477000
H -3.245500 -23.111900 -20.718000
C -2.827400 -18.336000 -20.882500
O -2.636400 -21.059400 -21.361200
H -2.448500 -17.836600 -20.129300
H -2.105900 -18.777100 -21.378400
24
Fragment
H -6.319400 -13.382500 -23.290000
H -5.755700 -14.118600 -21.985800
C -5.542100 -13.485000 -22.702600
H -5.309900 -12.617100 -22.311900
H -4.554000 -15.992900 -23.233900
N -4.404400 -13.991600 -23.481200
C -4.079300 -15.274400 -23.635500
O -4.059300 -10.975400 -23.948800
C -3.485700 -13.255800 -24.207500
C -3.333100 -11.853900 -24.407900
N -3.004900 -15.436600 -24.422800
H -2.638300 -9.716200 -25.959500
C -2.635300 -14.172600 -24.766600
N -2.235200 -11.554000 -25.217200
C -1.925100 -10.130200 -25.431000
H -1.855400 -9.677700 -24.564000
N -1.590700 -13.814200 -25.570200
C -1.364800 -12.471300 -25.823800
H -1.132500 -15.441100 -26.668700
H -1.074700 -10.049100 -25.909700
C -0.656600 -14.825000 -26.074200
O -0.465500 -12.101600 -26.552900
H -0.277600 -15.324400 -25.321000
H 0.064900 -14.383900 -26.570100
48
Fragment
H -8.490300 -19.778500 -18.098300
H -7.926600 -19.042400 -16.794100
C -7.713000 -19.676000 -17.510900
H -7.480800 -20.543900 -17.120200
H -6.724900 -17.168100 -18.042200
N -6.575300 -19.169400 -18.289500
C -6.250200 -17.886600 -18.443800
O -6.230200 -22.185600 -18.757100
C -5.656500 -19.905200 -19.015700
C -5.504000 -21.307100 -19.216100
N -5.175800 -17.724400 -19.231100
H -4.809200 -23.444800 -20.767800
C -4.806200 -18.988400 -19.574900
N -4.406100 -21.607000 -20.025500
C -4.096000 -23.030800 -20.239300
H -4.026300 -23.483300 -19.372300
N -3.761600 -19.346800 -20.378500
C -3.535700 -20.689700 -20.632100
H -3.303400 -17.719900 -21.477000
H -3.245500 -23.111900 -20.718000
C -2.827400 -18.336000 -20.882500
O -2.636400 -21.059400 -21.361200
H -2.448500 -17.836600 -20.129300
H -2.105900 -18.777100 -21.378400
H -6.319400 -13.382500 -23.290000
H -5.755700 -14.118600 -21.985800
C -5.542100 -13.485000 -22.702600
H -5.309900 -12.617100 -22.311900
H -4.554000 -15.992900 -23.233900
N -4.404400 -13.991600 -23.481200
C -4.079300 -15.274400 -23.635500
O -4.059300 -10.975400 -23.948800
C -3.485700 -13.255800 -24.207500
C -3.333100 -11.853900 -24.407900
N -3.004900 -15.436600 -24.422800
H -2.638300 -9.716200 -25.959500
C -2.635300 -14.172600 -24.766600
N -2.235200 -11.554000 -25.217200
C -1.925100 -10.130200 -25.431000
H -1.855400 -9.677700 -24.564000
N -1.590700 -13.814200 -25.570200
C -1.364800 -12.471300 -25.823800
H -1.132500 -15.441100 -26.668700
H -1.074700 -10.049100 -25.909700
C -0.656600 -14.825000 -26.074200
O -0.465500 -12.101600 -26.552900
H -0.277600 -15.324400 -25.321000
H 0.064900 -14.383900 -26.570100
