24
Fragment
H -8.490300 -19.778500 -18.098300
H -7.926600 -19.042400 -16.794100
C -7.713000 -19.676000 -17.510900
H -7.480800 -20.543900 -17.120200
H -6.724900 -17.168100 -18.042200
N -6.575300 -19.169400 -18.289500
C -6.250200 -17.886600 -18.443800
O -6.230200 -22.185600 -18.757100
C -5.656500 -19.905200 -19.015700
C -5.504000 -21.307100 -19.216100
N -5.175800 -17.724400 -19.231100
H -4.809200 -23.444800 -20.767800
C -4.806200 -18.988400 -19.574900
N -4.406100 -21.607000 -20.025500
C -4.096000 -23.030800 -20.239300
H -4.026300 -23.483300 -19.372300
N -3.761600 -19.346800 -20.378500
C -3.535700 -20.689700 -20.632100
H -3.303400 -17.719900 -21.477000
H -3.245500 -23.111900 -20.718000
C -2.827400 -18.336000 -20.882500
O -2.636400 -21.059400 -21.361200
H -2.448500 -17.836600 -20.129300
H -2.105900 -18.777100 -21.378400
24
Fragment
H -0.173400 -21.016100 -20.155200
H 0.169200 -21.956600 -21.404300
O 0.357100 -18.733800 -20.172500
C 0.548100 -21.457200 -20.651100
H 0.966200 -16.681300 -20.815600
H 1.024100 -22.073300 -20.056600
C 1.256300 -19.103500 -20.901500
N 1.482300 -20.446400 -21.155100
H 1.747000 -16.309900 -22.161300
C 1.816700 -16.762400 -21.294300
N 2.126800 -18.186200 -21.508100
C 2.526900 -20.804800 -21.958700
H 2.529900 -16.348400 -20.765800
N 2.896500 -22.068800 -22.302500
C 3.224700 -18.486100 -22.317500
C 3.377200 -19.888000 -22.517900
O 3.950900 -17.607600 -22.776500
C 3.970900 -21.906600 -23.089800
N 4.296000 -20.623800 -23.244100
H 4.445600 -22.625100 -23.491400
H 5.201500 -19.249300 -24.413500
C 5.433700 -20.117200 -24.022700
H 5.647200 -20.750800 -24.739500
H 6.211000 -20.014700 -23.435300
48
Fragment
H -8.490300 -19.778500 -18.098300
H -7.926600 -19.042400 -16.794100
C -7.713000 -19.676000 -17.510900
H -7.480800 -20.543900 -17.120200
H -6.724900 -17.168100 -18.042200
N -6.575300 -19.169400 -18.289500
C -6.250200 -17.886600 -18.443800
O -6.230200 -22.185600 -18.757100
C -5.656500 -19.905200 -19.015700
C -5.504000 -21.307100 -19.216100
N -5.175800 -17.724400 -19.231100
H -4.809200 -23.444800 -20.767800
C -4.806200 -18.988400 -19.574900
N -4.406100 -21.607000 -20.025500
C -4.096000 -23.030800 -20.239300
H -4.026300 -23.483300 -19.372300
N -3.761600 -19.346800 -20.378500
C -3.535700 -20.689700 -20.632100
H -3.303400 -17.719900 -21.477000
H -3.245500 -23.111900 -20.718000
C -2.827400 -18.336000 -20.882500
O -2.636400 -21.059400 -21.361200
H -2.448500 -17.836600 -20.129300
H -2.105900 -18.777100 -21.378400
H -0.173400 -21.016100 -20.155200
H 0.169200 -21.956600 -21.404300
O 0.357100 -18.733800 -20.172500
C 0.548100 -21.457200 -20.651100
H 0.966200 -16.681300 -20.815600
H 1.024100 -22.073300 -20.056600
C 1.256300 -19.103500 -20.901500
N 1.482300 -20.446400 -21.155100
H 1.747000 -16.309900 -22.161300
C 1.816700 -16.762400 -21.294300
N 2.126800 -18.186200 -21.508100
C 2.526900 -20.804800 -21.958700
H 2.529900 -16.348400 -20.765800
N 2.896500 -22.068800 -22.302500
C 3.224700 -18.486100 -22.317500
C 3.377200 -19.888000 -22.517900
O 3.950900 -17.607600 -22.776500
C 3.970900 -21.906600 -23.089800
N 4.296000 -20.623800 -23.244100
H 4.445600 -22.625100 -23.491400
H 5.201500 -19.249300 -24.413500
C 5.433700 -20.117200 -24.022700
H 5.647200 -20.750800 -24.739500
H 6.211000 -20.014700 -23.435300
