24
Fragment
H -8.490300 -19.778500 -18.098300
H -7.926600 -19.042400 -16.794100
C -7.713000 -19.676000 -17.510900
H -7.480800 -20.543900 -17.120200
H -6.724900 -17.168100 -18.042200
N -6.575300 -19.169400 -18.289500
C -6.250200 -17.886600 -18.443800
O -6.230200 -22.185600 -18.757100
C -5.656500 -19.905200 -19.015700
C -5.504000 -21.307100 -19.216100
N -5.175800 -17.724400 -19.231100
H -4.809200 -23.444800 -20.767800
C -4.806200 -18.988400 -19.574900
N -4.406100 -21.607000 -20.025500
C -4.096000 -23.030800 -20.239300
H -4.026300 -23.483300 -19.372300
N -3.761600 -19.346800 -20.378500
C -3.535700 -20.689700 -20.632100
H -3.303400 -17.719900 -21.477000
H -3.245500 -23.111900 -20.718000
C -2.827400 -18.336000 -20.882500
O -2.636400 -21.059400 -21.361200
H -2.448500 -17.836600 -20.129300
H -2.105900 -18.777100 -21.378400
20
Fragment
H -4.514800 -16.195800 -19.637100
O -4.283600 -15.414600 -19.842700
F -3.598500 -12.935400 -20.182500
C -3.291500 -15.049300 -19.099300
O -2.809800 -15.618800 -18.158300
C -2.681300 -13.694800 -19.544000
F -2.275800 -13.012100 -18.459200
F -1.872400 -14.670400 -21.511000
F -1.737100 -11.934900 -21.741100
C -1.469000 -13.903100 -20.482100
C -0.810300 -12.625700 -21.051500
F -0.542200 -14.593900 -19.792500
F -0.406900 -11.858400 -20.022600
F -0.003500 -13.516700 -23.074400
C 0.402000 -12.834000 -21.989700
O 0.530400 -10.910000 -23.375300
C 1.012200 -11.479500 -22.434300
F 1.319200 -13.593400 -21.351100
O 2.004200 -11.114200 -21.690900
H 2.235500 -10.333000 -21.896500
44
Fragment
H -8.490300 -19.778500 -18.098300
H -7.926600 -19.042400 -16.794100
C -7.713000 -19.676000 -17.510900
H -7.480800 -20.543900 -17.120200
H -6.724900 -17.168100 -18.042200
N -6.575300 -19.169400 -18.289500
C -6.250200 -17.886600 -18.443800
O -6.230200 -22.185600 -18.757100
C -5.656500 -19.905200 -19.015700
C -5.504000 -21.307100 -19.216100
N -5.175800 -17.724400 -19.231100
H -4.809200 -23.444800 -20.767800
C -4.806200 -18.988400 -19.574900
N -4.406100 -21.607000 -20.025500
C -4.096000 -23.030800 -20.239300
H -4.026300 -23.483300 -19.372300
N -3.761600 -19.346800 -20.378500
C -3.535700 -20.689700 -20.632100
H -3.303400 -17.719900 -21.477000
H -3.245500 -23.111900 -20.718000
C -2.827400 -18.336000 -20.882500
O -2.636400 -21.059400 -21.361200
H -2.448500 -17.836600 -20.129300
H -2.105900 -18.777100 -21.378400
H -4.514800 -16.195800 -19.637100
O -4.283600 -15.414600 -19.842700
F -3.598500 -12.935400 -20.182500
C -3.291500 -15.049300 -19.099300
O -2.809800 -15.618800 -18.158300
C -2.681300 -13.694800 -19.544000
F -2.275800 -13.012100 -18.459200
F -1.872400 -14.670400 -21.511000
F -1.737100 -11.934900 -21.741100
C -1.469000 -13.903100 -20.482100
C -0.810300 -12.625700 -21.051500
F -0.542200 -14.593900 -19.792500
F -0.406900 -11.858400 -20.022600
F -0.003500 -13.516700 -23.074400
C 0.402000 -12.834000 -21.989700
O 0.530400 -10.910000 -23.375300
C 1.012200 -11.479500 -22.434300
F 1.319200 -13.593400 -21.351100
O 2.004200 -11.114200 -21.690900
H 2.235500 -10.333000 -21.896500
