24
Fragment
H -8.490300 -19.778500 -18.098300
H -7.926600 -19.042400 -16.794100
C -7.713000 -19.676000 -17.510900
H -7.480800 -20.543900 -17.120200
H -6.724900 -17.168100 -18.042200
N -6.575300 -19.169400 -18.289500
C -6.250200 -17.886600 -18.443800
O -6.230200 -22.185600 -18.757100
C -5.656500 -19.905200 -19.015700
C -5.504000 -21.307100 -19.216100
N -5.175800 -17.724400 -19.231100
H -4.809200 -23.444800 -20.767800
C -4.806200 -18.988400 -19.574900
N -4.406100 -21.607000 -20.025500
C -4.096000 -23.030800 -20.239300
H -4.026300 -23.483300 -19.372300
N -3.761600 -19.346800 -20.378500
C -3.535700 -20.689700 -20.632100
H -3.303400 -17.719900 -21.477000
H -3.245500 -23.111900 -20.718000
C -2.827400 -18.336000 -20.882500
O -2.636400 -21.059400 -21.361200
H -2.448500 -17.836600 -20.129300
H -2.105900 -18.777100 -21.378400
24
Fragment
H -12.167500 -25.409300 -14.963500
H -11.824900 -24.468800 -16.212600
O -11.637000 -27.691600 -14.980800
C -11.446000 -24.968200 -15.459400
H -11.027900 -29.744100 -15.623900
H -10.970000 -24.352100 -14.864900
C -10.737700 -27.321900 -15.709800
N -10.511800 -25.979000 -15.963400
H -10.247100 -30.115500 -16.969600
C -10.177400 -29.663000 -16.102600
N -9.867300 -28.239200 -16.316400
C -9.467200 -25.620600 -16.767000
H -9.464200 -30.077000 -15.574100
N -9.097600 -24.356600 -17.110800
C -8.769400 -27.939300 -17.125800
C -8.616900 -26.537400 -17.326200
O -8.043200 -28.817800 -17.584800
C -8.023200 -24.518800 -17.898100
N -7.698100 -25.801600 -18.052400
H -7.548500 -23.800300 -18.299700
H -6.792600 -27.176100 -19.221800
C -6.560400 -26.308200 -18.831000
H -6.346800 -25.674600 -19.547800
H -5.783100 -26.410700 -18.243600
48
Fragment
H -8.490300 -19.778500 -18.098300
H -7.926600 -19.042400 -16.794100
C -7.713000 -19.676000 -17.510900
H -7.480800 -20.543900 -17.120200
H -6.724900 -17.168100 -18.042200
N -6.575300 -19.169400 -18.289500
C -6.250200 -17.886600 -18.443800
O -6.230200 -22.185600 -18.757100
C -5.656500 -19.905200 -19.015700
C -5.504000 -21.307100 -19.216100
N -5.175800 -17.724400 -19.231100
H -4.809200 -23.444800 -20.767800
C -4.806200 -18.988400 -19.574900
N -4.406100 -21.607000 -20.025500
C -4.096000 -23.030800 -20.239300
H -4.026300 -23.483300 -19.372300
N -3.761600 -19.346800 -20.378500
C -3.535700 -20.689700 -20.632100
H -3.303400 -17.719900 -21.477000
H -3.245500 -23.111900 -20.718000
C -2.827400 -18.336000 -20.882500
O -2.636400 -21.059400 -21.361200
H -2.448500 -17.836600 -20.129300
H -2.105900 -18.777100 -21.378400
H -12.167500 -25.409300 -14.963500
H -11.824900 -24.468800 -16.212600
O -11.637000 -27.691600 -14.980800
C -11.446000 -24.968200 -15.459400
H -11.027900 -29.744100 -15.623900
H -10.970000 -24.352100 -14.864900
C -10.737700 -27.321900 -15.709800
N -10.511800 -25.979000 -15.963400
H -10.247100 -30.115500 -16.969600
C -10.177400 -29.663000 -16.102600
N -9.867300 -28.239200 -16.316400
C -9.467200 -25.620600 -16.767000
H -9.464200 -30.077000 -15.574100
N -9.097600 -24.356600 -17.110800
C -8.769400 -27.939300 -17.125800
C -8.616900 -26.537400 -17.326200
O -8.043200 -28.817800 -17.584800
C -8.023200 -24.518800 -17.898100
N -7.698100 -25.801600 -18.052400
H -7.548500 -23.800300 -18.299700
H -6.792600 -27.176100 -19.221800
C -6.560400 -26.308200 -18.831000
H -6.346800 -25.674600 -19.547800
H -5.783100 -26.410700 -18.243600
