3
Fragment
H -3.390300 -10.399400 -12.552600
O -2.763500 -9.982400 -12.892100
H -2.346200 -10.570500 -13.291000
16
Fragment
O -2.517700 -13.059200 -12.650500
N -1.547800 -13.182200 -13.377600
N -1.516300 -15.548500 -13.001500
C -0.998300 -14.487700 -13.612300
O -0.993700 -12.249300 -13.946500
H -0.925600 -17.419000 -13.186500
N -0.796500 -16.605800 -13.433600
C 0.068100 -14.839900 -14.454200
C 0.162000 -16.208200 -14.314200
N 1.026600 -14.442300 -15.334800
H 1.155700 -13.629000 -15.582000
O 1.223900 -18.798800 -14.822000
C 1.228500 -16.560300 -15.156200
N 1.746500 -15.499600 -15.766900
N 1.778000 -17.865900 -15.390800
O 2.747900 -17.988900 -16.118000
19
Fragment
H -3.390300 -10.399400 -12.552600
O -2.763500 -9.982400 -12.892100
H -2.346200 -10.570500 -13.291000
O -2.517700 -13.059200 -12.650500
N -1.547800 -13.182200 -13.377600
N -1.516300 -15.548500 -13.001500
C -0.998300 -14.487700 -13.612300
O -0.993700 -12.249300 -13.946500
H -0.925600 -17.419000 -13.186500
N -0.796500 -16.605800 -13.433600
C 0.068100 -14.839900 -14.454200
C 0.162000 -16.208200 -14.314200
N 1.026600 -14.442300 -15.334800
H 1.155700 -13.629000 -15.582000
O 1.223900 -18.798800 -14.822000
C 1.228500 -16.560300 -15.156200
N 1.746500 -15.499600 -15.766900
N 1.778000 -17.865900 -15.390800
O 2.747900 -17.988900 -16.118000
