3
Fragment
H -3.390300 -10.399400 -12.552600
O -2.763500 -9.982400 -12.892100
H -2.346200 -10.570500 -13.291000
16
Fragment
O -4.165600 -3.809900 -12.650500
N -3.195700 -3.932800 -13.377600
N -3.164200 -6.299100 -13.001500
C -2.646200 -5.238400 -13.612300
O -2.641600 -2.999900 -13.946500
H -2.573500 -8.169700 -13.186500
N -2.444400 -7.356400 -13.433600
C -1.579800 -5.590600 -14.454200
C -1.485800 -6.958800 -14.314200
N -0.621300 -5.192900 -15.334800
H -0.492200 -4.379700 -15.582000
O -0.424000 -9.549400 -14.822000
C -0.419400 -7.311000 -15.156200
N 0.098600 -6.250200 -15.766900
N 0.130100 -8.616600 -15.390800
O 1.100000 -8.739500 -16.118000
19
Fragment
H -3.390300 -10.399400 -12.552600
O -2.763500 -9.982400 -12.892100
H -2.346200 -10.570500 -13.291000
O -4.165600 -3.809900 -12.650500
N -3.195700 -3.932800 -13.377600
N -3.164200 -6.299100 -13.001500
C -2.646200 -5.238400 -13.612300
O -2.641600 -2.999900 -13.946500
H -2.573500 -8.169700 -13.186500
N -2.444400 -7.356400 -13.433600
C -1.579800 -5.590600 -14.454200
C -1.485800 -6.958800 -14.314200
N -0.621300 -5.192900 -15.334800
H -0.492200 -4.379700 -15.582000
O -0.424000 -9.549400 -14.822000
C -0.419400 -7.311000 -15.156200
N 0.098600 -6.250200 -15.766900
N 0.130100 -8.616600 -15.390800
O 1.100000 -8.739500 -16.118000
