30
Fragment
H -8.211300 -12.780700 -17.298700
H -7.745200 -11.392500 -17.571000
N -7.634200 -12.242400 -17.640500
C -6.558100 -12.729700 -18.281100
N -6.438900 -14.059500 -18.356700
H -5.847800 -16.382100 -18.760900
N -5.703000 -11.828600 -18.789700
C -5.359600 -14.537100 -18.997200
N -5.243700 -15.871900 -19.099200
H -4.998600 -10.471600 -21.214000
C -4.617200 -12.328100 -19.415900
H -4.566400 -16.214800 -19.502200
C -4.384300 -13.680800 -19.546600
C -4.107600 -10.821800 -21.289600
H -4.101100 -11.546100 -21.919300
H -3.928000 -14.434200 -22.046500
C -3.660900 -11.306100 -19.980900
H -3.590200 -10.557800 -19.367900
H -3.517000 -10.128300 -21.593000
C -3.169900 -14.251300 -20.194400
C -3.162700 -14.577400 -21.537900
H -2.780400 -11.703700 -20.069600
H -2.047200 -15.335500 -23.045700
C -2.037100 -15.113900 -22.142400
C -2.029800 -14.501800 -19.459100
H -2.025100 -14.314900 -18.548600
C -0.913000 -15.313700 -21.395100
C -0.886600 -15.025500 -20.052800
H -0.119300 -15.179400 -19.550200
Cl 0.526800 -15.943200 -22.140600
24
Fragment
H -14.179400 -11.889800 -11.221800
N -13.562100 -12.350100 -13.175800
H -13.545100 -12.744200 -15.558100
C -13.462700 -12.177900 -11.740000
H -12.743600 -12.284200 -9.372100
H -12.706100 -13.878500 -16.240700
C -12.661500 -13.020200 -15.813600
C -12.310100 -12.772800 -13.384500
H -12.289900 -12.378200 -16.424200
N -12.184200 -12.480800 -11.179800
C -11.924300 -12.250400 -9.872300
N -11.817700 -13.109100 -14.629700
C -11.525800 -12.843900 -12.294200
H -11.525800 -11.383700 -9.772700
H -11.321400 -12.920500 -9.542400
C -10.507600 -13.506700 -14.783200
C -10.189200 -13.273300 -12.356500
O -10.041000 -13.772700 -15.890400
N -9.745600 -13.586200 -13.644800
O -9.437700 -13.367700 -11.368100
C -8.352100 -14.006500 -13.802000
H -8.324800 -14.915300 -14.110300
H -7.916900 -13.438500 -14.440100
H -7.901600 -13.941800 -12.956300
54
Fragment
H -8.211300 -12.780700 -17.298700
H -7.745200 -11.392500 -17.571000
N -7.634200 -12.242400 -17.640500
C -6.558100 -12.729700 -18.281100
N -6.438900 -14.059500 -18.356700
H -5.847800 -16.382100 -18.760900
N -5.703000 -11.828600 -18.789700
C -5.359600 -14.537100 -18.997200
N -5.243700 -15.871900 -19.099200
H -4.998600 -10.471600 -21.214000
C -4.617200 -12.328100 -19.415900
H -4.566400 -16.214800 -19.502200
C -4.384300 -13.680800 -19.546600
C -4.107600 -10.821800 -21.289600
H -4.101100 -11.546100 -21.919300
H -3.928000 -14.434200 -22.046500
C -3.660900 -11.306100 -19.980900
H -3.590200 -10.557800 -19.367900
H -3.517000 -10.128300 -21.593000
C -3.169900 -14.251300 -20.194400
C -3.162700 -14.577400 -21.537900
H -2.780400 -11.703700 -20.069600
H -2.047200 -15.335500 -23.045700
C -2.037100 -15.113900 -22.142400
C -2.029800 -14.501800 -19.459100
H -2.025100 -14.314900 -18.548600
C -0.913000 -15.313700 -21.395100
C -0.886600 -15.025500 -20.052800
H -0.119300 -15.179400 -19.550200
Cl 0.526800 -15.943200 -22.140600
H -14.179400 -11.889800 -11.221800
N -13.562100 -12.350100 -13.175800
H -13.545100 -12.744200 -15.558100
C -13.462700 -12.177900 -11.740000
H -12.743600 -12.284200 -9.372100
H -12.706100 -13.878500 -16.240700
C -12.661500 -13.020200 -15.813600
C -12.310100 -12.772800 -13.384500
H -12.289900 -12.378200 -16.424200
N -12.184200 -12.480800 -11.179800
C -11.924300 -12.250400 -9.872300
N -11.817700 -13.109100 -14.629700
C -11.525800 -12.843900 -12.294200
H -11.525800 -11.383700 -9.772700
H -11.321400 -12.920500 -9.542400
C -10.507600 -13.506700 -14.783200
C -10.189200 -13.273300 -12.356500
O -10.041000 -13.772700 -15.890400
N -9.745600 -13.586200 -13.644800
O -9.437700 -13.367700 -11.368100
C -8.352100 -14.006500 -13.802000
H -8.324800 -14.915300 -14.110300
H -7.916900 -13.438500 -14.440100
H -7.901600 -13.941800 -12.956300
