30
Fragment
H -8.211300 -12.780700 -17.298700
H -7.745200 -11.392500 -17.571000
N -7.634200 -12.242400 -17.640500
C -6.558100 -12.729700 -18.281100
N -6.438900 -14.059500 -18.356700
H -5.847800 -16.382100 -18.760900
N -5.703000 -11.828600 -18.789700
C -5.359600 -14.537100 -18.997200
N -5.243700 -15.871900 -19.099200
H -4.998600 -10.471600 -21.214000
C -4.617200 -12.328100 -19.415900
H -4.566400 -16.214800 -19.502200
C -4.384300 -13.680800 -19.546600
C -4.107600 -10.821800 -21.289600
H -4.101100 -11.546100 -21.919300
H -3.928000 -14.434200 -22.046500
C -3.660900 -11.306100 -19.980900
H -3.590200 -10.557800 -19.367900
H -3.517000 -10.128300 -21.593000
C -3.169900 -14.251300 -20.194400
C -3.162700 -14.577400 -21.537900
H -2.780400 -11.703700 -20.069600
H -2.047200 -15.335500 -23.045700
C -2.037100 -15.113900 -22.142400
C -2.029800 -14.501800 -19.459100
H -2.025100 -14.314900 -18.548600
C -0.913000 -15.313700 -21.395100
C -0.886600 -15.025500 -20.052800
H -0.119300 -15.179400 -19.550200
Cl 0.526800 -15.943200 -22.140600
24
Fragment
H -1.832200 -11.702000 -23.217200
N -1.214900 -12.162300 -25.171300
H -1.197900 -12.556400 -27.553600
C -1.115500 -11.990200 -23.735400
H -0.396400 -12.096400 -21.367500
H -0.358900 -13.690800 -28.236100
C -0.314300 -12.832500 -27.809100
C 0.037100 -12.585100 -25.380000
H 0.057200 -12.190400 -28.419700
N 0.163000 -12.293000 -23.175200
C 0.422900 -12.062700 -21.867700
N 0.529500 -12.921300 -26.625100
C 0.821400 -12.656200 -24.289600
H 0.821400 -11.196000 -21.768200
H 1.025800 -12.732800 -21.537900
C 1.839600 -13.318900 -26.778700
C 2.158000 -13.085500 -24.352000
O 2.306200 -13.584900 -27.885900
N 2.601600 -13.398400 -25.640300
O 2.909500 -13.179900 -23.363600
C 3.995100 -13.818700 -25.797500
H 4.022400 -14.727500 -26.105700
H 4.430300 -13.250800 -26.435600
H 4.445600 -13.754100 -24.951800
54
Fragment
H -8.211300 -12.780700 -17.298700
H -7.745200 -11.392500 -17.571000
N -7.634200 -12.242400 -17.640500
C -6.558100 -12.729700 -18.281100
N -6.438900 -14.059500 -18.356700
H -5.847800 -16.382100 -18.760900
N -5.703000 -11.828600 -18.789700
C -5.359600 -14.537100 -18.997200
N -5.243700 -15.871900 -19.099200
H -4.998600 -10.471600 -21.214000
C -4.617200 -12.328100 -19.415900
H -4.566400 -16.214800 -19.502200
C -4.384300 -13.680800 -19.546600
C -4.107600 -10.821800 -21.289600
H -4.101100 -11.546100 -21.919300
H -3.928000 -14.434200 -22.046500
C -3.660900 -11.306100 -19.980900
H -3.590200 -10.557800 -19.367900
H -3.517000 -10.128300 -21.593000
C -3.169900 -14.251300 -20.194400
C -3.162700 -14.577400 -21.537900
H -2.780400 -11.703700 -20.069600
H -2.047200 -15.335500 -23.045700
C -2.037100 -15.113900 -22.142400
C -2.029800 -14.501800 -19.459100
H -2.025100 -14.314900 -18.548600
C -0.913000 -15.313700 -21.395100
C -0.886600 -15.025500 -20.052800
H -0.119300 -15.179400 -19.550200
Cl 0.526800 -15.943200 -22.140600
H -1.832200 -11.702000 -23.217200
N -1.214900 -12.162300 -25.171300
H -1.197900 -12.556400 -27.553600
C -1.115500 -11.990200 -23.735400
H -0.396400 -12.096400 -21.367500
H -0.358900 -13.690800 -28.236100
C -0.314300 -12.832500 -27.809100
C 0.037100 -12.585100 -25.380000
H 0.057200 -12.190400 -28.419700
N 0.163000 -12.293000 -23.175200
C 0.422900 -12.062700 -21.867700
N 0.529500 -12.921300 -26.625100
C 0.821400 -12.656200 -24.289600
H 0.821400 -11.196000 -21.768200
H 1.025800 -12.732800 -21.537900
C 1.839600 -13.318900 -26.778700
C 2.158000 -13.085500 -24.352000
O 2.306200 -13.584900 -27.885900
N 2.601600 -13.398400 -25.640300
O 2.909500 -13.179900 -23.363600
C 3.995100 -13.818700 -25.797500
H 4.022400 -14.727500 -26.105700
H 4.430300 -13.250800 -26.435600
H 4.445600 -13.754100 -24.951800
