30
Fragment
H -8.211300 -12.780700 -17.298700
H -7.745200 -11.392500 -17.571000
N -7.634200 -12.242400 -17.640500
C -6.558100 -12.729700 -18.281100
N -6.438900 -14.059500 -18.356700
H -5.847800 -16.382100 -18.760900
N -5.703000 -11.828600 -18.789700
C -5.359600 -14.537100 -18.997200
N -5.243700 -15.871900 -19.099200
H -4.998600 -10.471600 -21.214000
C -4.617200 -12.328100 -19.415900
H -4.566400 -16.214800 -19.502200
C -4.384300 -13.680800 -19.546600
C -4.107600 -10.821800 -21.289600
H -4.101100 -11.546100 -21.919300
H -3.928000 -14.434200 -22.046500
C -3.660900 -11.306100 -19.980900
H -3.590200 -10.557800 -19.367900
H -3.517000 -10.128300 -21.593000
C -3.169900 -14.251300 -20.194400
C -3.162700 -14.577400 -21.537900
H -2.780400 -11.703700 -20.069600
H -2.047200 -15.335500 -23.045700
C -2.037100 -15.113900 -22.142400
C -2.029800 -14.501800 -19.459100
H -2.025100 -14.314900 -18.548600
C -0.913000 -15.313700 -21.395100
C -0.886600 -15.025500 -20.052800
H -0.119300 -15.179400 -19.550200
Cl 0.526800 -15.943200 -22.140600
24
Fragment
H -5.576000 -17.931800 -23.030100
H -5.560700 -18.435000 -21.546300
H -5.152800 -16.958300 -21.876100
C -5.125500 -17.867100 -22.184400
O -4.039900 -18.505900 -24.618300
N -3.732000 -18.287400 -22.341600
O -3.436600 -18.100900 -20.096000
C -3.288400 -18.600300 -23.629900
C -2.970000 -18.366900 -21.203200
H -2.156200 -18.953100 -26.444000
H -1.951800 -20.489800 -26.213700
C -1.951800 -19.029700 -23.692300
N -1.659900 -18.764500 -21.356700
C -1.553200 -19.623200 -26.114100
N -1.293400 -19.392800 -24.806600
H -1.187600 -19.495400 -19.562200
C -1.167500 -19.100800 -22.601900
C -0.816100 -18.853400 -20.172800
H -0.771500 -17.995100 -19.745700
H -0.734000 -19.589400 -26.614300
C -0.014900 -19.695700 -24.246400
H 0.067500 -19.129400 -20.428300
N 0.084500 -19.523500 -22.810600
H 0.701900 -19.983800 -24.764600
54
Fragment
H -8.211300 -12.780700 -17.298700
H -7.745200 -11.392500 -17.571000
N -7.634200 -12.242400 -17.640500
C -6.558100 -12.729700 -18.281100
N -6.438900 -14.059500 -18.356700
H -5.847800 -16.382100 -18.760900
N -5.703000 -11.828600 -18.789700
C -5.359600 -14.537100 -18.997200
N -5.243700 -15.871900 -19.099200
H -4.998600 -10.471600 -21.214000
C -4.617200 -12.328100 -19.415900
H -4.566400 -16.214800 -19.502200
C -4.384300 -13.680800 -19.546600
C -4.107600 -10.821800 -21.289600
H -4.101100 -11.546100 -21.919300
H -3.928000 -14.434200 -22.046500
C -3.660900 -11.306100 -19.980900
H -3.590200 -10.557800 -19.367900
H -3.517000 -10.128300 -21.593000
C -3.169900 -14.251300 -20.194400
C -3.162700 -14.577400 -21.537900
H -2.780400 -11.703700 -20.069600
H -2.047200 -15.335500 -23.045700
C -2.037100 -15.113900 -22.142400
C -2.029800 -14.501800 -19.459100
H -2.025100 -14.314900 -18.548600
C -0.913000 -15.313700 -21.395100
C -0.886600 -15.025500 -20.052800
H -0.119300 -15.179400 -19.550200
Cl 0.526800 -15.943200 -22.140600
H -5.576000 -17.931800 -23.030100
H -5.560700 -18.435000 -21.546300
H -5.152800 -16.958300 -21.876100
C -5.125500 -17.867100 -22.184400
O -4.039900 -18.505900 -24.618300
N -3.732000 -18.287400 -22.341600
O -3.436600 -18.100900 -20.096000
C -3.288400 -18.600300 -23.629900
C -2.970000 -18.366900 -21.203200
H -2.156200 -18.953100 -26.444000
H -1.951800 -20.489800 -26.213700
C -1.951800 -19.029700 -23.692300
N -1.659900 -18.764500 -21.356700
C -1.553200 -19.623200 -26.114100
N -1.293400 -19.392800 -24.806600
H -1.187600 -19.495400 -19.562200
C -1.167500 -19.100800 -22.601900
C -0.816100 -18.853400 -20.172800
H -0.771500 -17.995100 -19.745700
H -0.734000 -19.589400 -26.614300
C -0.014900 -19.695700 -24.246400
H 0.067500 -19.129400 -20.428300
N 0.084500 -19.523500 -22.810600
H 0.701900 -19.983800 -24.764600
