5
Fragment
Cl -26.364000 -8.545400 -24.841000
C -24.699300 -9.009800 -25.167400
Cl -24.403200 -8.996800 -26.900800
Cl -24.357700 -10.599900 -24.502500
H -24.090300 -8.345100 -24.734200
33
Fragment
N -37.333000 -12.072200 -25.479400
C -36.291700 -12.008700 -25.949300
H -35.564700 -12.682500 -28.368200
C -34.977900 -11.946500 -26.553800
C -34.817400 -12.369700 -27.873600
H -33.986300 -11.230200 -24.913800
C -33.876200 -11.511600 -25.814000
C -33.565400 -12.334100 -28.461400
H -33.458000 -12.615400 -29.362500
N -32.653200 -10.904800 -31.414000
C -32.626900 -11.494100 -26.400900
C -32.459700 -11.886500 -27.736700
C -31.895400 -11.178500 -30.600300
H -31.871700 -11.214100 -25.895300
C -31.095600 -11.847100 -28.338900
C -30.866900 -11.544400 -29.674000
N -30.098600 -12.114900 -27.478200
H -29.795200 -10.969000 -31.878800
C -29.531700 -11.519900 -30.226300
N -29.137200 -11.208500 -31.400200
C -28.850400 -12.134400 -27.950800
N -28.521900 -11.890800 -29.269800
H -27.970900 -12.601500 -26.151900
C -27.781800 -12.420600 -27.066200
C -27.214100 -11.938900 -29.711500
H -27.030000 -11.783200 -30.631100
C -26.493200 -12.440900 -27.500300
C -26.184000 -12.202100 -28.865700
H -25.792300 -12.616800 -26.883200
C -24.766200 -12.230000 -29.368300
H -24.757700 -12.063100 -30.334400
H -24.372300 -13.108400 -29.186100
H -24.246000 -11.536700 -28.911900
38
Fragment
Cl -26.364000 -8.545400 -24.841000
C -24.699300 -9.009800 -25.167400
Cl -24.403200 -8.996800 -26.900800
Cl -24.357700 -10.599900 -24.502500
H -24.090300 -8.345100 -24.734200
N -37.333000 -12.072200 -25.479400
C -36.291700 -12.008700 -25.949300
H -35.564700 -12.682500 -28.368200
C -34.977900 -11.946500 -26.553800
C -34.817400 -12.369700 -27.873600
H -33.986300 -11.230200 -24.913800
C -33.876200 -11.511600 -25.814000
C -33.565400 -12.334100 -28.461400
H -33.458000 -12.615400 -29.362500
N -32.653200 -10.904800 -31.414000
C -32.626900 -11.494100 -26.400900
C -32.459700 -11.886500 -27.736700
C -31.895400 -11.178500 -30.600300
H -31.871700 -11.214100 -25.895300
C -31.095600 -11.847100 -28.338900
C -30.866900 -11.544400 -29.674000
N -30.098600 -12.114900 -27.478200
H -29.795200 -10.969000 -31.878800
C -29.531700 -11.519900 -30.226300
N -29.137200 -11.208500 -31.400200
C -28.850400 -12.134400 -27.950800
N -28.521900 -11.890800 -29.269800
H -27.970900 -12.601500 -26.151900
C -27.781800 -12.420600 -27.066200
C -27.214100 -11.938900 -29.711500
H -27.030000 -11.783200 -30.631100
C -26.493200 -12.440900 -27.500300
C -26.184000 -12.202100 -28.865700
H -25.792300 -12.616800 -26.883200
C -24.766200 -12.230000 -29.368300
H -24.757700 -12.063100 -30.334400
H -24.372300 -13.108400 -29.186100
H -24.246000 -11.536700 -28.911900
