5
Fragment
Cl -26.364000 -8.545400 -24.841000
C -24.699300 -9.009800 -25.167400
Cl -24.403200 -8.996800 -26.900800
Cl -24.357700 -10.599900 -24.502500
H -24.090300 -8.345100 -24.734200
33
Fragment
N -37.333000 -5.090000 -25.479400
C -36.291700 -5.026500 -25.949300
H -35.564700 -5.700300 -28.368200
C -34.977900 -4.964300 -26.553800
C -34.817400 -5.387500 -27.873600
H -33.986300 -4.248000 -24.913800
C -33.876200 -4.529400 -25.814000
C -33.565400 -5.351900 -28.461400
H -33.458000 -5.633200 -29.362500
N -32.653200 -3.922600 -31.414000
C -32.626900 -4.511900 -26.400900
C -32.459700 -4.904300 -27.736700
C -31.895400 -4.196300 -30.600300
H -31.871700 -4.231900 -25.895300
C -31.095600 -4.864900 -28.338900
C -30.866900 -4.562200 -29.674000
N -30.098600 -5.132700 -27.478200
H -29.795200 -3.986800 -31.878800
C -29.531700 -4.537700 -30.226300
N -29.137200 -4.226300 -31.400200
C -28.850400 -5.152200 -27.950800
N -28.521900 -4.908600 -29.269800
H -27.970900 -5.619300 -26.151900
C -27.781800 -5.438400 -27.066200
C -27.214100 -4.956700 -29.711500
H -27.030000 -4.801000 -30.631100
C -26.493200 -5.458700 -27.500300
C -26.184000 -5.219900 -28.865700
H -25.792300 -5.634600 -26.883200
C -24.766200 -5.247800 -29.368300
H -24.757700 -5.080900 -30.334400
H -24.372300 -6.126200 -29.186100
H -24.246000 -4.554500 -28.911900
38
Fragment
Cl -26.364000 -8.545400 -24.841000
C -24.699300 -9.009800 -25.167400
Cl -24.403200 -8.996800 -26.900800
Cl -24.357700 -10.599900 -24.502500
H -24.090300 -8.345100 -24.734200
N -37.333000 -5.090000 -25.479400
C -36.291700 -5.026500 -25.949300
H -35.564700 -5.700300 -28.368200
C -34.977900 -4.964300 -26.553800
C -34.817400 -5.387500 -27.873600
H -33.986300 -4.248000 -24.913800
C -33.876200 -4.529400 -25.814000
C -33.565400 -5.351900 -28.461400
H -33.458000 -5.633200 -29.362500
N -32.653200 -3.922600 -31.414000
C -32.626900 -4.511900 -26.400900
C -32.459700 -4.904300 -27.736700
C -31.895400 -4.196300 -30.600300
H -31.871700 -4.231900 -25.895300
C -31.095600 -4.864900 -28.338900
C -30.866900 -4.562200 -29.674000
N -30.098600 -5.132700 -27.478200
H -29.795200 -3.986800 -31.878800
C -29.531700 -4.537700 -30.226300
N -29.137200 -4.226300 -31.400200
C -28.850400 -5.152200 -27.950800
N -28.521900 -4.908600 -29.269800
H -27.970900 -5.619300 -26.151900
C -27.781800 -5.438400 -27.066200
C -27.214100 -4.956700 -29.711500
H -27.030000 -4.801000 -30.631100
C -26.493200 -5.458700 -27.500300
C -26.184000 -5.219900 -28.865700
H -25.792300 -5.634600 -26.883200
C -24.766200 -5.247800 -29.368300
H -24.757700 -5.080900 -30.334400
H -24.372300 -6.126200 -29.186100
H -24.246000 -4.554500 -28.911900
