5
Fragment
Cl -26.364000 -8.545400 -24.841000
C -24.699300 -9.009800 -25.167400
Cl -24.403200 -8.996800 -26.900800
Cl -24.357700 -10.599900 -24.502500
H -24.090300 -8.345100 -24.734200
33
Fragment
N -21.265000 -8.581100 -25.479400
C -20.223700 -8.517600 -25.949300
H -19.496700 -9.191400 -28.368200
C -18.909900 -8.455400 -26.553800
C -18.749400 -8.878600 -27.873600
H -17.918300 -7.739100 -24.913800
C -17.808200 -8.020500 -25.814000
C -17.497400 -8.843000 -28.461400
H -17.390000 -9.124300 -29.362500
N -16.585200 -7.413700 -31.414000
C -16.558900 -8.003000 -26.400900
C -16.391700 -8.395400 -27.736700
C -15.827400 -7.687400 -30.600300
H -15.803700 -7.723000 -25.895300
C -15.027600 -8.356000 -28.338900
C -14.798900 -8.053300 -29.674000
N -14.030600 -8.623800 -27.478200
H -13.727200 -7.477900 -31.878800
C -13.463700 -8.028800 -30.226300
N -13.069200 -7.717400 -31.400200
C -12.782400 -8.643300 -27.950800
N -12.453900 -8.399700 -29.269800
H -11.902900 -9.110400 -26.151900
C -11.713800 -8.929500 -27.066200
C -11.146100 -8.447800 -29.711500
H -10.962000 -8.292100 -30.631100
C -10.425200 -8.949800 -27.500300
C -10.116000 -8.711000 -28.865700
H -9.724300 -9.125700 -26.883200
C -8.698200 -8.738900 -29.368300
H -8.689700 -8.572000 -30.334400
H -8.304300 -9.617300 -29.186100
H -8.178000 -8.045600 -28.911900
38
Fragment
Cl -26.364000 -8.545400 -24.841000
C -24.699300 -9.009800 -25.167400
Cl -24.403200 -8.996800 -26.900800
Cl -24.357700 -10.599900 -24.502500
H -24.090300 -8.345100 -24.734200
N -21.265000 -8.581100 -25.479400
C -20.223700 -8.517600 -25.949300
H -19.496700 -9.191400 -28.368200
C -18.909900 -8.455400 -26.553800
C -18.749400 -8.878600 -27.873600
H -17.918300 -7.739100 -24.913800
C -17.808200 -8.020500 -25.814000
C -17.497400 -8.843000 -28.461400
H -17.390000 -9.124300 -29.362500
N -16.585200 -7.413700 -31.414000
C -16.558900 -8.003000 -26.400900
C -16.391700 -8.395400 -27.736700
C -15.827400 -7.687400 -30.600300
H -15.803700 -7.723000 -25.895300
C -15.027600 -8.356000 -28.338900
C -14.798900 -8.053300 -29.674000
N -14.030600 -8.623800 -27.478200
H -13.727200 -7.477900 -31.878800
C -13.463700 -8.028800 -30.226300
N -13.069200 -7.717400 -31.400200
C -12.782400 -8.643300 -27.950800
N -12.453900 -8.399700 -29.269800
H -11.902900 -9.110400 -26.151900
C -11.713800 -8.929500 -27.066200
C -11.146100 -8.447800 -29.711500
H -10.962000 -8.292100 -30.631100
C -10.425200 -8.949800 -27.500300
C -10.116000 -8.711000 -28.865700
H -9.724300 -9.125700 -26.883200
C -8.698200 -8.738900 -29.368300
H -8.689700 -8.572000 -30.334400
H -8.304300 -9.617300 -29.186100
H -8.178000 -8.045600 -28.911900
