24
Fragment
O -9.219300 -24.998400 -19.218200
O -8.809700 -25.802100 -21.188300
N -8.497500 -25.084300 -20.222100
N -7.355900 -24.352300 -20.199200
H -7.178600 -25.848000 -22.627000
N -6.587500 -25.244200 -22.390700
C -6.569000 -24.472100 -21.276300
N -5.519100 -24.986400 -23.204800
N -5.468100 -23.706000 -21.388000
H -5.243800 -23.001000 -20.808300
C -4.865500 -24.049100 -22.567500
N -3.700600 -23.505400 -23.101200
N -3.216500 -22.588700 -22.364900
C -2.051600 -22.045000 -22.898500
H -1.673300 -23.093100 -24.657800
N -1.449000 -22.388100 -24.078100
N -1.398000 -21.107700 -22.261300
C -0.348000 -21.622000 -24.189800
N -0.329600 -20.849900 -23.075400
H 0.261500 -20.246100 -22.839100
N 0.438800 -21.741800 -25.266900
N 1.580400 -21.009800 -25.244000
O 1.892600 -20.292000 -24.277800
O 2.302200 -21.095700 -26.247900
13
Fragment
H -9.763800 -23.775300 -26.568900
H -9.755000 -25.055200 -25.648900
H -9.727900 -26.123100 -27.452400
C -9.269400 -24.577400 -26.340000
H -9.255100 -24.870800 -28.276900
C -9.092600 -25.390200 -27.473600
O -7.949500 -24.244000 -25.888400
C -7.765600 -25.904900 -27.494900
H -7.754000 -26.828300 -27.199300
H -7.396700 -25.860300 -28.390500
C -6.974600 -25.036800 -26.549200
H -6.481200 -25.577600 -25.914200
H -6.348900 -24.477500 -27.037200
37
Fragment
O -9.219300 -24.998400 -19.218200
O -8.809700 -25.802100 -21.188300
N -8.497500 -25.084300 -20.222100
N -7.355900 -24.352300 -20.199200
H -7.178600 -25.848000 -22.627000
N -6.587500 -25.244200 -22.390700
C -6.569000 -24.472100 -21.276300
N -5.519100 -24.986400 -23.204800
N -5.468100 -23.706000 -21.388000
H -5.243800 -23.001000 -20.808300
C -4.865500 -24.049100 -22.567500
N -3.700600 -23.505400 -23.101200
N -3.216500 -22.588700 -22.364900
C -2.051600 -22.045000 -22.898500
H -1.673300 -23.093100 -24.657800
N -1.449000 -22.388100 -24.078100
N -1.398000 -21.107700 -22.261300
C -0.348000 -21.622000 -24.189800
N -0.329600 -20.849900 -23.075400
H 0.261500 -20.246100 -22.839100
N 0.438800 -21.741800 -25.266900
N 1.580400 -21.009800 -25.244000
O 1.892600 -20.292000 -24.277800
O 2.302200 -21.095700 -26.247900
H -9.763800 -23.775300 -26.568900
H -9.755000 -25.055200 -25.648900
H -9.727900 -26.123100 -27.452400
C -9.269400 -24.577400 -26.340000
H -9.255100 -24.870800 -28.276900
C -9.092600 -25.390200 -27.473600
O -7.949500 -24.244000 -25.888400
C -7.765600 -25.904900 -27.494900
H -7.754000 -26.828300 -27.199300
H -7.396700 -25.860300 -28.390500
C -6.974600 -25.036800 -26.549200
H -6.481200 -25.577600 -25.914200
H -6.348900 -24.477500 -27.037200
