21
Fragment
H -12.600000 -9.617800 -19.680400
H -12.259500 -11.091200 -20.092300
C -11.919800 -10.295400 -19.676800
H -11.665200 -10.489300 -18.772100
O -11.662300 -10.397900 -22.404700
N -10.750600 -9.817700 -20.420200
C -10.741400 -9.892600 -21.790900
H -10.368700 -8.973900 -24.278300
H -9.753600 -10.412200 -24.165400
C -9.695000 -9.218700 -19.779900
C -9.642700 -9.490500 -23.920700
N -9.629800 -9.371500 -22.461500
N -9.550100 -9.066000 -18.433800
H -8.813300 -9.162600 -24.275400
C -8.633200 -8.699100 -20.464000
C -8.526800 -8.745600 -21.874100
C -8.382100 -8.433400 -18.324200
H -8.014900 -8.178100 -17.508400
N -7.789500 -8.200500 -19.501000
O -7.604400 -8.309100 -22.561300
H -7.031700 -7.814900 -19.629600
15
Fragment
H -6.112500 -10.907800 -22.382700
C -5.311300 -10.468300 -22.209200
N -4.951400 -10.236200 -20.957800
F -4.932900 -10.311100 -24.516500
C -4.516100 -10.070000 -23.256000
C -3.786600 -9.594600 -20.784500
O -3.434000 -9.360200 -19.521200
N -3.378000 -9.466600 -23.122900
C -2.987600 -9.209800 -21.864300
H -2.727800 -8.944000 -19.506900
C -1.690800 -8.517200 -21.646200
O -1.382000 -8.160100 -20.490300
H -1.179100 -8.568900 -23.471500
N -0.926700 -8.304600 -22.692700
H -0.172500 -7.901000 -22.599900
36
Fragment
H -12.600000 -9.617800 -19.680400
H -12.259500 -11.091200 -20.092300
C -11.919800 -10.295400 -19.676800
H -11.665200 -10.489300 -18.772100
O -11.662300 -10.397900 -22.404700
N -10.750600 -9.817700 -20.420200
C -10.741400 -9.892600 -21.790900
H -10.368700 -8.973900 -24.278300
H -9.753600 -10.412200 -24.165400
C -9.695000 -9.218700 -19.779900
C -9.642700 -9.490500 -23.920700
N -9.629800 -9.371500 -22.461500
N -9.550100 -9.066000 -18.433800
H -8.813300 -9.162600 -24.275400
C -8.633200 -8.699100 -20.464000
C -8.526800 -8.745600 -21.874100
C -8.382100 -8.433400 -18.324200
H -8.014900 -8.178100 -17.508400
N -7.789500 -8.200500 -19.501000
O -7.604400 -8.309100 -22.561300
H -7.031700 -7.814900 -19.629600
H -6.112500 -10.907800 -22.382700
C -5.311300 -10.468300 -22.209200
N -4.951400 -10.236200 -20.957800
F -4.932900 -10.311100 -24.516500
C -4.516100 -10.070000 -23.256000
C -3.786600 -9.594600 -20.784500
O -3.434000 -9.360200 -19.521200
N -3.378000 -9.466600 -23.122900
C -2.987600 -9.209800 -21.864300
H -2.727800 -8.944000 -19.506900
C -1.690800 -8.517200 -21.646200
O -1.382000 -8.160100 -20.490300
H -1.179100 -8.568900 -23.471500
N -0.926700 -8.304600 -22.692700
H -0.172500 -7.901000 -22.599900
