21
Fragment
H -12.600000 -9.617800 -19.680400
H -12.259500 -11.091200 -20.092300
C -11.919800 -10.295400 -19.676800
H -11.665200 -10.489300 -18.772100
O -11.662300 -10.397900 -22.404700
N -10.750600 -9.817700 -20.420200
C -10.741400 -9.892600 -21.790900
H -10.368700 -8.973900 -24.278300
H -9.753600 -10.412200 -24.165400
C -9.695000 -9.218700 -19.779900
C -9.642700 -9.490500 -23.920700
N -9.629800 -9.371500 -22.461500
N -9.550100 -9.066000 -18.433800
H -8.813300 -9.162600 -24.275400
C -8.633200 -8.699100 -20.464000
C -8.526800 -8.745600 -21.874100
C -8.382100 -8.433400 -18.324200
H -8.014900 -8.178100 -17.508400
N -7.789500 -8.200500 -19.501000
O -7.604400 -8.309100 -22.561300
H -7.031700 -7.814900 -19.629600
21
Fragment
H -19.417400 -14.646100 -22.681700
O -18.844700 -14.151900 -19.750100
N -18.659600 -14.260500 -22.810300
H -18.434300 -14.282900 -24.802900
C -18.067000 -14.027600 -23.987200
C -17.922300 -13.715400 -20.437200
C -17.815900 -13.761900 -21.847300
H -17.635900 -13.298400 -18.035900
N -16.899100 -13.395000 -23.877600
N -16.819400 -13.089500 -19.849800
C -16.806500 -12.970500 -18.390600
C -16.754100 -13.242300 -22.531500
H -16.695500 -12.048800 -18.145900
H -16.080400 -13.487100 -18.033100
C -15.707800 -12.568400 -20.520400
N -15.698500 -12.643300 -21.891200
O -14.786800 -12.063100 -19.906600
H -14.784000 -11.971700 -23.539200
C -14.529300 -12.165600 -22.634600
H -14.189700 -11.369800 -22.219100
H -13.849100 -12.843200 -22.630900
42
Fragment
H -12.600000 -9.617800 -19.680400
H -12.259500 -11.091200 -20.092300
C -11.919800 -10.295400 -19.676800
H -11.665200 -10.489300 -18.772100
O -11.662300 -10.397900 -22.404700
N -10.750600 -9.817700 -20.420200
C -10.741400 -9.892600 -21.790900
H -10.368700 -8.973900 -24.278300
H -9.753600 -10.412200 -24.165400
C -9.695000 -9.218700 -19.779900
C -9.642700 -9.490500 -23.920700
N -9.629800 -9.371500 -22.461500
N -9.550100 -9.066000 -18.433800
H -8.813300 -9.162600 -24.275400
C -8.633200 -8.699100 -20.464000
C -8.526800 -8.745600 -21.874100
C -8.382100 -8.433400 -18.324200
H -8.014900 -8.178100 -17.508400
N -7.789500 -8.200500 -19.501000
O -7.604400 -8.309100 -22.561300
H -7.031700 -7.814900 -19.629600
H -19.417400 -14.646100 -22.681700
O -18.844700 -14.151900 -19.750100
N -18.659600 -14.260500 -22.810300
H -18.434300 -14.282900 -24.802900
C -18.067000 -14.027600 -23.987200
C -17.922300 -13.715400 -20.437200
C -17.815900 -13.761900 -21.847300
H -17.635900 -13.298400 -18.035900
N -16.899100 -13.395000 -23.877600
N -16.819400 -13.089500 -19.849800
C -16.806500 -12.970500 -18.390600
C -16.754100 -13.242300 -22.531500
H -16.695500 -12.048800 -18.145900
H -16.080400 -13.487100 -18.033100
C -15.707800 -12.568400 -20.520400
N -15.698500 -12.643300 -21.891200
O -14.786800 -12.063100 -19.906600
H -14.784000 -11.971700 -23.539200
C -14.529300 -12.165600 -22.634600
H -14.189700 -11.369800 -22.219100
H -13.849100 -12.843200 -22.630900
