21
Fragment
H -12.600000 -9.617800 -19.680400
H -12.259500 -11.091200 -20.092300
C -11.919800 -10.295400 -19.676800
H -11.665200 -10.489300 -18.772100
O -11.662300 -10.397900 -22.404700
N -10.750600 -9.817700 -20.420200
C -10.741400 -9.892600 -21.790900
H -10.368700 -8.973900 -24.278300
H -9.753600 -10.412200 -24.165400
C -9.695000 -9.218700 -19.779900
C -9.642700 -9.490500 -23.920700
N -9.629800 -9.371500 -22.461500
N -9.550100 -9.066000 -18.433800
H -8.813300 -9.162600 -24.275400
C -8.633200 -8.699100 -20.464000
C -8.526800 -8.745600 -21.874100
C -8.382100 -8.433400 -18.324200
H -8.014900 -8.178100 -17.508400
N -7.789500 -8.200500 -19.501000
O -7.604400 -8.309100 -22.561300
H -7.031700 -7.814900 -19.629600
15
Fragment
H -12.929100 -14.560000 -19.711400
N -12.174900 -14.156400 -19.618600
H -11.922400 -13.892100 -18.839800
O -11.719500 -14.300900 -21.821100
C -11.410700 -13.943800 -20.665100
H -10.373700 -13.517000 -22.804400
C -10.114000 -13.251200 -20.447100
N -9.723500 -12.994400 -19.188500
O -9.667500 -13.100800 -22.790200
C -9.315000 -12.866400 -21.526900
C -8.585400 -12.391000 -19.055300
F -8.168700 -12.149900 -17.794900
N -8.150200 -12.224800 -21.353600
C -7.790200 -11.992700 -20.102100
H -6.989000 -11.553200 -19.928600
36
Fragment
H -12.600000 -9.617800 -19.680400
H -12.259500 -11.091200 -20.092300
C -11.919800 -10.295400 -19.676800
H -11.665200 -10.489300 -18.772100
O -11.662300 -10.397900 -22.404700
N -10.750600 -9.817700 -20.420200
C -10.741400 -9.892600 -21.790900
H -10.368700 -8.973900 -24.278300
H -9.753600 -10.412200 -24.165400
C -9.695000 -9.218700 -19.779900
C -9.642700 -9.490500 -23.920700
N -9.629800 -9.371500 -22.461500
N -9.550100 -9.066000 -18.433800
H -8.813300 -9.162600 -24.275400
C -8.633200 -8.699100 -20.464000
C -8.526800 -8.745600 -21.874100
C -8.382100 -8.433400 -18.324200
H -8.014900 -8.178100 -17.508400
N -7.789500 -8.200500 -19.501000
O -7.604400 -8.309100 -22.561300
H -7.031700 -7.814900 -19.629600
H -12.929100 -14.560000 -19.711400
N -12.174900 -14.156400 -19.618600
H -11.922400 -13.892100 -18.839800
O -11.719500 -14.300900 -21.821100
C -11.410700 -13.943800 -20.665100
H -10.373700 -13.517000 -22.804400
C -10.114000 -13.251200 -20.447100
N -9.723500 -12.994400 -19.188500
O -9.667500 -13.100800 -22.790200
C -9.315000 -12.866400 -21.526900
C -8.585400 -12.391000 -19.055300
F -8.168700 -12.149900 -17.794900
N -8.150200 -12.224800 -21.353600
C -7.790200 -11.992700 -20.102100
H -6.989000 -11.553200 -19.928600
