32
Fragment
Br -25.669800 -15.064500 -20.495900
H -24.617600 -12.369000 -20.541100
C -24.355300 -14.086200 -19.520600
C -24.152500 -12.764200 -19.839600
H -23.952500 -8.198700 -15.971700
H -23.919900 -10.252900 -17.040000
H -23.814600 -15.598600 -18.309400
C -23.678200 -14.696400 -18.492100
C -23.243200 -12.031100 -19.097600
C -23.151800 -8.665200 -16.047200
C -23.142300 -9.890200 -16.681200
H -23.083000 -11.139700 -19.311400
C -22.791200 -13.954000 -17.729600
C -22.566700 -12.617600 -18.036400
H -22.347200 -14.348700 -17.014800
H -22.029900 -7.283100 -15.100700
C -21.992200 -8.111900 -15.519000
C -21.932200 -10.559900 -16.763800
N -21.663800 -11.840300 -17.264900
C -20.787500 -8.774100 -15.607700
C -20.744900 -10.017100 -16.240600
C -20.312500 -12.112200 -17.058200
H -20.015800 -8.398300 -15.251600
H -19.988600 -13.983700 -17.789200
C -19.712100 -11.000400 -16.439300
C -19.586900 -13.253700 -17.377500
C -18.343900 -11.032400 -16.147300
C -18.236400 -13.256200 -17.054500
H -17.926600 -10.299500 -15.756000
H -17.725300 -14.008300 -17.249100
C -17.628200 -12.164600 -16.448300
H -16.722200 -12.201200 -16.241800
32
Fragment
H -34.829400 -11.401500 -23.469200
C -33.923400 -11.438100 -23.262700
H -33.826400 -9.594300 -22.461800
H -33.625000 -13.303200 -23.955000
C -33.315200 -10.346500 -22.656400
C -33.207700 -12.570200 -23.563700
C -31.964700 -10.349000 -22.333400
C -31.839500 -12.602200 -23.271700
H -31.563100 -9.618900 -21.921800
H -31.535900 -15.204400 -24.459300
C -31.239100 -11.490500 -22.652700
C -30.806800 -13.585500 -23.470300
C -30.764200 -14.828500 -24.103200
N -29.887900 -11.762400 -22.446100
C -29.619400 -13.042700 -22.947100
C -29.559400 -15.490800 -24.191900
H -29.521700 -16.319500 -24.610200
H -29.204400 -9.253900 -22.696100
C -28.984900 -10.985100 -21.674500
C -28.760400 -9.648600 -21.981300
H -28.468700 -12.463000 -20.399500
C -28.409400 -13.712500 -23.029700
C -28.399800 -14.937500 -23.663700
C -28.308400 -11.571500 -20.613300
C -27.873400 -8.906200 -21.218900
H -27.737000 -8.004000 -21.401500
H -27.631700 -13.349700 -22.671000
H -27.599100 -15.403900 -23.739200
C -27.399100 -10.838400 -19.871300
C -27.196300 -9.516400 -20.190400
H -26.934000 -11.233600 -19.169800
Br -25.881800 -8.538200 -19.215100
64
Fragment
Br -25.669800 -15.064500 -20.495900
H -24.617600 -12.369000 -20.541100
C -24.355300 -14.086200 -19.520600
C -24.152500 -12.764200 -19.839600
H -23.952500 -8.198700 -15.971700
H -23.919900 -10.252900 -17.040000
H -23.814600 -15.598600 -18.309400
C -23.678200 -14.696400 -18.492100
C -23.243200 -12.031100 -19.097600
C -23.151800 -8.665200 -16.047200
C -23.142300 -9.890200 -16.681200
H -23.083000 -11.139700 -19.311400
C -22.791200 -13.954000 -17.729600
C -22.566700 -12.617600 -18.036400
H -22.347200 -14.348700 -17.014800
H -22.029900 -7.283100 -15.100700
C -21.992200 -8.111900 -15.519000
C -21.932200 -10.559900 -16.763800
N -21.663800 -11.840300 -17.264900
C -20.787500 -8.774100 -15.607700
C -20.744900 -10.017100 -16.240600
C -20.312500 -12.112200 -17.058200
H -20.015800 -8.398300 -15.251600
H -19.988600 -13.983700 -17.789200
C -19.712100 -11.000400 -16.439300
C -19.586900 -13.253700 -17.377500
C -18.343900 -11.032400 -16.147300
C -18.236400 -13.256200 -17.054500
H -17.926600 -10.299500 -15.756000
H -17.725300 -14.008300 -17.249100
C -17.628200 -12.164600 -16.448300
H -16.722200 -12.201200 -16.241800
H -34.829400 -11.401500 -23.469200
C -33.923400 -11.438100 -23.262700
H -33.826400 -9.594300 -22.461800
H -33.625000 -13.303200 -23.955000
C -33.315200 -10.346500 -22.656400
C -33.207700 -12.570200 -23.563700
C -31.964700 -10.349000 -22.333400
C -31.839500 -12.602200 -23.271700
H -31.563100 -9.618900 -21.921800
H -31.535900 -15.204400 -24.459300
C -31.239100 -11.490500 -22.652700
C -30.806800 -13.585500 -23.470300
C -30.764200 -14.828500 -24.103200
N -29.887900 -11.762400 -22.446100
C -29.619400 -13.042700 -22.947100
C -29.559400 -15.490800 -24.191900
H -29.521700 -16.319500 -24.610200
H -29.204400 -9.253900 -22.696100
C -28.984900 -10.985100 -21.674500
C -28.760400 -9.648600 -21.981300
H -28.468700 -12.463000 -20.399500
C -28.409400 -13.712500 -23.029700
C -28.399800 -14.937500 -23.663700
C -28.308400 -11.571500 -20.613300
C -27.873400 -8.906200 -21.218900
H -27.737000 -8.004000 -21.401500
H -27.631700 -13.349700 -22.671000
H -27.599100 -15.403900 -23.739200
C -27.399100 -10.838400 -19.871300
C -27.196300 -9.516400 -20.190400
H -26.934000 -11.233600 -19.169800
Br -25.881800 -8.538200 -19.215100
