32
Fragment
Br -25.669800 -15.064500 -20.495900
H -24.617600 -12.369000 -20.541100
C -24.355300 -14.086200 -19.520600
C -24.152500 -12.764200 -19.839600
H -23.952500 -8.198700 -15.971700
H -23.919900 -10.252900 -17.040000
H -23.814600 -15.598600 -18.309400
C -23.678200 -14.696400 -18.492100
C -23.243200 -12.031100 -19.097600
C -23.151800 -8.665200 -16.047200
C -23.142300 -9.890200 -16.681200
H -23.083000 -11.139700 -19.311400
C -22.791200 -13.954000 -17.729600
C -22.566700 -12.617600 -18.036400
H -22.347200 -14.348700 -17.014800
H -22.029900 -7.283100 -15.100700
C -21.992200 -8.111900 -15.519000
C -21.932200 -10.559900 -16.763800
N -21.663800 -11.840300 -17.264900
C -20.787500 -8.774100 -15.607700
C -20.744900 -10.017100 -16.240600
C -20.312500 -12.112200 -17.058200
H -20.015800 -8.398300 -15.251600
H -19.988600 -13.983700 -17.789200
C -19.712100 -11.000400 -16.439300
C -19.586900 -13.253700 -17.377500
C -18.343900 -11.032400 -16.147300
C -18.236400 -13.256200 -17.054500
H -17.926600 -10.299500 -15.756000
H -17.725300 -14.008300 -17.249100
C -17.628200 -12.164600 -16.448300
H -16.722200 -12.201200 -16.241800
32
Fragment
Br -28.738200 -23.235300 -20.495900
H -27.686100 -20.539900 -20.541100
C -27.423800 -22.257000 -19.520600
C -27.221000 -20.935100 -19.839600
H -27.021000 -16.369600 -15.971700
H -26.988300 -18.423700 -17.040000
H -26.883100 -23.769400 -18.309400
C -26.746700 -22.867300 -18.492100
C -26.311700 -20.202000 -19.097600
C -26.220300 -16.836000 -16.047200
C -26.210700 -18.061000 -16.681200
H -26.151400 -19.310500 -19.311400
C -25.859700 -22.124900 -17.729600
C -25.635100 -20.788400 -18.036400
H -25.415600 -22.519500 -17.014800
H -25.098300 -15.454000 -15.100700
C -25.060600 -16.282700 -15.519000
C -25.000700 -18.730800 -16.763800
N -24.732200 -20.011100 -17.264900
C -23.855900 -16.945000 -15.607700
C -23.813300 -18.188000 -16.240600
C -23.380900 -20.283000 -17.058200
H -23.084200 -16.569100 -15.251600
H -23.057000 -22.154500 -17.789200
C -22.780500 -19.171300 -16.439300
C -22.655400 -21.424500 -17.377500
C -21.412400 -19.203300 -16.147300
C -21.304900 -21.427000 -17.054500
H -20.995000 -18.470300 -15.756000
H -20.793700 -22.179200 -17.249100
C -20.696700 -20.335400 -16.448300
H -19.790700 -20.372000 -16.241800
64
Fragment
Br -25.669800 -15.064500 -20.495900
H -24.617600 -12.369000 -20.541100
C -24.355300 -14.086200 -19.520600
C -24.152500 -12.764200 -19.839600
H -23.952500 -8.198700 -15.971700
H -23.919900 -10.252900 -17.040000
H -23.814600 -15.598600 -18.309400
C -23.678200 -14.696400 -18.492100
C -23.243200 -12.031100 -19.097600
C -23.151800 -8.665200 -16.047200
C -23.142300 -9.890200 -16.681200
H -23.083000 -11.139700 -19.311400
C -22.791200 -13.954000 -17.729600
C -22.566700 -12.617600 -18.036400
H -22.347200 -14.348700 -17.014800
H -22.029900 -7.283100 -15.100700
C -21.992200 -8.111900 -15.519000
C -21.932200 -10.559900 -16.763800
N -21.663800 -11.840300 -17.264900
C -20.787500 -8.774100 -15.607700
C -20.744900 -10.017100 -16.240600
C -20.312500 -12.112200 -17.058200
H -20.015800 -8.398300 -15.251600
H -19.988600 -13.983700 -17.789200
C -19.712100 -11.000400 -16.439300
C -19.586900 -13.253700 -17.377500
C -18.343900 -11.032400 -16.147300
C -18.236400 -13.256200 -17.054500
H -17.926600 -10.299500 -15.756000
H -17.725300 -14.008300 -17.249100
C -17.628200 -12.164600 -16.448300
H -16.722200 -12.201200 -16.241800
Br -28.738200 -23.235300 -20.495900
H -27.686100 -20.539900 -20.541100
C -27.423800 -22.257000 -19.520600
C -27.221000 -20.935100 -19.839600
H -27.021000 -16.369600 -15.971700
H -26.988300 -18.423700 -17.040000
H -26.883100 -23.769400 -18.309400
C -26.746700 -22.867300 -18.492100
C -26.311700 -20.202000 -19.097600
C -26.220300 -16.836000 -16.047200
C -26.210700 -18.061000 -16.681200
H -26.151400 -19.310500 -19.311400
C -25.859700 -22.124900 -17.729600
C -25.635100 -20.788400 -18.036400
H -25.415600 -22.519500 -17.014800
H -25.098300 -15.454000 -15.100700
C -25.060600 -16.282700 -15.519000
C -25.000700 -18.730800 -16.763800
N -24.732200 -20.011100 -17.264900
C -23.855900 -16.945000 -15.607700
C -23.813300 -18.188000 -16.240600
C -23.380900 -20.283000 -17.058200
H -23.084200 -16.569100 -15.251600
H -23.057000 -22.154500 -17.789200
C -22.780500 -19.171300 -16.439300
C -22.655400 -21.424500 -17.377500
C -21.412400 -19.203300 -16.147300
C -21.304900 -21.427000 -17.054500
H -20.995000 -18.470300 -15.756000
H -20.793700 -22.179200 -17.249100
C -20.696700 -20.335400 -16.448300
H -19.790700 -20.372000 -16.241800
