32
Fragment
Br -25.669800 -15.064500 -20.495900
H -24.617600 -12.369000 -20.541100
C -24.355300 -14.086200 -19.520600
C -24.152500 -12.764200 -19.839600
H -23.952500 -8.198700 -15.971700
H -23.919900 -10.252900 -17.040000
H -23.814600 -15.598600 -18.309400
C -23.678200 -14.696400 -18.492100
C -23.243200 -12.031100 -19.097600
C -23.151800 -8.665200 -16.047200
C -23.142300 -9.890200 -16.681200
H -23.083000 -11.139700 -19.311400
C -22.791200 -13.954000 -17.729600
C -22.566700 -12.617600 -18.036400
H -22.347200 -14.348700 -17.014800
H -22.029900 -7.283100 -15.100700
C -21.992200 -8.111900 -15.519000
C -21.932200 -10.559900 -16.763800
N -21.663800 -11.840300 -17.264900
C -20.787500 -8.774100 -15.607700
C -20.744900 -10.017100 -16.240600
C -20.312500 -12.112200 -17.058200
H -20.015800 -8.398300 -15.251600
H -19.988600 -13.983700 -17.789200
C -19.712100 -11.000400 -16.439300
C -19.586900 -13.253700 -17.377500
C -18.343900 -11.032400 -16.147300
C -18.236400 -13.256200 -17.054500
H -17.926600 -10.299500 -15.756000
H -17.725300 -14.008300 -17.249100
C -17.628200 -12.164600 -16.448300
H -16.722200 -12.201200 -16.241800
32
Fragment
H -29.304800 -19.572300 -23.469200
C -28.398800 -19.608900 -23.262700
H -28.301700 -17.765100 -22.461800
H -28.100400 -21.474000 -23.955000
C -27.790500 -18.517300 -22.656400
C -27.683000 -20.741100 -23.563700
C -26.440000 -18.519800 -22.333400
C -26.314900 -20.773100 -23.271700
H -26.038400 -17.789800 -21.921800
H -26.011200 -23.375200 -24.459300
C -25.714500 -19.661300 -22.652700
C -25.282100 -21.756400 -23.470300
C -25.239500 -22.999400 -24.103200
N -24.363200 -19.933200 -22.446100
C -24.094800 -21.213600 -22.947100
C -24.034800 -23.661600 -24.191900
H -23.997100 -24.490400 -24.610200
H -23.679800 -17.424800 -22.696100
C -23.460300 -19.155900 -21.674500
C -23.235800 -17.819500 -21.981300
H -22.944000 -20.633800 -20.399500
C -22.884700 -21.883300 -23.029700
C -22.875100 -23.108300 -23.663700
C -22.783800 -19.742400 -20.613300
C -22.348800 -17.077000 -21.218900
H -22.212300 -16.174900 -21.401500
H -22.107100 -21.520600 -22.671000
H -22.074500 -23.574800 -23.739200
C -21.874500 -19.009300 -19.871300
C -21.671700 -17.687300 -20.190400
H -21.409400 -19.404500 -19.169800
Br -20.357200 -16.709000 -19.215100
64
Fragment
Br -25.669800 -15.064500 -20.495900
H -24.617600 -12.369000 -20.541100
C -24.355300 -14.086200 -19.520600
C -24.152500 -12.764200 -19.839600
H -23.952500 -8.198700 -15.971700
H -23.919900 -10.252900 -17.040000
H -23.814600 -15.598600 -18.309400
C -23.678200 -14.696400 -18.492100
C -23.243200 -12.031100 -19.097600
C -23.151800 -8.665200 -16.047200
C -23.142300 -9.890200 -16.681200
H -23.083000 -11.139700 -19.311400
C -22.791200 -13.954000 -17.729600
C -22.566700 -12.617600 -18.036400
H -22.347200 -14.348700 -17.014800
H -22.029900 -7.283100 -15.100700
C -21.992200 -8.111900 -15.519000
C -21.932200 -10.559900 -16.763800
N -21.663800 -11.840300 -17.264900
C -20.787500 -8.774100 -15.607700
C -20.744900 -10.017100 -16.240600
C -20.312500 -12.112200 -17.058200
H -20.015800 -8.398300 -15.251600
H -19.988600 -13.983700 -17.789200
C -19.712100 -11.000400 -16.439300
C -19.586900 -13.253700 -17.377500
C -18.343900 -11.032400 -16.147300
C -18.236400 -13.256200 -17.054500
H -17.926600 -10.299500 -15.756000
H -17.725300 -14.008300 -17.249100
C -17.628200 -12.164600 -16.448300
H -16.722200 -12.201200 -16.241800
H -29.304800 -19.572300 -23.469200
C -28.398800 -19.608900 -23.262700
H -28.301700 -17.765100 -22.461800
H -28.100400 -21.474000 -23.955000
C -27.790500 -18.517300 -22.656400
C -27.683000 -20.741100 -23.563700
C -26.440000 -18.519800 -22.333400
C -26.314900 -20.773100 -23.271700
H -26.038400 -17.789800 -21.921800
H -26.011200 -23.375200 -24.459300
C -25.714500 -19.661300 -22.652700
C -25.282100 -21.756400 -23.470300
C -25.239500 -22.999400 -24.103200
N -24.363200 -19.933200 -22.446100
C -24.094800 -21.213600 -22.947100
C -24.034800 -23.661600 -24.191900
H -23.997100 -24.490400 -24.610200
H -23.679800 -17.424800 -22.696100
C -23.460300 -19.155900 -21.674500
C -23.235800 -17.819500 -21.981300
H -22.944000 -20.633800 -20.399500
C -22.884700 -21.883300 -23.029700
C -22.875100 -23.108300 -23.663700
C -22.783800 -19.742400 -20.613300
C -22.348800 -17.077000 -21.218900
H -22.212300 -16.174900 -21.401500
H -22.107100 -21.520600 -22.671000
H -22.074500 -23.574800 -23.739200
C -21.874500 -19.009300 -19.871300
C -21.671700 -17.687300 -20.190400
H -21.409400 -19.404500 -19.169800
Br -20.357200 -16.709000 -19.215100
