32
Fragment
Br -25.669800 -15.064500 -20.495900
H -24.617600 -12.369000 -20.541100
C -24.355300 -14.086200 -19.520600
C -24.152500 -12.764200 -19.839600
H -23.952500 -8.198700 -15.971700
H -23.919900 -10.252900 -17.040000
H -23.814600 -15.598600 -18.309400
C -23.678200 -14.696400 -18.492100
C -23.243200 -12.031100 -19.097600
C -23.151800 -8.665200 -16.047200
C -23.142300 -9.890200 -16.681200
H -23.083000 -11.139700 -19.311400
C -22.791200 -13.954000 -17.729600
C -22.566700 -12.617600 -18.036400
H -22.347200 -14.348700 -17.014800
H -22.029900 -7.283100 -15.100700
C -21.992200 -8.111900 -15.519000
C -21.932200 -10.559900 -16.763800
N -21.663800 -11.840300 -17.264900
C -20.787500 -8.774100 -15.607700
C -20.744900 -10.017100 -16.240600
C -20.312500 -12.112200 -17.058200
H -20.015800 -8.398300 -15.251600
H -19.988600 -13.983700 -17.789200
C -19.712100 -11.000400 -16.439300
C -19.586900 -13.253700 -17.377500
C -18.343900 -11.032400 -16.147300
C -18.236400 -13.256200 -17.054500
H -17.926600 -10.299500 -15.756000
H -17.725300 -14.008300 -17.249100
C -17.628200 -12.164600 -16.448300
H -16.722200 -12.201200 -16.241800
32
Fragment
Br -22.601300 -6.893600 -20.495900
H -21.549200 -4.198200 -20.541100
C -21.286900 -5.915400 -19.520600
C -21.084100 -4.593400 -19.839600
H -20.884100 -0.027900 -15.971700
H -20.851400 -2.082100 -17.040000
H -20.746200 -7.427800 -18.309400
C -20.609800 -6.525600 -18.492100
C -20.174800 -3.860300 -19.097600
C -20.083400 -0.494300 -16.047200
C -20.073800 -1.719300 -16.681200
H -20.014500 -2.968900 -19.311400
C -19.722800 -5.783200 -17.729600
C -19.498200 -4.446800 -18.036400
H -19.278700 -6.177900 -17.014800
H -18.961400 0.887700 -15.100700
C -18.923700 0.059000 -15.519000
C -18.863800 -2.389100 -16.763800
N -18.595300 -3.669400 -17.264900
C -17.719000 -0.603300 -15.607700
C -17.676400 -1.846300 -16.240600
C -17.244000 -3.941300 -17.058200
H -16.947300 -0.227400 -15.251600
H -16.920100 -5.812900 -17.789200
C -16.643600 -2.829600 -16.439300
C -16.518500 -5.082800 -17.377500
C -15.275500 -2.861600 -16.147300
C -15.168000 -5.085300 -17.054500
H -14.858100 -2.128600 -15.756000
H -14.656800 -5.837500 -17.249100
C -14.559800 -3.993700 -16.448300
H -13.653800 -4.030300 -16.241800
64
Fragment
Br -25.669800 -15.064500 -20.495900
H -24.617600 -12.369000 -20.541100
C -24.355300 -14.086200 -19.520600
C -24.152500 -12.764200 -19.839600
H -23.952500 -8.198700 -15.971700
H -23.919900 -10.252900 -17.040000
H -23.814600 -15.598600 -18.309400
C -23.678200 -14.696400 -18.492100
C -23.243200 -12.031100 -19.097600
C -23.151800 -8.665200 -16.047200
C -23.142300 -9.890200 -16.681200
H -23.083000 -11.139700 -19.311400
C -22.791200 -13.954000 -17.729600
C -22.566700 -12.617600 -18.036400
H -22.347200 -14.348700 -17.014800
H -22.029900 -7.283100 -15.100700
C -21.992200 -8.111900 -15.519000
C -21.932200 -10.559900 -16.763800
N -21.663800 -11.840300 -17.264900
C -20.787500 -8.774100 -15.607700
C -20.744900 -10.017100 -16.240600
C -20.312500 -12.112200 -17.058200
H -20.015800 -8.398300 -15.251600
H -19.988600 -13.983700 -17.789200
C -19.712100 -11.000400 -16.439300
C -19.586900 -13.253700 -17.377500
C -18.343900 -11.032400 -16.147300
C -18.236400 -13.256200 -17.054500
H -17.926600 -10.299500 -15.756000
H -17.725300 -14.008300 -17.249100
C -17.628200 -12.164600 -16.448300
H -16.722200 -12.201200 -16.241800
Br -22.601300 -6.893600 -20.495900
H -21.549200 -4.198200 -20.541100
C -21.286900 -5.915400 -19.520600
C -21.084100 -4.593400 -19.839600
H -20.884100 -0.027900 -15.971700
H -20.851400 -2.082100 -17.040000
H -20.746200 -7.427800 -18.309400
C -20.609800 -6.525600 -18.492100
C -20.174800 -3.860300 -19.097600
C -20.083400 -0.494300 -16.047200
C -20.073800 -1.719300 -16.681200
H -20.014500 -2.968900 -19.311400
C -19.722800 -5.783200 -17.729600
C -19.498200 -4.446800 -18.036400
H -19.278700 -6.177900 -17.014800
H -18.961400 0.887700 -15.100700
C -18.923700 0.059000 -15.519000
C -18.863800 -2.389100 -16.763800
N -18.595300 -3.669400 -17.264900
C -17.719000 -0.603300 -15.607700
C -17.676400 -1.846300 -16.240600
C -17.244000 -3.941300 -17.058200
H -16.947300 -0.227400 -15.251600
H -16.920100 -5.812900 -17.789200
C -16.643600 -2.829600 -16.439300
C -16.518500 -5.082800 -17.377500
C -15.275500 -2.861600 -16.147300
C -15.168000 -5.085300 -17.054500
H -14.858100 -2.128600 -15.756000
H -14.656800 -5.837500 -17.249100
C -14.559800 -3.993700 -16.448300
H -13.653800 -4.030300 -16.241800
