16
Fragment
N -79.442500 -8.163100 -19.257100
C -78.395100 -8.155700 -19.729400
H -77.579100 -8.146700 -22.232000
C -77.059300 -8.150900 -20.269900
C -76.855100 -8.149100 -21.650100
N -76.426100 -8.166900 -16.843200
C -76.203900 -8.157700 -17.967900
C -75.964000 -8.151100 -19.391100
C -75.551400 -8.151100 -22.148600
C -75.311500 -8.157700 -23.571800
N -75.089300 -8.166900 -24.696500
C -74.660300 -8.149100 -19.889500
C -74.456100 -8.150900 -21.269800
H -73.936300 -8.146700 -19.307600
C -73.120300 -8.155700 -21.810300
N -72.072900 -8.163100 -22.282500
16
Fragment
N -79.502200 -11.465900 -10.949200
C -78.454800 -11.473300 -11.421400
H -77.638800 -11.482300 -13.924100
C -77.119000 -11.478100 -11.961900
C -76.914800 -11.479900 -13.342200
N -76.485800 -11.462100 -8.535200
C -76.263700 -11.471300 -9.660000
C -76.023700 -11.477900 -11.083100
C -75.611200 -11.477900 -13.840700
C -75.371200 -11.471300 -15.263800
N -75.149100 -11.462100 -16.388600
C -74.720100 -11.479900 -11.581600
C -74.515800 -11.478100 -12.961900
H -73.996100 -11.482300 -10.999700
C -73.180000 -11.473300 -13.502400
N -72.132700 -11.465900 -13.974600
32
Fragment
N -79.442500 -8.163100 -19.257100
C -78.395100 -8.155700 -19.729400
H -77.579100 -8.146700 -22.232000
C -77.059300 -8.150900 -20.269900
C -76.855100 -8.149100 -21.650100
N -76.426100 -8.166900 -16.843200
C -76.203900 -8.157700 -17.967900
C -75.964000 -8.151100 -19.391100
C -75.551400 -8.151100 -22.148600
C -75.311500 -8.157700 -23.571800
N -75.089300 -8.166900 -24.696500
C -74.660300 -8.149100 -19.889500
C -74.456100 -8.150900 -21.269800
H -73.936300 -8.146700 -19.307600
C -73.120300 -8.155700 -21.810300
N -72.072900 -8.163100 -22.282500
N -79.502200 -11.465900 -10.949200
C -78.454800 -11.473300 -11.421400
H -77.638800 -11.482300 -13.924100
C -77.119000 -11.478100 -11.961900
C -76.914800 -11.479900 -13.342200
N -76.485800 -11.462100 -8.535200
C -76.263700 -11.471300 -9.660000
C -76.023700 -11.477900 -11.083100
C -75.611200 -11.477900 -13.840700
C -75.371200 -11.471300 -15.263800
N -75.149100 -11.462100 -16.388600
C -74.720100 -11.479900 -11.581600
C -74.515800 -11.478100 -12.961900
H -73.996100 -11.482300 -10.999700
C -73.180000 -11.473300 -13.502400
N -72.132700 -11.465900 -13.974600
