16
Fragment
N -79.442500 -8.163100 -19.257100
C -78.395100 -8.155700 -19.729400
H -77.579100 -8.146700 -22.232000
C -77.059300 -8.150900 -20.269900
C -76.855100 -8.149100 -21.650100
N -76.426100 -8.166900 -16.843200
C -76.203900 -8.157700 -17.967900
C -75.964000 -8.151100 -19.391100
C -75.551400 -8.151100 -22.148600
C -75.311500 -8.157700 -23.571800
N -75.089300 -8.166900 -24.696500
C -74.660300 -8.149100 -19.889500
C -74.456100 -8.150900 -21.269800
H -73.936300 -8.146700 -19.307600
C -73.120300 -8.155700 -21.810300
N -72.072900 -8.163100 -22.282500
39
Fragment
H -88.923400 -5.665600 -19.588400
C -88.003700 -5.518800 -19.543900
H -87.885700 -5.500700 -17.521400
H -87.709900 -5.442500 -21.554100
C -87.394200 -5.427500 -18.307700
C -87.271000 -5.395200 -20.735900
C -86.016500 -5.222000 -18.280600
C -85.901900 -5.203700 -20.708000
H -85.417900 -5.123800 -21.499300
H -85.394100 -5.158500 -16.370000
C -85.254400 -5.132300 -19.466500
N -85.156900 -5.143900 -17.196300
C -83.870700 -5.028600 -19.070200
C -83.854600 -5.039300 -17.649400
H -82.674400 -4.990300 -15.976200
C -82.669800 -4.973900 -19.785800
C -82.669200 -4.990200 -16.906500
H -82.660600 -4.964200 -20.715000
C -81.491900 -4.935100 -19.051900
C -81.486900 -4.941500 -17.632800
H -80.304800 -3.677200 -15.454400
H -80.254200 -6.152400 -15.456100
H -80.119300 -4.898700 -21.550800
C -80.099000 -4.903300 -19.509400
C -80.061700 -4.910700 -17.098200
H -80.037300 -2.867800 -16.770400
H -79.956300 -6.950600 -16.770400
C -79.787900 -3.644700 -16.264300
C -79.739300 -6.164400 -16.264100
C -79.564900 -4.894300 -20.804400
C -79.260000 -4.893500 -18.390600
H -78.853200 -3.600000 -16.047600
H -78.802600 -6.172000 -16.045900
C -78.181400 -4.878500 -20.945000
C -77.882900 -4.877300 -18.538300
H -77.804900 -4.872600 -21.795000
C -77.354000 -4.871100 -19.827700
H -77.322500 -4.870600 -17.793900
H -76.431600 -4.862100 -19.942400
55
Fragment
N -79.442500 -8.163100 -19.257100
C -78.395100 -8.155700 -19.729400
H -77.579100 -8.146700 -22.232000
C -77.059300 -8.150900 -20.269900
C -76.855100 -8.149100 -21.650100
N -76.426100 -8.166900 -16.843200
C -76.203900 -8.157700 -17.967900
C -75.964000 -8.151100 -19.391100
C -75.551400 -8.151100 -22.148600
C -75.311500 -8.157700 -23.571800
N -75.089300 -8.166900 -24.696500
C -74.660300 -8.149100 -19.889500
C -74.456100 -8.150900 -21.269800
H -73.936300 -8.146700 -19.307600
C -73.120300 -8.155700 -21.810300
N -72.072900 -8.163100 -22.282500
H -88.923400 -5.665600 -19.588400
C -88.003700 -5.518800 -19.543900
H -87.885700 -5.500700 -17.521400
H -87.709900 -5.442500 -21.554100
C -87.394200 -5.427500 -18.307700
C -87.271000 -5.395200 -20.735900
C -86.016500 -5.222000 -18.280600
C -85.901900 -5.203700 -20.708000
H -85.417900 -5.123800 -21.499300
H -85.394100 -5.158500 -16.370000
C -85.254400 -5.132300 -19.466500
N -85.156900 -5.143900 -17.196300
C -83.870700 -5.028600 -19.070200
C -83.854600 -5.039300 -17.649400
H -82.674400 -4.990300 -15.976200
C -82.669800 -4.973900 -19.785800
C -82.669200 -4.990200 -16.906500
H -82.660600 -4.964200 -20.715000
C -81.491900 -4.935100 -19.051900
C -81.486900 -4.941500 -17.632800
H -80.304800 -3.677200 -15.454400
H -80.254200 -6.152400 -15.456100
H -80.119300 -4.898700 -21.550800
C -80.099000 -4.903300 -19.509400
C -80.061700 -4.910700 -17.098200
H -80.037300 -2.867800 -16.770400
H -79.956300 -6.950600 -16.770400
C -79.787900 -3.644700 -16.264300
C -79.739300 -6.164400 -16.264100
C -79.564900 -4.894300 -20.804400
C -79.260000 -4.893500 -18.390600
H -78.853200 -3.600000 -16.047600
H -78.802600 -6.172000 -16.045900
C -78.181400 -4.878500 -20.945000
C -77.882900 -4.877300 -18.538300
H -77.804900 -4.872600 -21.795000
C -77.354000 -4.871100 -19.827700
H -77.322500 -4.870600 -17.793900
H -76.431600 -4.862100 -19.942400
