18
Fragment
H -19.238200 -21.429200 -49.996800
H -19.189800 -20.988000 -48.458500
C -18.705600 -21.451800 -49.174700
H -18.549800 -22.382600 -48.911700
H -18.134200 -18.961700 -49.986900
C -17.386900 -20.769400 -49.411300
C -17.326300 -19.438900 -49.838000
H -16.179500 -22.335700 -48.901800
C -16.172300 -21.432500 -49.196900
C -16.109300 -18.797500 -50.049100
H -16.102100 -17.894300 -50.344200
C -14.955300 -20.791100 -49.408000
C -14.894700 -19.460600 -49.834700
H -14.147400 -21.268300 -49.259100
H -13.731800 -17.847400 -50.334300
C -13.576000 -18.778200 -50.071300
H -13.091800 -19.242000 -50.787500
H -13.043400 -18.800800 -49.249200
36
Fragment
O -15.891600 -26.539200 -44.692500
O -15.286700 -26.654700 -46.777000
O -15.273400 -23.580000 -42.738600
N -15.128700 -26.343400 -45.618400
H -14.415300 -25.595700 -43.340700
N -14.245300 -23.073500 -43.148200
O -14.194000 -22.287700 -45.952600
N -13.949200 -25.571700 -45.348500
O -13.918100 -21.902000 -43.059200
O -13.762000 -23.561600 -47.677800
C -13.647000 -25.327900 -43.921600
N -13.533400 -23.114800 -46.570900
N -13.310800 -23.937900 -43.728400
H -12.948100 -26.648400 -46.781300
C -12.736100 -26.081500 -45.987000
H -12.546200 -26.826700 -42.857700
C -12.375200 -26.184000 -43.604400
N -12.369600 -23.559000 -45.955200
C -12.219400 -23.394500 -44.498600
N -12.196600 -26.882500 -44.879000
H -12.052300 -22.437600 -44.260400
C -11.812100 -24.851900 -46.374300
H -11.590700 -24.855400 -47.350300
N -11.274300 -25.302900 -43.296400
N -11.063100 -27.649900 -45.066900
C -10.938600 -24.273300 -44.243900
O -10.786900 -26.475600 -41.477500
O -10.738200 -27.877600 -46.217200
N -10.609000 -24.882300 -45.556200
O -10.517800 -28.060800 -44.049300
N -10.452500 -25.566800 -42.214600
H -10.181600 -23.712900 -43.909700
O -9.482100 -24.846200 -42.077000
N -9.445700 -24.327500 -46.196400
O -9.401000 -24.417700 -47.403500
O -8.578900 -23.908700 -45.459000
54
Fragment
H -19.238200 -21.429200 -49.996800
H -19.189800 -20.988000 -48.458500
C -18.705600 -21.451800 -49.174700
H -18.549800 -22.382600 -48.911700
H -18.134200 -18.961700 -49.986900
C -17.386900 -20.769400 -49.411300
C -17.326300 -19.438900 -49.838000
H -16.179500 -22.335700 -48.901800
C -16.172300 -21.432500 -49.196900
C -16.109300 -18.797500 -50.049100
H -16.102100 -17.894300 -50.344200
C -14.955300 -20.791100 -49.408000
C -14.894700 -19.460600 -49.834700
H -14.147400 -21.268300 -49.259100
H -13.731800 -17.847400 -50.334300
C -13.576000 -18.778200 -50.071300
H -13.091800 -19.242000 -50.787500
H -13.043400 -18.800800 -49.249200
O -15.891600 -26.539200 -44.692500
O -15.286700 -26.654700 -46.777000
O -15.273400 -23.580000 -42.738600
N -15.128700 -26.343400 -45.618400
H -14.415300 -25.595700 -43.340700
N -14.245300 -23.073500 -43.148200
O -14.194000 -22.287700 -45.952600
N -13.949200 -25.571700 -45.348500
O -13.918100 -21.902000 -43.059200
O -13.762000 -23.561600 -47.677800
C -13.647000 -25.327900 -43.921600
N -13.533400 -23.114800 -46.570900
N -13.310800 -23.937900 -43.728400
H -12.948100 -26.648400 -46.781300
C -12.736100 -26.081500 -45.987000
H -12.546200 -26.826700 -42.857700
C -12.375200 -26.184000 -43.604400
N -12.369600 -23.559000 -45.955200
C -12.219400 -23.394500 -44.498600
N -12.196600 -26.882500 -44.879000
H -12.052300 -22.437600 -44.260400
C -11.812100 -24.851900 -46.374300
H -11.590700 -24.855400 -47.350300
N -11.274300 -25.302900 -43.296400
N -11.063100 -27.649900 -45.066900
C -10.938600 -24.273300 -44.243900
O -10.786900 -26.475600 -41.477500
O -10.738200 -27.877600 -46.217200
N -10.609000 -24.882300 -45.556200
O -10.517800 -28.060800 -44.049300
N -10.452500 -25.566800 -42.214600
H -10.181600 -23.712900 -43.909700
O -9.482100 -24.846200 -42.077000
N -9.445700 -24.327500 -46.196400
O -9.401000 -24.417700 -47.403500
O -8.578900 -23.908700 -45.459000
