18
Fragment
H -19.238200 -21.429200 -49.996800
H -19.189800 -20.988000 -48.458500
C -18.705600 -21.451800 -49.174700
H -18.549800 -22.382600 -48.911700
H -18.134200 -18.961700 -49.986900
C -17.386900 -20.769400 -49.411300
C -17.326300 -19.438900 -49.838000
H -16.179500 -22.335700 -48.901800
C -16.172300 -21.432500 -49.196900
C -16.109300 -18.797500 -50.049100
H -16.102100 -17.894300 -50.344200
C -14.955300 -20.791100 -49.408000
C -14.894700 -19.460600 -49.834700
H -14.147400 -21.268300 -49.259100
H -13.731800 -17.847400 -50.334300
C -13.576000 -18.778200 -50.071300
H -13.091800 -19.242000 -50.787500
H -13.043400 -18.800800 -49.249200
18
Fragment
H -27.308600 -21.429200 -49.996800
H -27.260200 -20.988000 -48.458500
C -26.776000 -21.451800 -49.174700
H -26.620200 -22.382600 -48.911700
H -26.204600 -18.961700 -49.986900
C -25.457300 -20.769400 -49.411300
C -25.396700 -19.438900 -49.838000
H -24.249900 -22.335700 -48.901800
C -24.242700 -21.432500 -49.196900
C -24.179700 -18.797500 -50.049100
H -24.172500 -17.894300 -50.344200
C -23.025700 -20.791100 -49.408000
C -22.965100 -19.460600 -49.834700
H -22.217800 -21.268300 -49.259100
H -21.802200 -17.847400 -50.334300
C -21.646400 -18.778200 -50.071300
H -21.162200 -19.242000 -50.787500
H -21.113800 -18.800800 -49.249200
36
Fragment
H -19.238200 -21.429200 -49.996800
H -19.189800 -20.988000 -48.458500
C -18.705600 -21.451800 -49.174700
H -18.549800 -22.382600 -48.911700
H -18.134200 -18.961700 -49.986900
C -17.386900 -20.769400 -49.411300
C -17.326300 -19.438900 -49.838000
H -16.179500 -22.335700 -48.901800
C -16.172300 -21.432500 -49.196900
C -16.109300 -18.797500 -50.049100
H -16.102100 -17.894300 -50.344200
C -14.955300 -20.791100 -49.408000
C -14.894700 -19.460600 -49.834700
H -14.147400 -21.268300 -49.259100
H -13.731800 -17.847400 -50.334300
C -13.576000 -18.778200 -50.071300
H -13.091800 -19.242000 -50.787500
H -13.043400 -18.800800 -49.249200
H -27.308600 -21.429200 -49.996800
H -27.260200 -20.988000 -48.458500
C -26.776000 -21.451800 -49.174700
H -26.620200 -22.382600 -48.911700
H -26.204600 -18.961700 -49.986900
C -25.457300 -20.769400 -49.411300
C -25.396700 -19.438900 -49.838000
H -24.249900 -22.335700 -48.901800
C -24.242700 -21.432500 -49.196900
C -24.179700 -18.797500 -50.049100
H -24.172500 -17.894300 -50.344200
C -23.025700 -20.791100 -49.408000
C -22.965100 -19.460600 -49.834700
H -22.217800 -21.268300 -49.259100
H -21.802200 -17.847400 -50.334300
C -21.646400 -18.778200 -50.071300
H -21.162200 -19.242000 -50.787500
H -21.113800 -18.800800 -49.249200
