18
Fragment
H -19.238200 -21.429200 -49.996800
H -19.189800 -20.988000 -48.458500
C -18.705600 -21.451800 -49.174700
H -18.549800 -22.382600 -48.911700
H -18.134200 -18.961700 -49.986900
C -17.386900 -20.769400 -49.411300
C -17.326300 -19.438900 -49.838000
H -16.179500 -22.335700 -48.901800
C -16.172300 -21.432500 -49.196900
C -16.109300 -18.797500 -50.049100
H -16.102100 -17.894300 -50.344200
C -14.955300 -20.791100 -49.408000
C -14.894700 -19.460600 -49.834700
H -14.147400 -21.268300 -49.259100
H -13.731800 -17.847400 -50.334300
C -13.576000 -18.778200 -50.071300
H -13.091800 -19.242000 -50.787500
H -13.043400 -18.800800 -49.249200
18
Fragment
H -11.167800 -21.429200 -49.996800
H -11.119400 -20.988000 -48.458500
C -10.635200 -21.451800 -49.174700
H -10.479400 -22.382600 -48.911700
H -10.063800 -18.961700 -49.986900
C -9.316500 -20.769400 -49.411300
C -9.255900 -19.438900 -49.838000
H -8.109100 -22.335700 -48.901800
C -8.101900 -21.432500 -49.196900
C -8.038900 -18.797500 -50.049100
H -8.031700 -17.894300 -50.344200
C -6.884900 -20.791100 -49.408000
C -6.824300 -19.460600 -49.834700
H -6.077000 -21.268300 -49.259100
H -5.661400 -17.847400 -50.334300
C -5.505600 -18.778200 -50.071300
H -5.021400 -19.242000 -50.787500
H -4.973000 -18.800800 -49.249200
36
Fragment
H -19.238200 -21.429200 -49.996800
H -19.189800 -20.988000 -48.458500
C -18.705600 -21.451800 -49.174700
H -18.549800 -22.382600 -48.911700
H -18.134200 -18.961700 -49.986900
C -17.386900 -20.769400 -49.411300
C -17.326300 -19.438900 -49.838000
H -16.179500 -22.335700 -48.901800
C -16.172300 -21.432500 -49.196900
C -16.109300 -18.797500 -50.049100
H -16.102100 -17.894300 -50.344200
C -14.955300 -20.791100 -49.408000
C -14.894700 -19.460600 -49.834700
H -14.147400 -21.268300 -49.259100
H -13.731800 -17.847400 -50.334300
C -13.576000 -18.778200 -50.071300
H -13.091800 -19.242000 -50.787500
H -13.043400 -18.800800 -49.249200
H -11.167800 -21.429200 -49.996800
H -11.119400 -20.988000 -48.458500
C -10.635200 -21.451800 -49.174700
H -10.479400 -22.382600 -48.911700
H -10.063800 -18.961700 -49.986900
C -9.316500 -20.769400 -49.411300
C -9.255900 -19.438900 -49.838000
H -8.109100 -22.335700 -48.901800
C -8.101900 -21.432500 -49.196900
C -8.038900 -18.797500 -50.049100
H -8.031700 -17.894300 -50.344200
C -6.884900 -20.791100 -49.408000
C -6.824300 -19.460600 -49.834700
H -6.077000 -21.268300 -49.259100
H -5.661400 -17.847400 -50.334300
C -5.505600 -18.778200 -50.071300
H -5.021400 -19.242000 -50.787500
H -4.973000 -18.800800 -49.249200
