18
Fragment
H -19.238200 -21.429200 -49.996800
H -19.189800 -20.988000 -48.458500
C -18.705600 -21.451800 -49.174700
H -18.549800 -22.382600 -48.911700
H -18.134200 -18.961700 -49.986900
C -17.386900 -20.769400 -49.411300
C -17.326300 -19.438900 -49.838000
H -16.179500 -22.335700 -48.901800
C -16.172300 -21.432500 -49.196900
C -16.109300 -18.797500 -50.049100
H -16.102100 -17.894300 -50.344200
C -14.955300 -20.791100 -49.408000
C -14.894700 -19.460600 -49.834700
H -14.147400 -21.268300 -49.259100
H -13.731800 -17.847400 -50.334300
C -13.576000 -18.778200 -50.071300
H -13.091800 -19.242000 -50.787500
H -13.043400 -18.800800 -49.249200
36
Fragment
O -19.926800 -20.395800 -54.553500
O -19.321900 -20.280300 -52.469000
O -19.308600 -23.355000 -56.507400
N -19.163900 -20.591600 -53.627600
H -18.450500 -21.339300 -55.905300
N -18.280500 -23.861500 -56.097800
O -18.229200 -24.647300 -53.293400
N -17.984400 -21.363300 -53.897500
O -17.953300 -25.033000 -56.186800
O -17.797200 -23.373400 -51.568200
C -17.682200 -21.607100 -55.324400
N -17.568600 -23.820200 -52.675100
N -17.346000 -22.997100 -55.517600
H -16.983300 -20.286600 -52.464700
C -16.771300 -20.853500 -53.259000
H -16.581400 -20.108300 -56.388300
C -16.410400 -20.751000 -55.641600
N -16.404800 -23.376000 -53.290800
C -16.254600 -23.540500 -54.747400
N -16.231800 -20.052500 -54.367000
H -16.087500 -24.497400 -54.985600
C -15.847300 -22.083100 -52.871700
H -15.625900 -22.079600 -51.895700
N -15.309500 -21.632100 -55.949600
N -15.098300 -19.285100 -54.179100
C -14.973800 -22.661700 -55.002100
O -14.822100 -20.459400 -57.768500
O -14.773400 -19.057400 -53.028800
N -14.644200 -22.052700 -53.689800
O -14.553000 -18.874200 -55.196700
N -14.487700 -21.368200 -57.031400
H -14.216800 -23.222100 -55.336300
O -13.517300 -22.088800 -57.169000
N -13.480900 -22.607500 -53.049600
O -13.436200 -22.517300 -51.842500
O -12.614100 -23.026300 -53.787000
54
Fragment
H -19.238200 -21.429200 -49.996800
H -19.189800 -20.988000 -48.458500
C -18.705600 -21.451800 -49.174700
H -18.549800 -22.382600 -48.911700
H -18.134200 -18.961700 -49.986900
C -17.386900 -20.769400 -49.411300
C -17.326300 -19.438900 -49.838000
H -16.179500 -22.335700 -48.901800
C -16.172300 -21.432500 -49.196900
C -16.109300 -18.797500 -50.049100
H -16.102100 -17.894300 -50.344200
C -14.955300 -20.791100 -49.408000
C -14.894700 -19.460600 -49.834700
H -14.147400 -21.268300 -49.259100
H -13.731800 -17.847400 -50.334300
C -13.576000 -18.778200 -50.071300
H -13.091800 -19.242000 -50.787500
H -13.043400 -18.800800 -49.249200
O -19.926800 -20.395800 -54.553500
O -19.321900 -20.280300 -52.469000
O -19.308600 -23.355000 -56.507400
N -19.163900 -20.591600 -53.627600
H -18.450500 -21.339300 -55.905300
N -18.280500 -23.861500 -56.097800
O -18.229200 -24.647300 -53.293400
N -17.984400 -21.363300 -53.897500
O -17.953300 -25.033000 -56.186800
O -17.797200 -23.373400 -51.568200
C -17.682200 -21.607100 -55.324400
N -17.568600 -23.820200 -52.675100
N -17.346000 -22.997100 -55.517600
H -16.983300 -20.286600 -52.464700
C -16.771300 -20.853500 -53.259000
H -16.581400 -20.108300 -56.388300
C -16.410400 -20.751000 -55.641600
N -16.404800 -23.376000 -53.290800
C -16.254600 -23.540500 -54.747400
N -16.231800 -20.052500 -54.367000
H -16.087500 -24.497400 -54.985600
C -15.847300 -22.083100 -52.871700
H -15.625900 -22.079600 -51.895700
N -15.309500 -21.632100 -55.949600
N -15.098300 -19.285100 -54.179100
C -14.973800 -22.661700 -55.002100
O -14.822100 -20.459400 -57.768500
O -14.773400 -19.057400 -53.028800
N -14.644200 -22.052700 -53.689800
O -14.553000 -18.874200 -55.196700
N -14.487700 -21.368200 -57.031400
H -14.216800 -23.222100 -55.336300
O -13.517300 -22.088800 -57.169000
N -13.480900 -22.607500 -53.049600
O -13.436200 -22.517300 -51.842500
O -12.614100 -23.026300 -53.787000
