18
Fragment
H -19.238200 -21.429200 -49.996800
H -19.189800 -20.988000 -48.458500
C -18.705600 -21.451800 -49.174700
H -18.549800 -22.382600 -48.911700
H -18.134200 -18.961700 -49.986900
C -17.386900 -20.769400 -49.411300
C -17.326300 -19.438900 -49.838000
H -16.179500 -22.335700 -48.901800
C -16.172300 -21.432500 -49.196900
C -16.109300 -18.797500 -50.049100
H -16.102100 -17.894300 -50.344200
C -14.955300 -20.791100 -49.408000
C -14.894700 -19.460600 -49.834700
H -14.147400 -21.268300 -49.259100
H -13.731800 -17.847400 -50.334300
C -13.576000 -18.778200 -50.071300
H -13.091800 -19.242000 -50.787500
H -13.043400 -18.800800 -49.249200
36
Fragment
O -19.667500 -17.203700 -45.459000
O -18.845400 -17.712700 -47.403500
N -18.800700 -17.622500 -46.196400
O -18.764300 -18.141200 -42.077000
H -18.064800 -17.007900 -43.909700
N -17.793900 -18.861800 -42.214600
O -17.728600 -21.355800 -44.049300
N -17.637400 -18.177300 -45.556200
O -17.508200 -21.172600 -46.217200
O -17.459500 -19.770600 -41.477500
C -17.307800 -17.568300 -44.243900
N -17.183300 -20.944900 -45.066900
N -16.972100 -18.597900 -43.296400
H -16.655700 -18.150400 -47.350300
C -16.434300 -18.146900 -46.374300
H -16.194100 -15.732600 -44.260400
N -16.049800 -20.177500 -44.879000
C -16.027000 -16.689500 -44.498600
N -15.876800 -16.854000 -45.955200
C -15.871200 -19.479000 -43.604400
H -15.700200 -20.121700 -42.857700
C -15.510300 -19.376500 -45.987000
H -15.298300 -19.943400 -46.781300
N -14.935600 -17.232900 -43.728400
N -14.713000 -16.409800 -46.570900
C -14.599400 -18.622900 -43.921600
O -14.484400 -16.856600 -47.677800
O -14.328300 -15.197000 -43.059200
N -14.297200 -18.866700 -45.348500
O -14.052400 -15.582700 -45.952600
N -14.001100 -16.368500 -43.148200
H -13.831100 -18.890700 -43.340700
N -13.117700 -19.638400 -45.618400
O -12.973000 -16.875000 -42.738600
O -12.959700 -19.949700 -46.777000
O -12.354800 -19.834200 -44.692500
54
Fragment
H -19.238200 -21.429200 -49.996800
H -19.189800 -20.988000 -48.458500
C -18.705600 -21.451800 -49.174700
H -18.549800 -22.382600 -48.911700
H -18.134200 -18.961700 -49.986900
C -17.386900 -20.769400 -49.411300
C -17.326300 -19.438900 -49.838000
H -16.179500 -22.335700 -48.901800
C -16.172300 -21.432500 -49.196900
C -16.109300 -18.797500 -50.049100
H -16.102100 -17.894300 -50.344200
C -14.955300 -20.791100 -49.408000
C -14.894700 -19.460600 -49.834700
H -14.147400 -21.268300 -49.259100
H -13.731800 -17.847400 -50.334300
C -13.576000 -18.778200 -50.071300
H -13.091800 -19.242000 -50.787500
H -13.043400 -18.800800 -49.249200
O -19.667500 -17.203700 -45.459000
O -18.845400 -17.712700 -47.403500
N -18.800700 -17.622500 -46.196400
O -18.764300 -18.141200 -42.077000
H -18.064800 -17.007900 -43.909700
N -17.793900 -18.861800 -42.214600
O -17.728600 -21.355800 -44.049300
N -17.637400 -18.177300 -45.556200
O -17.508200 -21.172600 -46.217200
O -17.459500 -19.770600 -41.477500
C -17.307800 -17.568300 -44.243900
N -17.183300 -20.944900 -45.066900
N -16.972100 -18.597900 -43.296400
H -16.655700 -18.150400 -47.350300
C -16.434300 -18.146900 -46.374300
H -16.194100 -15.732600 -44.260400
N -16.049800 -20.177500 -44.879000
C -16.027000 -16.689500 -44.498600
N -15.876800 -16.854000 -45.955200
C -15.871200 -19.479000 -43.604400
H -15.700200 -20.121700 -42.857700
C -15.510300 -19.376500 -45.987000
H -15.298300 -19.943400 -46.781300
N -14.935600 -17.232900 -43.728400
N -14.713000 -16.409800 -46.570900
C -14.599400 -18.622900 -43.921600
O -14.484400 -16.856600 -47.677800
O -14.328300 -15.197000 -43.059200
N -14.297200 -18.866700 -45.348500
O -14.052400 -15.582700 -45.952600
N -14.001100 -16.368500 -43.148200
H -13.831100 -18.890700 -43.340700
N -13.117700 -19.638400 -45.618400
O -12.973000 -16.875000 -42.738600
O -12.959700 -19.949700 -46.777000
O -12.354800 -19.834200 -44.692500
