22
Fragment
H -14.006300 -13.520700 -12.430800
H -13.959500 -14.015300 -13.881200
N -13.624100 -13.491200 -13.274500
O -13.320700 -12.393100 -10.814900
H -12.815500 -10.522200 -9.061500
C -12.581200 -12.774200 -13.622900
C -12.356000 -11.809800 -11.223000
N -12.118600 -12.872600 -14.869000
H -11.924800 -11.778000 -8.720200
C -11.923800 -11.866700 -12.661500
C -11.907900 -10.891800 -9.084900
O -11.566600 -11.046800 -10.504200
H -11.109300 -9.809100 -7.570800
C -11.095900 -12.073200 -15.172400
N -10.940700 -11.094500 -12.988900
C -10.876500 -9.995900 -8.490400
H -10.811700 -9.151900 -8.970600
N -10.569400 -11.216400 -14.268800
N -10.406300 -11.942800 -16.298400
H -10.024500 -10.435700 -8.577800
N -9.529800 -10.536600 -14.834500
N -9.469800 -10.991200 -16.040600
22
Fragment
N -15.511900 -7.727000 -4.159000
N -15.451800 -8.181600 -5.365100
H -14.957100 -8.282500 -11.621800
N -14.575400 -6.775500 -3.901100
N -14.412200 -7.501800 -5.930800
H -14.169900 -9.566300 -11.229000
C -14.105200 -8.722300 -11.709200
N -14.041000 -7.623800 -7.210600
C -13.885700 -6.645000 -5.027200
H -13.872400 -8.909100 -12.628800
O -13.415000 -7.671400 -9.695400
C -13.073700 -7.826400 -11.114700
C -13.057800 -6.851500 -7.538100
H -13.056800 -6.940200 -11.479400
N -12.863000 -5.845700 -5.330600
C -12.625600 -6.908400 -8.976600
C -12.400500 -5.944100 -6.576700
H -12.166100 -8.196100 -11.138100
O -11.660900 -6.325100 -9.384700
N -11.357600 -5.227000 -6.925100
H -11.022200 -4.702900 -6.318400
H -10.975400 -5.197600 -7.768800
44
Fragment
H -14.006300 -13.520700 -12.430800
H -13.959500 -14.015300 -13.881200
N -13.624100 -13.491200 -13.274500
O -13.320700 -12.393100 -10.814900
H -12.815500 -10.522200 -9.061500
C -12.581200 -12.774200 -13.622900
C -12.356000 -11.809800 -11.223000
N -12.118600 -12.872600 -14.869000
H -11.924800 -11.778000 -8.720200
C -11.923800 -11.866700 -12.661500
C -11.907900 -10.891800 -9.084900
O -11.566600 -11.046800 -10.504200
H -11.109300 -9.809100 -7.570800
C -11.095900 -12.073200 -15.172400
N -10.940700 -11.094500 -12.988900
C -10.876500 -9.995900 -8.490400
H -10.811700 -9.151900 -8.970600
N -10.569400 -11.216400 -14.268800
N -10.406300 -11.942800 -16.298400
H -10.024500 -10.435700 -8.577800
N -9.529800 -10.536600 -14.834500
N -9.469800 -10.991200 -16.040600
N -15.511900 -7.727000 -4.159000
N -15.451800 -8.181600 -5.365100
H -14.957100 -8.282500 -11.621800
N -14.575400 -6.775500 -3.901100
N -14.412200 -7.501800 -5.930800
H -14.169900 -9.566300 -11.229000
C -14.105200 -8.722300 -11.709200
N -14.041000 -7.623800 -7.210600
C -13.885700 -6.645000 -5.027200
H -13.872400 -8.909100 -12.628800
O -13.415000 -7.671400 -9.695400
C -13.073700 -7.826400 -11.114700
C -13.057800 -6.851500 -7.538100
H -13.056800 -6.940200 -11.479400
N -12.863000 -5.845700 -5.330600
C -12.625600 -6.908400 -8.976600
C -12.400500 -5.944100 -6.576700
H -12.166100 -8.196100 -11.138100
O -11.660900 -6.325100 -9.384700
N -11.357600 -5.227000 -6.925100
H -11.022200 -4.702900 -6.318400
H -10.975400 -5.197600 -7.768800
