22
Fragment
H -14.006300 -13.520700 -12.430800
H -13.959500 -14.015300 -13.881200
N -13.624100 -13.491200 -13.274500
O -13.320700 -12.393100 -10.814900
H -12.815500 -10.522200 -9.061500
C -12.581200 -12.774200 -13.622900
C -12.356000 -11.809800 -11.223000
N -12.118600 -12.872600 -14.869000
H -11.924800 -11.778000 -8.720200
C -11.923800 -11.866700 -12.661500
C -11.907900 -10.891800 -9.084900
O -11.566600 -11.046800 -10.504200
H -11.109300 -9.809100 -7.570800
C -11.095900 -12.073200 -15.172400
N -10.940700 -11.094500 -12.988900
C -10.876500 -9.995900 -8.490400
H -10.811700 -9.151900 -8.970600
N -10.569400 -11.216400 -14.268800
N -10.406300 -11.942800 -16.298400
H -10.024500 -10.435700 -8.577800
N -9.529800 -10.536600 -14.834500
N -9.469800 -10.991200 -16.040600
22
Fragment
N -15.946100 -16.958800 -4.159000
N -15.886000 -17.413400 -5.365100
H -15.391300 -17.514300 -11.621800
N -15.009600 -16.007300 -3.901100
N -14.846500 -16.733600 -5.930800
H -14.604200 -18.798100 -11.229000
C -14.539400 -17.954100 -11.709200
N -14.475200 -16.855600 -7.210600
C -14.320000 -15.876800 -5.027200
H -14.306600 -18.140900 -12.628800
O -13.849300 -16.903200 -9.695400
C -13.507900 -17.058200 -11.114700
C -13.492100 -16.083300 -7.538100
H -13.491000 -16.172000 -11.479400
N -13.297200 -15.077400 -5.330600
C -13.059900 -16.140200 -8.976600
C -12.834700 -15.175900 -6.576700
H -12.600300 -17.427900 -11.138100
O -12.095200 -15.556900 -9.384700
N -11.791800 -14.458800 -6.925100
H -11.456400 -13.934700 -6.318400
H -11.409600 -14.429400 -7.768800
44
Fragment
H -14.006300 -13.520700 -12.430800
H -13.959500 -14.015300 -13.881200
N -13.624100 -13.491200 -13.274500
O -13.320700 -12.393100 -10.814900
H -12.815500 -10.522200 -9.061500
C -12.581200 -12.774200 -13.622900
C -12.356000 -11.809800 -11.223000
N -12.118600 -12.872600 -14.869000
H -11.924800 -11.778000 -8.720200
C -11.923800 -11.866700 -12.661500
C -11.907900 -10.891800 -9.084900
O -11.566600 -11.046800 -10.504200
H -11.109300 -9.809100 -7.570800
C -11.095900 -12.073200 -15.172400
N -10.940700 -11.094500 -12.988900
C -10.876500 -9.995900 -8.490400
H -10.811700 -9.151900 -8.970600
N -10.569400 -11.216400 -14.268800
N -10.406300 -11.942800 -16.298400
H -10.024500 -10.435700 -8.577800
N -9.529800 -10.536600 -14.834500
N -9.469800 -10.991200 -16.040600
N -15.946100 -16.958800 -4.159000
N -15.886000 -17.413400 -5.365100
H -15.391300 -17.514300 -11.621800
N -15.009600 -16.007300 -3.901100
N -14.846500 -16.733600 -5.930800
H -14.604200 -18.798100 -11.229000
C -14.539400 -17.954100 -11.709200
N -14.475200 -16.855600 -7.210600
C -14.320000 -15.876800 -5.027200
H -14.306600 -18.140900 -12.628800
O -13.849300 -16.903200 -9.695400
C -13.507900 -17.058200 -11.114700
C -13.492100 -16.083300 -7.538100
H -13.491000 -16.172000 -11.479400
N -13.297200 -15.077400 -5.330600
C -13.059900 -16.140200 -8.976600
C -12.834700 -15.175900 -6.576700
H -12.600300 -17.427900 -11.138100
O -12.095200 -15.556900 -9.384700
N -11.791800 -14.458800 -6.925100
H -11.456400 -13.934700 -6.318400
H -11.409600 -14.429400 -7.768800
