22
Fragment
H -14.006300 -13.520700 -12.430800
H -13.959500 -14.015300 -13.881200
N -13.624100 -13.491200 -13.274500
O -13.320700 -12.393100 -10.814900
H -12.815500 -10.522200 -9.061500
C -12.581200 -12.774200 -13.622900
C -12.356000 -11.809800 -11.223000
N -12.118600 -12.872600 -14.869000
H -11.924800 -11.778000 -8.720200
C -11.923800 -11.866700 -12.661500
C -11.907900 -10.891800 -9.084900
O -11.566600 -11.046800 -10.504200
H -11.109300 -9.809100 -7.570800
C -11.095900 -12.073200 -15.172400
N -10.940700 -11.094500 -12.988900
C -10.876500 -9.995900 -8.490400
H -10.811700 -9.151900 -8.970600
N -10.569400 -11.216400 -14.268800
N -10.406300 -11.942800 -16.298400
H -10.024500 -10.435700 -8.577800
N -9.529800 -10.536600 -14.834500
N -9.469800 -10.991200 -16.040600
22
Fragment
H -17.688300 -13.393300 -2.331000
H -17.641500 -13.888000 -3.781400
N -17.306100 -13.363900 -3.174700
O -17.002700 -12.265800 -0.715100
H -16.497500 -10.394800 1.038300
C -16.263200 -12.646800 -3.523100
C -16.038000 -11.682500 -1.123200
N -15.800600 -12.745300 -4.769200
H -15.606800 -11.650700 1.379600
C -15.605800 -11.739400 -2.561700
C -15.589900 -10.764500 1.014900
O -15.248600 -10.919500 -0.404400
H -14.791300 -9.681800 2.529000
C -14.777900 -11.945900 -5.072600
N -14.622700 -10.967100 -2.889100
C -14.558500 -9.868600 1.609400
H -14.493700 -9.024600 1.129200
N -14.251400 -11.089100 -4.169000
N -14.088300 -11.815400 -6.198600
H -13.706600 -10.308400 1.522000
N -13.211900 -10.409300 -4.734700
N -13.151800 -10.863900 -5.940800
44
Fragment
H -14.006300 -13.520700 -12.430800
H -13.959500 -14.015300 -13.881200
N -13.624100 -13.491200 -13.274500
O -13.320700 -12.393100 -10.814900
H -12.815500 -10.522200 -9.061500
C -12.581200 -12.774200 -13.622900
C -12.356000 -11.809800 -11.223000
N -12.118600 -12.872600 -14.869000
H -11.924800 -11.778000 -8.720200
C -11.923800 -11.866700 -12.661500
C -11.907900 -10.891800 -9.084900
O -11.566600 -11.046800 -10.504200
H -11.109300 -9.809100 -7.570800
C -11.095900 -12.073200 -15.172400
N -10.940700 -11.094500 -12.988900
C -10.876500 -9.995900 -8.490400
H -10.811700 -9.151900 -8.970600
N -10.569400 -11.216400 -14.268800
N -10.406300 -11.942800 -16.298400
H -10.024500 -10.435700 -8.577800
N -9.529800 -10.536600 -14.834500
N -9.469800 -10.991200 -16.040600
H -17.688300 -13.393300 -2.331000
H -17.641500 -13.888000 -3.781400
N -17.306100 -13.363900 -3.174700
O -17.002700 -12.265800 -0.715100
H -16.497500 -10.394800 1.038300
C -16.263200 -12.646800 -3.523100
C -16.038000 -11.682500 -1.123200
N -15.800600 -12.745300 -4.769200
H -15.606800 -11.650700 1.379600
C -15.605800 -11.739400 -2.561700
C -15.589900 -10.764500 1.014900
O -15.248600 -10.919500 -0.404400
H -14.791300 -9.681800 2.529000
C -14.777900 -11.945900 -5.072600
N -14.622700 -10.967100 -2.889100
C -14.558500 -9.868600 1.609400
H -14.493700 -9.024600 1.129200
N -14.251400 -11.089100 -4.169000
N -14.088300 -11.815400 -6.198600
H -13.706600 -10.308400 1.522000
N -13.211900 -10.409300 -4.734700
N -13.151800 -10.863900 -5.940800
