22
Fragment
H -14.006300 -13.520700 -12.430800
H -13.959500 -14.015300 -13.881200
N -13.624100 -13.491200 -13.274500
O -13.320700 -12.393100 -10.814900
H -12.815500 -10.522200 -9.061500
C -12.581200 -12.774200 -13.622900
C -12.356000 -11.809800 -11.223000
N -12.118600 -12.872600 -14.869000
H -11.924800 -11.778000 -8.720200
C -11.923800 -11.866700 -12.661500
C -11.907900 -10.891800 -9.084900
O -11.566600 -11.046800 -10.504200
H -11.109300 -9.809100 -7.570800
C -11.095900 -12.073200 -15.172400
N -10.940700 -11.094500 -12.988900
C -10.876500 -9.995900 -8.490400
H -10.811700 -9.151900 -8.970600
N -10.569400 -11.216400 -14.268800
N -10.406300 -11.942800 -16.298400
H -10.024500 -10.435700 -8.577800
N -9.529800 -10.536600 -14.834500
N -9.469800 -10.991200 -16.040600
22
Fragment
H -10.324300 -13.648000 -22.530600
H -10.277500 -14.142600 -23.981000
N -9.942000 -13.618500 -23.374300
O -9.638700 -12.520400 -20.914700
H -9.133500 -10.649500 -19.161300
C -8.899200 -12.901500 -23.722700
C -8.674000 -11.937100 -21.322800
N -8.436600 -12.999900 -24.968800
H -8.242800 -11.905300 -18.820000
C -8.241800 -11.994100 -22.761300
C -8.225900 -11.019100 -19.184700
O -7.884600 -11.174100 -20.604000
H -7.427300 -9.936500 -17.670600
C -7.413900 -12.200600 -25.272200
N -7.258700 -11.221800 -23.088700
C -7.194500 -10.123300 -18.590200
H -7.129700 -9.279300 -19.070400
N -6.887400 -11.343700 -24.368600
N -6.724300 -12.070100 -26.398200
H -6.342500 -10.563100 -18.677600
N -5.847800 -10.663900 -24.934300
N -5.787800 -11.118600 -26.140400
44
Fragment
H -14.006300 -13.520700 -12.430800
H -13.959500 -14.015300 -13.881200
N -13.624100 -13.491200 -13.274500
O -13.320700 -12.393100 -10.814900
H -12.815500 -10.522200 -9.061500
C -12.581200 -12.774200 -13.622900
C -12.356000 -11.809800 -11.223000
N -12.118600 -12.872600 -14.869000
H -11.924800 -11.778000 -8.720200
C -11.923800 -11.866700 -12.661500
C -11.907900 -10.891800 -9.084900
O -11.566600 -11.046800 -10.504200
H -11.109300 -9.809100 -7.570800
C -11.095900 -12.073200 -15.172400
N -10.940700 -11.094500 -12.988900
C -10.876500 -9.995900 -8.490400
H -10.811700 -9.151900 -8.970600
N -10.569400 -11.216400 -14.268800
N -10.406300 -11.942800 -16.298400
H -10.024500 -10.435700 -8.577800
N -9.529800 -10.536600 -14.834500
N -9.469800 -10.991200 -16.040600
H -10.324300 -13.648000 -22.530600
H -10.277500 -14.142600 -23.981000
N -9.942000 -13.618500 -23.374300
O -9.638700 -12.520400 -20.914700
H -9.133500 -10.649500 -19.161300
C -8.899200 -12.901500 -23.722700
C -8.674000 -11.937100 -21.322800
N -8.436600 -12.999900 -24.968800
H -8.242800 -11.905300 -18.820000
C -8.241800 -11.994100 -22.761300
C -8.225900 -11.019100 -19.184700
O -7.884600 -11.174100 -20.604000
H -7.427300 -9.936500 -17.670600
C -7.413900 -12.200600 -25.272200
N -7.258700 -11.221800 -23.088700
C -7.194500 -10.123300 -18.590200
H -7.129700 -9.279300 -19.070400
N -6.887400 -11.343700 -24.368600
N -6.724300 -12.070100 -26.398200
H -6.342500 -10.563100 -18.677600
N -5.847800 -10.663900 -24.934300
N -5.787800 -11.118600 -26.140400
