44
Fragment
H -9.392700 -13.179800 -22.094300
H -8.942900 -14.374600 -20.191900
C -8.886500 -12.783300 -21.421900
C -8.618600 -13.506900 -20.271200
H -8.609900 -11.010300 -22.377400
C -8.427600 -11.490800 -21.601300
C -7.883500 -12.967200 -19.249800
H -7.700300 -13.453600 -18.477400
C -7.690300 -10.953100 -20.581200
C -7.420200 -11.660400 -19.409700
H -7.367200 -2.267600 -21.124200
H -7.111100 -4.978500 -20.000300
H -7.081400 -9.085000 -21.037500
N -7.068500 -9.727700 -20.423700
C -6.749400 -2.623600 -21.722100
N -6.661800 -10.872100 -18.539600
N -6.595600 -4.939100 -20.725100
H -6.540500 -1.004900 -22.870400
C -6.498700 -9.758300 -19.209600
C -6.288500 -3.927900 -21.600100
C -6.254000 -1.883400 -22.763000
N -5.994500 -7.250900 -20.488400
C -5.830100 -6.009400 -21.108300
H -5.811500 -8.905000 -16.671400
N -5.792200 -8.688900 -18.687300
C -5.545600 -7.465400 -19.317000
C -5.377000 -4.455300 -22.497000
C -5.335700 -2.408400 -23.662300
C -5.155500 -8.798000 -17.377900
N -5.108700 -5.797100 -22.152900
H -5.015600 -1.879000 -24.355500
C -4.895000 -3.704400 -23.537900
C -4.712300 -6.697400 -18.385900
H -4.530000 -9.539100 -17.347400
C -4.447600 -7.476400 -17.275400
H -4.376100 -4.881000 -19.229100
H -4.285400 -4.061400 -24.143100
C -4.191300 -5.415200 -18.490800
C -3.646200 -7.017300 -16.244300
H -3.465800 -7.544000 -15.498700
C -3.388800 -4.957200 -17.459700
C -3.123900 -5.743000 -16.368800
H -3.024100 -4.102900 -17.508500
H -2.578500 -5.409900 -15.692700
44
Fragment
H -3.651000 -10.593900 -20.915500
H -3.205400 -11.901000 -19.099700
C -3.105600 -10.260800 -20.239500
C -2.840700 -11.046600 -19.148600
H -2.763700 -8.459800 -21.109500
C -2.583300 -8.986500 -20.363900
C -2.038200 -10.588600 -18.117400
H -1.944100 -11.942500 -12.465100
H -1.853400 -11.122800 -17.379200
C -1.781900 -8.527400 -19.332800
H -1.699500 -6.464800 -19.260800
C -1.517200 -9.306500 -18.222400
C -1.334500 -12.299500 -13.070400
H -1.213900 -14.124900 -12.252800
N -1.120800 -10.206700 -14.455400
C -1.074000 -7.205900 -19.230300
C -0.893800 -13.595500 -12.945900
C -0.852500 -11.548500 -14.111300
C -0.683900 -8.538500 -17.291300
N -0.437300 -7.315000 -17.921000
H -0.418000 -7.098900 -19.936800
C -0.399400 -9.994500 -15.499900
N -0.235000 -8.753000 -16.119800
C 0.024500 -14.120400 -13.845200
C 0.059000 -12.076000 -15.008200
C 0.269200 -6.245600 -17.398700
H 0.311000 -14.999000 -13.737900
N 0.366100 -11.064800 -15.883100
N 0.432300 -5.131700 -18.068600
C 0.519900 -13.380300 -14.886100
N 0.839000 -6.276100 -16.184500
H 0.851900 -6.918900 -15.570700
H 0.881600 -11.025400 -16.607900
H 1.137700 -13.736200 -15.484100
C 1.190700 -4.343500 -17.198600
C 1.460800 -5.050700 -16.027100
H 1.470900 -2.550200 -18.130800
C 1.654000 -3.036600 -17.358400
C 2.198100 -4.513100 -15.006900
H 2.380400 -4.993600 -14.230800
C 2.389100 -2.497000 -16.337000
C 2.657100 -3.220500 -15.186300
H 2.713400 -1.629200 -16.416400
H 3.163300 -2.824100 -14.513900
88
Fragment
H -9.392700 -13.179800 -22.094300
H -8.942900 -14.374600 -20.191900
C -8.886500 -12.783300 -21.421900
C -8.618600 -13.506900 -20.271200
H -8.609900 -11.010300 -22.377400
C -8.427600 -11.490800 -21.601300
C -7.883500 -12.967200 -19.249800
H -7.700300 -13.453600 -18.477400
C -7.690300 -10.953100 -20.581200
C -7.420200 -11.660400 -19.409700
H -7.367200 -2.267600 -21.124200
H -7.111100 -4.978500 -20.000300
H -7.081400 -9.085000 -21.037500
N -7.068500 -9.727700 -20.423700
C -6.749400 -2.623600 -21.722100
N -6.661800 -10.872100 -18.539600
N -6.595600 -4.939100 -20.725100
H -6.540500 -1.004900 -22.870400
C -6.498700 -9.758300 -19.209600
C -6.288500 -3.927900 -21.600100
C -6.254000 -1.883400 -22.763000
N -5.994500 -7.250900 -20.488400
C -5.830100 -6.009400 -21.108300
H -5.811500 -8.905000 -16.671400
N -5.792200 -8.688900 -18.687300
C -5.545600 -7.465400 -19.317000
C -5.377000 -4.455300 -22.497000
C -5.335700 -2.408400 -23.662300
C -5.155500 -8.798000 -17.377900
N -5.108700 -5.797100 -22.152900
H -5.015600 -1.879000 -24.355500
C -4.895000 -3.704400 -23.537900
C -4.712300 -6.697400 -18.385900
H -4.530000 -9.539100 -17.347400
C -4.447600 -7.476400 -17.275400
H -4.376100 -4.881000 -19.229100
H -4.285400 -4.061400 -24.143100
C -4.191300 -5.415200 -18.490800
C -3.646200 -7.017300 -16.244300
H -3.465800 -7.544000 -15.498700
C -3.388800 -4.957200 -17.459700
C -3.123900 -5.743000 -16.368800
H -3.024100 -4.102900 -17.508500
H -2.578500 -5.409900 -15.692700
H -3.651000 -10.593900 -20.915500
H -3.205400 -11.901000 -19.099700
C -3.105600 -10.260800 -20.239500
C -2.840700 -11.046600 -19.148600
H -2.763700 -8.459800 -21.109500
C -2.583300 -8.986500 -20.363900
C -2.038200 -10.588600 -18.117400
H -1.944100 -11.942500 -12.465100
H -1.853400 -11.122800 -17.379200
C -1.781900 -8.527400 -19.332800
H -1.699500 -6.464800 -19.260800
C -1.517200 -9.306500 -18.222400
C -1.334500 -12.299500 -13.070400
H -1.213900 -14.124900 -12.252800
N -1.120800 -10.206700 -14.455400
C -1.074000 -7.205900 -19.230300
C -0.893800 -13.595500 -12.945900
C -0.852500 -11.548500 -14.111300
C -0.683900 -8.538500 -17.291300
N -0.437300 -7.315000 -17.921000
H -0.418000 -7.098900 -19.936800
C -0.399400 -9.994500 -15.499900
N -0.235000 -8.753000 -16.119800
C 0.024500 -14.120400 -13.845200
C 0.059000 -12.076000 -15.008200
C 0.269200 -6.245600 -17.398700
H 0.311000 -14.999000 -13.737900
N 0.366100 -11.064800 -15.883100
N 0.432300 -5.131700 -18.068600
C 0.519900 -13.380300 -14.886100
N 0.839000 -6.276100 -16.184500
H 0.851900 -6.918900 -15.570700
H 0.881600 -11.025400 -16.607900
H 1.137700 -13.736200 -15.484100
C 1.190700 -4.343500 -17.198600
C 1.460800 -5.050700 -16.027100
H 1.470900 -2.550200 -18.130800
C 1.654000 -3.036600 -17.358400
C 2.198100 -4.513100 -15.006900
H 2.380400 -4.993600 -14.230800
C 2.389100 -2.497000 -16.337000
C 2.657100 -3.220500 -15.186300
H 2.713400 -1.629200 -16.416400
H 3.163300 -2.824100 -14.513900
