44
Fragment
H -9.392700 -13.179800 -22.094300
H -8.942900 -14.374600 -20.191900
C -8.886500 -12.783300 -21.421900
C -8.618600 -13.506900 -20.271200
H -8.609900 -11.010300 -22.377400
C -8.427600 -11.490800 -21.601300
C -7.883500 -12.967200 -19.249800
H -7.700300 -13.453600 -18.477400
C -7.690300 -10.953100 -20.581200
C -7.420200 -11.660400 -19.409700
H -7.367200 -2.267600 -21.124200
H -7.111100 -4.978500 -20.000300
H -7.081400 -9.085000 -21.037500
N -7.068500 -9.727700 -20.423700
C -6.749400 -2.623600 -21.722100
N -6.661800 -10.872100 -18.539600
N -6.595600 -4.939100 -20.725100
H -6.540500 -1.004900 -22.870400
C -6.498700 -9.758300 -19.209600
C -6.288500 -3.927900 -21.600100
C -6.254000 -1.883400 -22.763000
N -5.994500 -7.250900 -20.488400
C -5.830100 -6.009400 -21.108300
H -5.811500 -8.905000 -16.671400
N -5.792200 -8.688900 -18.687300
C -5.545600 -7.465400 -19.317000
C -5.377000 -4.455300 -22.497000
C -5.335700 -2.408400 -23.662300
C -5.155500 -8.798000 -17.377900
N -5.108700 -5.797100 -22.152900
H -5.015600 -1.879000 -24.355500
C -4.895000 -3.704400 -23.537900
C -4.712300 -6.697400 -18.385900
H -4.530000 -9.539100 -17.347400
C -4.447600 -7.476400 -17.275400
H -4.376100 -4.881000 -19.229100
H -4.285400 -4.061400 -24.143100
C -4.191300 -5.415200 -18.490800
C -3.646200 -7.017300 -16.244300
H -3.465800 -7.544000 -15.498700
C -3.388800 -4.957200 -17.459700
C -3.123900 -5.743000 -16.368800
H -3.024100 -4.102900 -17.508500
H -2.578500 -5.409900 -15.692700
44
Fragment
H -5.377800 0.235300 -20.915500
H -4.932200 -1.071800 -19.099700
C -4.832400 0.568300 -20.239500
C -4.567500 -0.217400 -19.148600
H -4.490500 2.369300 -21.109500
C -4.310100 1.842700 -20.363900
C -3.765000 0.240600 -18.117400
H -3.670900 -1.113300 -12.465100
H -3.580200 -0.293600 -17.379200
C -3.508700 2.301800 -19.332800
H -3.426300 4.364400 -19.260800
C -3.244000 1.522700 -18.222400
C -3.061300 -1.470300 -13.070400
H -2.940700 -3.295700 -12.252800
N -2.847600 0.622500 -14.455400
C -2.800800 3.623300 -19.230300
C -2.620600 -2.766300 -12.945900
C -2.579300 -0.719300 -14.111300
C -2.410700 2.290700 -17.291300
N -2.164100 3.514200 -17.921000
H -2.144800 3.730300 -19.936800
C -2.126200 0.834700 -15.499900
N -1.961800 2.076200 -16.119800
C -1.702300 -3.291200 -13.845200
C -1.667800 -1.246800 -15.008200
C -1.457600 4.583600 -17.398700
H -1.415800 -4.169800 -13.737900
N -1.360700 -0.235600 -15.883100
N -1.294500 5.697400 -18.068600
C -1.206900 -2.551100 -14.886100
N -0.887800 4.553100 -16.184500
H -0.874900 3.910300 -15.570700
H -0.845200 -0.196200 -16.607900
H -0.589100 -2.907000 -15.484100
C -0.536100 6.485700 -17.198600
C -0.266000 5.778500 -16.027100
H -0.255900 8.279000 -18.130800
C -0.072800 7.792600 -17.358400
C 0.471300 6.316100 -15.006900
H 0.653600 5.835600 -14.230800
C 0.662300 8.332200 -16.337000
C 0.930300 7.608700 -15.186300
H 0.986600 9.200000 -16.416400
H 1.436500 8.005100 -14.513900
88
Fragment
H -9.392700 -13.179800 -22.094300
H -8.942900 -14.374600 -20.191900
C -8.886500 -12.783300 -21.421900
C -8.618600 -13.506900 -20.271200
H -8.609900 -11.010300 -22.377400
C -8.427600 -11.490800 -21.601300
C -7.883500 -12.967200 -19.249800
H -7.700300 -13.453600 -18.477400
C -7.690300 -10.953100 -20.581200
C -7.420200 -11.660400 -19.409700
H -7.367200 -2.267600 -21.124200
H -7.111100 -4.978500 -20.000300
H -7.081400 -9.085000 -21.037500
N -7.068500 -9.727700 -20.423700
C -6.749400 -2.623600 -21.722100
N -6.661800 -10.872100 -18.539600
N -6.595600 -4.939100 -20.725100
H -6.540500 -1.004900 -22.870400
C -6.498700 -9.758300 -19.209600
C -6.288500 -3.927900 -21.600100
C -6.254000 -1.883400 -22.763000
N -5.994500 -7.250900 -20.488400
C -5.830100 -6.009400 -21.108300
H -5.811500 -8.905000 -16.671400
N -5.792200 -8.688900 -18.687300
C -5.545600 -7.465400 -19.317000
C -5.377000 -4.455300 -22.497000
C -5.335700 -2.408400 -23.662300
C -5.155500 -8.798000 -17.377900
N -5.108700 -5.797100 -22.152900
H -5.015600 -1.879000 -24.355500
C -4.895000 -3.704400 -23.537900
C -4.712300 -6.697400 -18.385900
H -4.530000 -9.539100 -17.347400
C -4.447600 -7.476400 -17.275400
H -4.376100 -4.881000 -19.229100
H -4.285400 -4.061400 -24.143100
C -4.191300 -5.415200 -18.490800
C -3.646200 -7.017300 -16.244300
H -3.465800 -7.544000 -15.498700
C -3.388800 -4.957200 -17.459700
C -3.123900 -5.743000 -16.368800
H -3.024100 -4.102900 -17.508500
H -2.578500 -5.409900 -15.692700
H -5.377800 0.235300 -20.915500
H -4.932200 -1.071800 -19.099700
C -4.832400 0.568300 -20.239500
C -4.567500 -0.217400 -19.148600
H -4.490500 2.369300 -21.109500
C -4.310100 1.842700 -20.363900
C -3.765000 0.240600 -18.117400
H -3.670900 -1.113300 -12.465100
H -3.580200 -0.293600 -17.379200
C -3.508700 2.301800 -19.332800
H -3.426300 4.364400 -19.260800
C -3.244000 1.522700 -18.222400
C -3.061300 -1.470300 -13.070400
H -2.940700 -3.295700 -12.252800
N -2.847600 0.622500 -14.455400
C -2.800800 3.623300 -19.230300
C -2.620600 -2.766300 -12.945900
C -2.579300 -0.719300 -14.111300
C -2.410700 2.290700 -17.291300
N -2.164100 3.514200 -17.921000
H -2.144800 3.730300 -19.936800
C -2.126200 0.834700 -15.499900
N -1.961800 2.076200 -16.119800
C -1.702300 -3.291200 -13.845200
C -1.667800 -1.246800 -15.008200
C -1.457600 4.583600 -17.398700
H -1.415800 -4.169800 -13.737900
N -1.360700 -0.235600 -15.883100
N -1.294500 5.697400 -18.068600
C -1.206900 -2.551100 -14.886100
N -0.887800 4.553100 -16.184500
H -0.874900 3.910300 -15.570700
H -0.845200 -0.196200 -16.607900
H -0.589100 -2.907000 -15.484100
C -0.536100 6.485700 -17.198600
C -0.266000 5.778500 -16.027100
H -0.255900 8.279000 -18.130800
C -0.072800 7.792600 -17.358400
C 0.471300 6.316100 -15.006900
H 0.653600 5.835600 -14.230800
C 0.662300 8.332200 -16.337000
C 0.930300 7.608700 -15.186300
H 0.986600 9.200000 -16.416400
H 1.436500 8.005100 -14.513900
