44
Fragment
H -9.392700 -13.179800 -22.094300
H -8.942900 -14.374600 -20.191900
C -8.886500 -12.783300 -21.421900
C -8.618600 -13.506900 -20.271200
H -8.609900 -11.010300 -22.377400
C -8.427600 -11.490800 -21.601300
C -7.883500 -12.967200 -19.249800
H -7.700300 -13.453600 -18.477400
C -7.690300 -10.953100 -20.581200
C -7.420200 -11.660400 -19.409700
H -7.367200 -2.267600 -21.124200
H -7.111100 -4.978500 -20.000300
H -7.081400 -9.085000 -21.037500
N -7.068500 -9.727700 -20.423700
C -6.749400 -2.623600 -21.722100
N -6.661800 -10.872100 -18.539600
N -6.595600 -4.939100 -20.725100
H -6.540500 -1.004900 -22.870400
C -6.498700 -9.758300 -19.209600
C -6.288500 -3.927900 -21.600100
C -6.254000 -1.883400 -22.763000
N -5.994500 -7.250900 -20.488400
C -5.830100 -6.009400 -21.108300
H -5.811500 -8.905000 -16.671400
N -5.792200 -8.688900 -18.687300
C -5.545600 -7.465400 -19.317000
C -5.377000 -4.455300 -22.497000
C -5.335700 -2.408400 -23.662300
C -5.155500 -8.798000 -17.377900
N -5.108700 -5.797100 -22.152900
H -5.015600 -1.879000 -24.355500
C -4.895000 -3.704400 -23.537900
C -4.712300 -6.697400 -18.385900
H -4.530000 -9.539100 -17.347400
C -4.447600 -7.476400 -17.275400
H -4.376100 -4.881000 -19.229100
H -4.285400 -4.061400 -24.143100
C -4.191300 -5.415200 -18.490800
C -3.646200 -7.017300 -16.244300
H -3.465800 -7.544000 -15.498700
C -3.388800 -4.957200 -17.459700
C -3.123900 -5.743000 -16.368800
H -3.024100 -4.102900 -17.508500
H -2.578500 -5.409900 -15.692700
12
Fragment
H -4.553400 -7.649300 -10.947100
C -3.691500 -7.438300 -10.581000
H -3.605100 -7.840900 -9.713400
H -3.601000 -6.486600 -10.502900
H -3.022100 -6.907000 -13.081300
N -2.662300 -7.948300 -11.451100
O -2.379300 -9.888000 -10.313800
C -2.257100 -7.124200 -12.544400
C -2.097400 -9.124200 -11.220400
H -1.862800 -6.317700 -12.206400
H -1.613700 -7.596100 -13.078900
H -1.395300 -9.372400 -11.885500
56
Fragment
H -9.392700 -13.179800 -22.094300
H -8.942900 -14.374600 -20.191900
C -8.886500 -12.783300 -21.421900
C -8.618600 -13.506900 -20.271200
H -8.609900 -11.010300 -22.377400
C -8.427600 -11.490800 -21.601300
C -7.883500 -12.967200 -19.249800
H -7.700300 -13.453600 -18.477400
C -7.690300 -10.953100 -20.581200
C -7.420200 -11.660400 -19.409700
H -7.367200 -2.267600 -21.124200
H -7.111100 -4.978500 -20.000300
H -7.081400 -9.085000 -21.037500
N -7.068500 -9.727700 -20.423700
C -6.749400 -2.623600 -21.722100
N -6.661800 -10.872100 -18.539600
N -6.595600 -4.939100 -20.725100
H -6.540500 -1.004900 -22.870400
C -6.498700 -9.758300 -19.209600
C -6.288500 -3.927900 -21.600100
C -6.254000 -1.883400 -22.763000
N -5.994500 -7.250900 -20.488400
C -5.830100 -6.009400 -21.108300
H -5.811500 -8.905000 -16.671400
N -5.792200 -8.688900 -18.687300
C -5.545600 -7.465400 -19.317000
C -5.377000 -4.455300 -22.497000
C -5.335700 -2.408400 -23.662300
C -5.155500 -8.798000 -17.377900
N -5.108700 -5.797100 -22.152900
H -5.015600 -1.879000 -24.355500
C -4.895000 -3.704400 -23.537900
C -4.712300 -6.697400 -18.385900
H -4.530000 -9.539100 -17.347400
C -4.447600 -7.476400 -17.275400
H -4.376100 -4.881000 -19.229100
H -4.285400 -4.061400 -24.143100
C -4.191300 -5.415200 -18.490800
C -3.646200 -7.017300 -16.244300
H -3.465800 -7.544000 -15.498700
C -3.388800 -4.957200 -17.459700
C -3.123900 -5.743000 -16.368800
H -3.024100 -4.102900 -17.508500
H -2.578500 -5.409900 -15.692700
H -4.553400 -7.649300 -10.947100
C -3.691500 -7.438300 -10.581000
H -3.605100 -7.840900 -9.713400
H -3.601000 -6.486600 -10.502900
H -3.022100 -6.907000 -13.081300
N -2.662300 -7.948300 -11.451100
O -2.379300 -9.888000 -10.313800
C -2.257100 -7.124200 -12.544400
C -2.097400 -9.124200 -11.220400
H -1.862800 -6.317700 -12.206400
H -1.613700 -7.596100 -13.078900
H -1.395300 -9.372400 -11.885500
