44
Fragment
H -9.392700 -13.179800 -22.094300
H -8.942900 -14.374600 -20.191900
C -8.886500 -12.783300 -21.421900
C -8.618600 -13.506900 -20.271200
H -8.609900 -11.010300 -22.377400
C -8.427600 -11.490800 -21.601300
C -7.883500 -12.967200 -19.249800
H -7.700300 -13.453600 -18.477400
C -7.690300 -10.953100 -20.581200
C -7.420200 -11.660400 -19.409700
H -7.367200 -2.267600 -21.124200
H -7.111100 -4.978500 -20.000300
H -7.081400 -9.085000 -21.037500
N -7.068500 -9.727700 -20.423700
C -6.749400 -2.623600 -21.722100
N -6.661800 -10.872100 -18.539600
N -6.595600 -4.939100 -20.725100
H -6.540500 -1.004900 -22.870400
C -6.498700 -9.758300 -19.209600
C -6.288500 -3.927900 -21.600100
C -6.254000 -1.883400 -22.763000
N -5.994500 -7.250900 -20.488400
C -5.830100 -6.009400 -21.108300
H -5.811500 -8.905000 -16.671400
N -5.792200 -8.688900 -18.687300
C -5.545600 -7.465400 -19.317000
C -5.377000 -4.455300 -22.497000
C -5.335700 -2.408400 -23.662300
C -5.155500 -8.798000 -17.377900
N -5.108700 -5.797100 -22.152900
H -5.015600 -1.879000 -24.355500
C -4.895000 -3.704400 -23.537900
C -4.712300 -6.697400 -18.385900
H -4.530000 -9.539100 -17.347400
C -4.447600 -7.476400 -17.275400
H -4.376100 -4.881000 -19.229100
H -4.285400 -4.061400 -24.143100
C -4.191300 -5.415200 -18.490800
C -3.646200 -7.017300 -16.244300
H -3.465800 -7.544000 -15.498700
C -3.388800 -4.957200 -17.459700
C -3.123900 -5.743000 -16.368800
H -3.024100 -4.102900 -17.508500
H -2.578500 -5.409900 -15.692700
44
Fragment
H -11.372500 2.120100 -33.118300
H -10.926900 0.813000 -31.302500
C -10.827100 2.453200 -32.442200
C -10.562200 1.667400 -31.351300
H -10.485200 4.254200 -33.312300
C -10.304800 3.727500 -32.566700
C -9.759700 2.125400 -30.320200
H -9.665600 0.771500 -24.667900
H -9.574900 1.591200 -29.581900
C -9.503400 4.186600 -31.535600
H -9.421000 6.249300 -31.463600
C -9.238700 3.407600 -30.425100
C -9.056000 0.414500 -25.273100
H -8.935400 -1.410900 -24.455500
N -8.842300 2.507300 -26.658100
C -8.795500 5.508200 -31.433100
C -8.615300 -0.881500 -25.148600
C -8.574000 1.165500 -26.314000
C -8.405400 4.175600 -29.494000
N -8.158800 5.399100 -30.123700
H -8.139500 5.615100 -32.139600
C -8.120900 2.719600 -27.702700
N -7.956500 3.961000 -28.322600
C -7.697000 -1.406400 -26.048000
C -7.662500 0.638000 -27.210900
C -7.452300 6.468400 -29.601400
H -7.410500 -2.285000 -25.940600
N -7.355400 1.649300 -28.085800
N -7.289200 7.582300 -30.271400
C -7.201600 -0.666200 -27.088900
N -6.882500 6.437900 -28.387300
H -6.869600 5.795200 -27.773500
H -6.839900 1.688700 -28.810700
H -6.583800 -1.022200 -27.686800
C -6.530800 8.370500 -29.401300
C -6.260700 7.663300 -28.229800
H -6.250600 10.163800 -30.333600
C -6.067500 9.677400 -29.561200
C -5.523400 8.201000 -27.209700
H -5.341100 7.720500 -26.433600
C -5.332400 10.217000 -28.539800
C -5.064400 9.493500 -27.389100
H -5.008100 11.084800 -28.619100
H -4.558200 9.890000 -26.716700
88
Fragment
H -9.392700 -13.179800 -22.094300
H -8.942900 -14.374600 -20.191900
C -8.886500 -12.783300 -21.421900
C -8.618600 -13.506900 -20.271200
H -8.609900 -11.010300 -22.377400
C -8.427600 -11.490800 -21.601300
C -7.883500 -12.967200 -19.249800
H -7.700300 -13.453600 -18.477400
C -7.690300 -10.953100 -20.581200
C -7.420200 -11.660400 -19.409700
H -7.367200 -2.267600 -21.124200
H -7.111100 -4.978500 -20.000300
H -7.081400 -9.085000 -21.037500
N -7.068500 -9.727700 -20.423700
C -6.749400 -2.623600 -21.722100
N -6.661800 -10.872100 -18.539600
N -6.595600 -4.939100 -20.725100
H -6.540500 -1.004900 -22.870400
C -6.498700 -9.758300 -19.209600
C -6.288500 -3.927900 -21.600100
C -6.254000 -1.883400 -22.763000
N -5.994500 -7.250900 -20.488400
C -5.830100 -6.009400 -21.108300
H -5.811500 -8.905000 -16.671400
N -5.792200 -8.688900 -18.687300
C -5.545600 -7.465400 -19.317000
C -5.377000 -4.455300 -22.497000
C -5.335700 -2.408400 -23.662300
C -5.155500 -8.798000 -17.377900
N -5.108700 -5.797100 -22.152900
H -5.015600 -1.879000 -24.355500
C -4.895000 -3.704400 -23.537900
C -4.712300 -6.697400 -18.385900
H -4.530000 -9.539100 -17.347400
C -4.447600 -7.476400 -17.275400
H -4.376100 -4.881000 -19.229100
H -4.285400 -4.061400 -24.143100
C -4.191300 -5.415200 -18.490800
C -3.646200 -7.017300 -16.244300
H -3.465800 -7.544000 -15.498700
C -3.388800 -4.957200 -17.459700
C -3.123900 -5.743000 -16.368800
H -3.024100 -4.102900 -17.508500
H -2.578500 -5.409900 -15.692700
H -11.372500 2.120100 -33.118300
H -10.926900 0.813000 -31.302500
C -10.827100 2.453200 -32.442200
C -10.562200 1.667400 -31.351300
H -10.485200 4.254200 -33.312300
C -10.304800 3.727500 -32.566700
C -9.759700 2.125400 -30.320200
H -9.665600 0.771500 -24.667900
H -9.574900 1.591200 -29.581900
C -9.503400 4.186600 -31.535600
H -9.421000 6.249300 -31.463600
C -9.238700 3.407600 -30.425100
C -9.056000 0.414500 -25.273100
H -8.935400 -1.410900 -24.455500
N -8.842300 2.507300 -26.658100
C -8.795500 5.508200 -31.433100
C -8.615300 -0.881500 -25.148600
C -8.574000 1.165500 -26.314000
C -8.405400 4.175600 -29.494000
N -8.158800 5.399100 -30.123700
H -8.139500 5.615100 -32.139600
C -8.120900 2.719600 -27.702700
N -7.956500 3.961000 -28.322600
C -7.697000 -1.406400 -26.048000
C -7.662500 0.638000 -27.210900
C -7.452300 6.468400 -29.601400
H -7.410500 -2.285000 -25.940600
N -7.355400 1.649300 -28.085800
N -7.289200 7.582300 -30.271400
C -7.201600 -0.666200 -27.088900
N -6.882500 6.437900 -28.387300
H -6.869600 5.795200 -27.773500
H -6.839900 1.688700 -28.810700
H -6.583800 -1.022200 -27.686800
C -6.530800 8.370500 -29.401300
C -6.260700 7.663300 -28.229800
H -6.250600 10.163800 -30.333600
C -6.067500 9.677400 -29.561200
C -5.523400 8.201000 -27.209700
H -5.341100 7.720500 -26.433600
C -5.332400 10.217000 -28.539800
C -5.064400 9.493500 -27.389100
H -5.008100 11.084800 -28.619100
H -4.558200 9.890000 -26.716700
