30
Fragment
N -19.493900 -14.046700 -29.250100
C -18.398200 -13.827200 -29.497600
H -18.081200 -14.816700 -31.814600
N -17.289100 -14.556100 -31.998500
C -17.030200 -13.541200 -29.822500
H -16.910300 -14.794300 -32.742100
H -16.561300 -12.648700 -28.041400
C -16.510600 -13.922000 -31.104100
C -16.232300 -12.891400 -28.899800
N -15.251800 -13.652600 -31.479600
C -14.925600 -12.608400 -29.285100
C -14.523000 -13.010200 -30.568600
H -14.489400 -10.713700 -27.248200
C -13.801200 -11.943700 -28.720400
C -13.715100 -11.300000 -27.379000
H -13.707100 -11.991500 -26.684700
H -13.552300 -13.796600 -33.035000
N -13.218900 -12.596000 -30.707500
H -12.891900 -10.771200 -27.323400
N -12.792000 -11.931400 -29.556200
C -12.679800 -13.433600 -32.937000
C -12.316400 -12.742100 -31.785100
Cl -12.164100 -14.508900 -35.346700
C -11.729600 -13.575500 -33.935900
C -11.035900 -12.196900 -31.662300
H -10.794000 -11.716700 -30.879000
C -10.452000 -13.051300 -33.839900
C -10.122600 -12.359700 -32.687400
H -9.821900 -13.163300 -34.542300
H -9.252400 -11.989300 -32.599800
30
Fragment
N -9.536100 -14.046700 -29.250100
C -8.440400 -13.827200 -29.497600
H -8.123400 -14.816700 -31.814600
N -7.331300 -14.556100 -31.998500
C -7.072400 -13.541200 -29.822500
H -6.952500 -14.794300 -32.742100
H -6.603500 -12.648700 -28.041400
C -6.552800 -13.922000 -31.104100
C -6.274500 -12.891400 -28.899800
N -5.294000 -13.652600 -31.479600
C -4.967800 -12.608400 -29.285100
C -4.565200 -13.010200 -30.568600
H -4.531600 -10.713700 -27.248200
C -3.843400 -11.943700 -28.720400
C -3.757300 -11.300000 -27.379000
H -3.749300 -11.991500 -26.684700
H -3.594500 -13.796600 -33.035000
N -3.261100 -12.596000 -30.707500
H -2.934100 -10.771200 -27.323400
N -2.834200 -11.931400 -29.556200
C -2.722000 -13.433600 -32.937000
C -2.358600 -12.742100 -31.785100
Cl -2.206300 -14.508900 -35.346700
C -1.771800 -13.575500 -33.935900
C -1.078100 -12.196900 -31.662300
H -0.836200 -11.716700 -30.879000
C -0.494200 -13.051300 -33.839900
C -0.164800 -12.359700 -32.687400
H 0.135900 -13.163300 -34.542300
H 0.705400 -11.989300 -32.599800
60
Fragment
N -19.493900 -14.046700 -29.250100
C -18.398200 -13.827200 -29.497600
H -18.081200 -14.816700 -31.814600
N -17.289100 -14.556100 -31.998500
C -17.030200 -13.541200 -29.822500
H -16.910300 -14.794300 -32.742100
H -16.561300 -12.648700 -28.041400
C -16.510600 -13.922000 -31.104100
C -16.232300 -12.891400 -28.899800
N -15.251800 -13.652600 -31.479600
C -14.925600 -12.608400 -29.285100
C -14.523000 -13.010200 -30.568600
H -14.489400 -10.713700 -27.248200
C -13.801200 -11.943700 -28.720400
C -13.715100 -11.300000 -27.379000
H -13.707100 -11.991500 -26.684700
H -13.552300 -13.796600 -33.035000
N -13.218900 -12.596000 -30.707500
H -12.891900 -10.771200 -27.323400
N -12.792000 -11.931400 -29.556200
C -12.679800 -13.433600 -32.937000
C -12.316400 -12.742100 -31.785100
Cl -12.164100 -14.508900 -35.346700
C -11.729600 -13.575500 -33.935900
C -11.035900 -12.196900 -31.662300
H -10.794000 -11.716700 -30.879000
C -10.452000 -13.051300 -33.839900
C -10.122600 -12.359700 -32.687400
H -9.821900 -13.163300 -34.542300
H -9.252400 -11.989300 -32.599800
N -9.536100 -14.046700 -29.250100
C -8.440400 -13.827200 -29.497600
H -8.123400 -14.816700 -31.814600
N -7.331300 -14.556100 -31.998500
C -7.072400 -13.541200 -29.822500
H -6.952500 -14.794300 -32.742100
H -6.603500 -12.648700 -28.041400
C -6.552800 -13.922000 -31.104100
C -6.274500 -12.891400 -28.899800
N -5.294000 -13.652600 -31.479600
C -4.967800 -12.608400 -29.285100
C -4.565200 -13.010200 -30.568600
H -4.531600 -10.713700 -27.248200
C -3.843400 -11.943700 -28.720400
C -3.757300 -11.300000 -27.379000
H -3.749300 -11.991500 -26.684700
H -3.594500 -13.796600 -33.035000
N -3.261100 -12.596000 -30.707500
H -2.934100 -10.771200 -27.323400
N -2.834200 -11.931400 -29.556200
C -2.722000 -13.433600 -32.937000
C -2.358600 -12.742100 -31.785100
Cl -2.206300 -14.508900 -35.346700
C -1.771800 -13.575500 -33.935900
C -1.078100 -12.196900 -31.662300
H -0.836200 -11.716700 -30.879000
C -0.494200 -13.051300 -33.839900
C -0.164800 -12.359700 -32.687400
H 0.135900 -13.163300 -34.542300
H 0.705400 -11.989300 -32.599800
