30
Fragment
N -19.493900 -14.046700 -29.250100
C -18.398200 -13.827200 -29.497600
H -18.081200 -14.816700 -31.814600
N -17.289100 -14.556100 -31.998500
C -17.030200 -13.541200 -29.822500
H -16.910300 -14.794300 -32.742100
H -16.561300 -12.648700 -28.041400
C -16.510600 -13.922000 -31.104100
C -16.232300 -12.891400 -28.899800
N -15.251800 -13.652600 -31.479600
C -14.925600 -12.608400 -29.285100
C -14.523000 -13.010200 -30.568600
H -14.489400 -10.713700 -27.248200
C -13.801200 -11.943700 -28.720400
C -13.715100 -11.300000 -27.379000
H -13.707100 -11.991500 -26.684700
H -13.552300 -13.796600 -33.035000
N -13.218900 -12.596000 -30.707500
H -12.891900 -10.771200 -27.323400
N -12.792000 -11.931400 -29.556200
C -12.679800 -13.433600 -32.937000
C -12.316400 -12.742100 -31.785100
Cl -12.164100 -14.508900 -35.346700
C -11.729600 -13.575500 -33.935900
C -11.035900 -12.196900 -31.662300
H -10.794000 -11.716700 -30.879000
C -10.452000 -13.051300 -33.839900
C -10.122600 -12.359700 -32.687400
H -9.821900 -13.163300 -34.542300
H -9.252400 -11.989300 -32.599800
30
Fragment
H -15.347600 -8.255200 -38.592100
H -14.778100 -9.429200 -36.649600
C -14.477400 -8.625700 -38.504400
C -14.148000 -9.317200 -37.351900
H -13.806000 -7.982700 -40.312900
C -13.564100 -8.462900 -39.529600
C -12.870400 -9.841500 -37.255900
Cl -12.435900 -10.774900 -35.845100
C -12.283600 -9.008000 -39.406700
C -11.920200 -9.699600 -38.254800
N -11.808000 -8.197400 -41.635600
H -11.708200 -7.037200 -43.868400
N -11.381100 -8.861900 -40.484400
H -11.047700 -10.062500 -38.156800
H -10.893000 -8.257500 -44.507100
C -10.884900 -7.565900 -43.812900
C -10.798800 -8.209700 -42.471400
H -10.110600 -6.979700 -43.943700
C -10.077000 -9.276100 -40.623300
C -9.674400 -8.874300 -41.906800
N -9.348200 -9.918500 -39.712200
C -8.367800 -9.157400 -42.292000
C -8.089400 -10.188000 -40.087700
H -8.038700 -8.914700 -43.150400
H -7.689700 -11.060300 -38.449700
C -7.569800 -9.807100 -41.369400
N -7.310900 -10.822000 -39.193300
H -6.518800 -11.082700 -39.377200
C -6.201800 -10.093100 -41.694200
N -5.106100 -10.312700 -41.941800
60
Fragment
N -19.493900 -14.046700 -29.250100
C -18.398200 -13.827200 -29.497600
H -18.081200 -14.816700 -31.814600
N -17.289100 -14.556100 -31.998500
C -17.030200 -13.541200 -29.822500
H -16.910300 -14.794300 -32.742100
H -16.561300 -12.648700 -28.041400
C -16.510600 -13.922000 -31.104100
C -16.232300 -12.891400 -28.899800
N -15.251800 -13.652600 -31.479600
C -14.925600 -12.608400 -29.285100
C -14.523000 -13.010200 -30.568600
H -14.489400 -10.713700 -27.248200
C -13.801200 -11.943700 -28.720400
C -13.715100 -11.300000 -27.379000
H -13.707100 -11.991500 -26.684700
H -13.552300 -13.796600 -33.035000
N -13.218900 -12.596000 -30.707500
H -12.891900 -10.771200 -27.323400
N -12.792000 -11.931400 -29.556200
C -12.679800 -13.433600 -32.937000
C -12.316400 -12.742100 -31.785100
Cl -12.164100 -14.508900 -35.346700
C -11.729600 -13.575500 -33.935900
C -11.035900 -12.196900 -31.662300
H -10.794000 -11.716700 -30.879000
C -10.452000 -13.051300 -33.839900
C -10.122600 -12.359700 -32.687400
H -9.821900 -13.163300 -34.542300
H -9.252400 -11.989300 -32.599800
H -15.347600 -8.255200 -38.592100
H -14.778100 -9.429200 -36.649600
C -14.477400 -8.625700 -38.504400
C -14.148000 -9.317200 -37.351900
H -13.806000 -7.982700 -40.312900
C -13.564100 -8.462900 -39.529600
C -12.870400 -9.841500 -37.255900
Cl -12.435900 -10.774900 -35.845100
C -12.283600 -9.008000 -39.406700
C -11.920200 -9.699600 -38.254800
N -11.808000 -8.197400 -41.635600
H -11.708200 -7.037200 -43.868400
N -11.381100 -8.861900 -40.484400
H -11.047700 -10.062500 -38.156800
H -10.893000 -8.257500 -44.507100
C -10.884900 -7.565900 -43.812900
C -10.798800 -8.209700 -42.471400
H -10.110600 -6.979700 -43.943700
C -10.077000 -9.276100 -40.623300
C -9.674400 -8.874300 -41.906800
N -9.348200 -9.918500 -39.712200
C -8.367800 -9.157400 -42.292000
C -8.089400 -10.188000 -40.087700
H -8.038700 -8.914700 -43.150400
H -7.689700 -11.060300 -38.449700
C -7.569800 -9.807100 -41.369400
N -7.310900 -10.822000 -39.193300
H -6.518800 -11.082700 -39.377200
C -6.201800 -10.093100 -41.694200
N -5.106100 -10.312700 -41.941800
