30
Fragment
N -19.493900 -14.046700 -29.250100
C -18.398200 -13.827200 -29.497600
H -18.081200 -14.816700 -31.814600
N -17.289100 -14.556100 -31.998500
C -17.030200 -13.541200 -29.822500
H -16.910300 -14.794300 -32.742100
H -16.561300 -12.648700 -28.041400
C -16.510600 -13.922000 -31.104100
C -16.232300 -12.891400 -28.899800
N -15.251800 -13.652600 -31.479600
C -14.925600 -12.608400 -29.285100
C -14.523000 -13.010200 -30.568600
H -14.489400 -10.713700 -27.248200
C -13.801200 -11.943700 -28.720400
C -13.715100 -11.300000 -27.379000
H -13.707100 -11.991500 -26.684700
H -13.552300 -13.796600 -33.035000
N -13.218900 -12.596000 -30.707500
H -12.891900 -10.771200 -27.323400
N -12.792000 -11.931400 -29.556200
C -12.679800 -13.433600 -32.937000
C -12.316400 -12.742100 -31.785100
Cl -12.164100 -14.508900 -35.346700
C -11.729600 -13.575500 -33.935900
C -11.035900 -12.196900 -31.662300
H -10.794000 -11.716700 -30.879000
C -10.452000 -13.051300 -33.839900
C -10.122600 -12.359700 -32.687400
H -9.821900 -13.163300 -34.542300
H -9.252400 -11.989300 -32.599800
30
Fragment
H -30.326400 -17.883100 -28.421800
H -29.756900 -16.709100 -26.479300
C -29.456200 -17.512700 -28.334100
C -29.126800 -16.821100 -27.181700
H -28.784800 -18.155700 -30.142600
C -28.542900 -17.675500 -29.359300
C -27.849200 -16.296900 -27.085600
Cl -27.414700 -15.363500 -25.674800
C -27.262400 -17.130300 -29.236500
C -26.898900 -16.438800 -28.084600
N -26.786800 -17.941000 -31.465400
H -26.686900 -19.101200 -33.698100
N -26.359900 -17.276400 -30.314100
H -26.026400 -16.075800 -27.986500
H -25.871700 -17.880900 -34.336800
C -25.863600 -18.572400 -33.642600
C -25.777600 -17.928700 -32.301200
H -25.089400 -19.158700 -33.773400
C -25.055800 -16.862200 -30.453000
C -24.653200 -17.264000 -31.736500
N -24.327000 -16.219800 -29.542000
C -23.346500 -16.981000 -32.121800
C -23.068200 -15.950400 -29.917500
H -23.017500 -17.223700 -32.980100
H -22.668500 -15.078100 -28.279400
C -22.548500 -16.331200 -31.199100
N -22.289700 -15.316300 -29.023100
H -21.497600 -15.055700 -29.207000
C -21.180600 -16.045200 -31.524000
N -20.084900 -15.825700 -31.771500
60
Fragment
N -19.493900 -14.046700 -29.250100
C -18.398200 -13.827200 -29.497600
H -18.081200 -14.816700 -31.814600
N -17.289100 -14.556100 -31.998500
C -17.030200 -13.541200 -29.822500
H -16.910300 -14.794300 -32.742100
H -16.561300 -12.648700 -28.041400
C -16.510600 -13.922000 -31.104100
C -16.232300 -12.891400 -28.899800
N -15.251800 -13.652600 -31.479600
C -14.925600 -12.608400 -29.285100
C -14.523000 -13.010200 -30.568600
H -14.489400 -10.713700 -27.248200
C -13.801200 -11.943700 -28.720400
C -13.715100 -11.300000 -27.379000
H -13.707100 -11.991500 -26.684700
H -13.552300 -13.796600 -33.035000
N -13.218900 -12.596000 -30.707500
H -12.891900 -10.771200 -27.323400
N -12.792000 -11.931400 -29.556200
C -12.679800 -13.433600 -32.937000
C -12.316400 -12.742100 -31.785100
Cl -12.164100 -14.508900 -35.346700
C -11.729600 -13.575500 -33.935900
C -11.035900 -12.196900 -31.662300
H -10.794000 -11.716700 -30.879000
C -10.452000 -13.051300 -33.839900
C -10.122600 -12.359700 -32.687400
H -9.821900 -13.163300 -34.542300
H -9.252400 -11.989300 -32.599800
H -30.326400 -17.883100 -28.421800
H -29.756900 -16.709100 -26.479300
C -29.456200 -17.512700 -28.334100
C -29.126800 -16.821100 -27.181700
H -28.784800 -18.155700 -30.142600
C -28.542900 -17.675500 -29.359300
C -27.849200 -16.296900 -27.085600
Cl -27.414700 -15.363500 -25.674800
C -27.262400 -17.130300 -29.236500
C -26.898900 -16.438800 -28.084600
N -26.786800 -17.941000 -31.465400
H -26.686900 -19.101200 -33.698100
N -26.359900 -17.276400 -30.314100
H -26.026400 -16.075800 -27.986500
H -25.871700 -17.880900 -34.336800
C -25.863600 -18.572400 -33.642600
C -25.777600 -17.928700 -32.301200
H -25.089400 -19.158700 -33.773400
C -25.055800 -16.862200 -30.453000
C -24.653200 -17.264000 -31.736500
N -24.327000 -16.219800 -29.542000
C -23.346500 -16.981000 -32.121800
C -23.068200 -15.950400 -29.917500
H -23.017500 -17.223700 -32.980100
H -22.668500 -15.078100 -28.279400
C -22.548500 -16.331200 -31.199100
N -22.289700 -15.316300 -29.023100
H -21.497600 -15.055700 -29.207000
C -21.180600 -16.045200 -31.524000
N -20.084900 -15.825700 -31.771500
