30
Fragment
N -19.493900 -14.046700 -29.250100
C -18.398200 -13.827200 -29.497600
H -18.081200 -14.816700 -31.814600
N -17.289100 -14.556100 -31.998500
C -17.030200 -13.541200 -29.822500
H -16.910300 -14.794300 -32.742100
H -16.561300 -12.648700 -28.041400
C -16.510600 -13.922000 -31.104100
C -16.232300 -12.891400 -28.899800
N -15.251800 -13.652600 -31.479600
C -14.925600 -12.608400 -29.285100
C -14.523000 -13.010200 -30.568600
H -14.489400 -10.713700 -27.248200
C -13.801200 -11.943700 -28.720400
C -13.715100 -11.300000 -27.379000
H -13.707100 -11.991500 -26.684700
H -13.552300 -13.796600 -33.035000
N -13.218900 -12.596000 -30.707500
H -12.891900 -10.771200 -27.323400
N -12.792000 -11.931400 -29.556200
C -12.679800 -13.433600 -32.937000
C -12.316400 -12.742100 -31.785100
Cl -12.164100 -14.508900 -35.346700
C -11.729600 -13.575500 -33.935900
C -11.035900 -12.196900 -31.662300
H -10.794000 -11.716700 -30.879000
C -10.452000 -13.051300 -33.839900
C -10.122600 -12.359700 -32.687400
H -9.821900 -13.163300 -34.542300
H -9.252400 -11.989300 -32.599800
30
Fragment
H -20.368600 -10.415000 -28.421800
H -19.799100 -9.241000 -26.479300
C -19.498400 -10.044600 -28.334100
C -19.169000 -9.353000 -27.181700
H -18.827000 -10.687600 -30.142600
C -18.585100 -10.207400 -29.359300
C -17.891400 -8.828800 -27.085600
Cl -17.456900 -7.895400 -25.674800
C -17.304600 -9.662200 -29.236500
C -16.941100 -8.970700 -28.084600
N -16.829000 -10.472900 -31.465400
H -16.729100 -11.633100 -33.698100
N -16.402100 -9.808300 -30.314100
H -16.068600 -8.607700 -27.986500
H -15.913900 -10.412800 -34.336800
C -15.905800 -11.104300 -33.642600
C -15.819800 -10.460600 -32.301200
H -15.131600 -11.690600 -33.773400
C -15.098000 -9.394100 -30.453000
C -14.695400 -9.795900 -31.736500
N -14.369200 -8.751700 -29.542000
C -13.388700 -9.512900 -32.121800
C -13.110400 -8.482300 -29.917500
H -13.059700 -9.755600 -32.980100
H -12.710700 -7.610000 -28.279400
C -12.590700 -8.863100 -31.199100
N -12.331900 -7.848200 -29.023100
H -11.539800 -7.587600 -29.207000
C -11.222800 -8.577100 -31.524000
N -10.127100 -8.357600 -31.771500
60
Fragment
N -19.493900 -14.046700 -29.250100
C -18.398200 -13.827200 -29.497600
H -18.081200 -14.816700 -31.814600
N -17.289100 -14.556100 -31.998500
C -17.030200 -13.541200 -29.822500
H -16.910300 -14.794300 -32.742100
H -16.561300 -12.648700 -28.041400
C -16.510600 -13.922000 -31.104100
C -16.232300 -12.891400 -28.899800
N -15.251800 -13.652600 -31.479600
C -14.925600 -12.608400 -29.285100
C -14.523000 -13.010200 -30.568600
H -14.489400 -10.713700 -27.248200
C -13.801200 -11.943700 -28.720400
C -13.715100 -11.300000 -27.379000
H -13.707100 -11.991500 -26.684700
H -13.552300 -13.796600 -33.035000
N -13.218900 -12.596000 -30.707500
H -12.891900 -10.771200 -27.323400
N -12.792000 -11.931400 -29.556200
C -12.679800 -13.433600 -32.937000
C -12.316400 -12.742100 -31.785100
Cl -12.164100 -14.508900 -35.346700
C -11.729600 -13.575500 -33.935900
C -11.035900 -12.196900 -31.662300
H -10.794000 -11.716700 -30.879000
C -10.452000 -13.051300 -33.839900
C -10.122600 -12.359700 -32.687400
H -9.821900 -13.163300 -34.542300
H -9.252400 -11.989300 -32.599800
H -20.368600 -10.415000 -28.421800
H -19.799100 -9.241000 -26.479300
C -19.498400 -10.044600 -28.334100
C -19.169000 -9.353000 -27.181700
H -18.827000 -10.687600 -30.142600
C -18.585100 -10.207400 -29.359300
C -17.891400 -8.828800 -27.085600
Cl -17.456900 -7.895400 -25.674800
C -17.304600 -9.662200 -29.236500
C -16.941100 -8.970700 -28.084600
N -16.829000 -10.472900 -31.465400
H -16.729100 -11.633100 -33.698100
N -16.402100 -9.808300 -30.314100
H -16.068600 -8.607700 -27.986500
H -15.913900 -10.412800 -34.336800
C -15.905800 -11.104300 -33.642600
C -15.819800 -10.460600 -32.301200
H -15.131600 -11.690600 -33.773400
C -15.098000 -9.394100 -30.453000
C -14.695400 -9.795900 -31.736500
N -14.369200 -8.751700 -29.542000
C -13.388700 -9.512900 -32.121800
C -13.110400 -8.482300 -29.917500
H -13.059700 -9.755600 -32.980100
H -12.710700 -7.610000 -28.279400
C -12.590700 -8.863100 -31.199100
N -12.331900 -7.848200 -29.023100
H -11.539800 -7.587600 -29.207000
C -11.222800 -8.577100 -31.524000
N -10.127100 -8.357600 -31.771500
