26
Fragment
O -14.724500 -28.095400 -28.798900
N -14.370800 -31.172500 -27.691000
N -14.239400 -29.453200 -31.524300
C -13.720300 -27.682600 -28.304900
O -13.708400 -26.612100 -27.518500
H -13.487800 -24.855900 -25.637400
C -13.477100 -30.594000 -28.085800
H -13.450200 -27.350700 -25.023500
C -13.426500 -29.296600 -30.739100
H -12.708100 -24.396300 -26.917400
C -12.687200 -24.976700 -26.153100
C -12.628600 -27.430100 -25.513700
C -12.597600 -26.401400 -26.609900
H -12.568300 -28.308300 -25.897000
C -12.369500 -28.320600 -28.574100
C -12.290000 -29.857200 -28.490500
C -12.275700 -29.151900 -29.852800
H -11.923000 -24.765700 -25.611800
H -11.887100 -27.288300 -24.920600
O -11.353000 -26.504500 -27.361500
C -11.140900 -27.532700 -28.177700
C -11.043600 -30.479200 -28.066700
C -11.027700 -29.183000 -30.613700
N -10.116700 -29.258500 -31.288400
N -10.071200 -30.977600 -27.749600
O -10.053300 -27.796300 -28.590100
10
Fragment
H -11.487300 -23.166700 -29.217200
O -10.868900 -23.103400 -31.568300
H -10.797600 -24.547800 -28.945000
C -10.669500 -23.663300 -29.295500
C -10.276700 -23.749300 -30.727500
H -9.977200 -23.220000 -28.799700
H -9.329000 -25.527800 -30.728000
C -9.151300 -24.648400 -31.070100
H -9.054300 -24.689800 -32.024300
H -8.342000 -24.310800 -30.680300
36
Fragment
O -14.724500 -28.095400 -28.798900
N -14.370800 -31.172500 -27.691000
N -14.239400 -29.453200 -31.524300
C -13.720300 -27.682600 -28.304900
O -13.708400 -26.612100 -27.518500
H -13.487800 -24.855900 -25.637400
C -13.477100 -30.594000 -28.085800
H -13.450200 -27.350700 -25.023500
C -13.426500 -29.296600 -30.739100
H -12.708100 -24.396300 -26.917400
C -12.687200 -24.976700 -26.153100
C -12.628600 -27.430100 -25.513700
C -12.597600 -26.401400 -26.609900
H -12.568300 -28.308300 -25.897000
C -12.369500 -28.320600 -28.574100
C -12.290000 -29.857200 -28.490500
C -12.275700 -29.151900 -29.852800
H -11.923000 -24.765700 -25.611800
H -11.887100 -27.288300 -24.920600
O -11.353000 -26.504500 -27.361500
C -11.140900 -27.532700 -28.177700
C -11.043600 -30.479200 -28.066700
C -11.027700 -29.183000 -30.613700
N -10.116700 -29.258500 -31.288400
N -10.071200 -30.977600 -27.749600
O -10.053300 -27.796300 -28.590100
H -11.487300 -23.166700 -29.217200
O -10.868900 -23.103400 -31.568300
H -10.797600 -24.547800 -28.945000
C -10.669500 -23.663300 -29.295500
C -10.276700 -23.749300 -30.727500
H -9.977200 -23.220000 -28.799700
H -9.329000 -25.527800 -30.728000
C -9.151300 -24.648400 -31.070100
H -9.054300 -24.689800 -32.024300
H -8.342000 -24.310800 -30.680300
