26
Fragment
O -14.724500 -28.095400 -28.798900
N -14.370800 -31.172500 -27.691000
N -14.239400 -29.453200 -31.524300
C -13.720300 -27.682600 -28.304900
O -13.708400 -26.612100 -27.518500
H -13.487800 -24.855900 -25.637400
C -13.477100 -30.594000 -28.085800
H -13.450200 -27.350700 -25.023500
C -13.426500 -29.296600 -30.739100
H -12.708100 -24.396300 -26.917400
C -12.687200 -24.976700 -26.153100
C -12.628600 -27.430100 -25.513700
C -12.597600 -26.401400 -26.609900
H -12.568300 -28.308300 -25.897000
C -12.369500 -28.320600 -28.574100
C -12.290000 -29.857200 -28.490500
C -12.275700 -29.151900 -29.852800
H -11.923000 -24.765700 -25.611800
H -11.887100 -27.288300 -24.920600
O -11.353000 -26.504500 -27.361500
C -11.140900 -27.532700 -28.177700
C -11.043600 -30.479200 -28.066700
C -11.027700 -29.183000 -30.613700
N -10.116700 -29.258500 -31.288400
N -10.071200 -30.977600 -27.749600
O -10.053300 -27.796300 -28.590100
10
Fragment
H -14.816500 -33.276600 -31.173700
H -14.104200 -33.655600 -29.829700
C -14.007200 -33.614200 -30.783800
H -13.829500 -34.493600 -31.126000
H -13.181300 -32.185800 -33.054200
C -12.881800 -32.715100 -31.126500
C -12.489000 -32.629100 -32.558500
H -12.360900 -33.513600 -32.909000
O -12.289600 -32.069200 -30.285600
H -11.671200 -32.132500 -32.636800
36
Fragment
O -14.724500 -28.095400 -28.798900
N -14.370800 -31.172500 -27.691000
N -14.239400 -29.453200 -31.524300
C -13.720300 -27.682600 -28.304900
O -13.708400 -26.612100 -27.518500
H -13.487800 -24.855900 -25.637400
C -13.477100 -30.594000 -28.085800
H -13.450200 -27.350700 -25.023500
C -13.426500 -29.296600 -30.739100
H -12.708100 -24.396300 -26.917400
C -12.687200 -24.976700 -26.153100
C -12.628600 -27.430100 -25.513700
C -12.597600 -26.401400 -26.609900
H -12.568300 -28.308300 -25.897000
C -12.369500 -28.320600 -28.574100
C -12.290000 -29.857200 -28.490500
C -12.275700 -29.151900 -29.852800
H -11.923000 -24.765700 -25.611800
H -11.887100 -27.288300 -24.920600
O -11.353000 -26.504500 -27.361500
C -11.140900 -27.532700 -28.177700
C -11.043600 -30.479200 -28.066700
C -11.027700 -29.183000 -30.613700
N -10.116700 -29.258500 -31.288400
N -10.071200 -30.977600 -27.749600
O -10.053300 -27.796300 -28.590100
H -14.816500 -33.276600 -31.173700
H -14.104200 -33.655600 -29.829700
C -14.007200 -33.614200 -30.783800
H -13.829500 -34.493600 -31.126000
H -13.181300 -32.185800 -33.054200
C -12.881800 -32.715100 -31.126500
C -12.489000 -32.629100 -32.558500
H -12.360900 -33.513600 -32.909000
O -12.289600 -32.069200 -30.285600
H -11.671200 -32.132500 -32.636800
