26
Fragment
O -14.724500 -28.095400 -28.798900
N -14.370800 -31.172500 -27.691000
N -14.239400 -29.453200 -31.524300
C -13.720300 -27.682600 -28.304900
O -13.708400 -26.612100 -27.518500
H -13.487800 -24.855900 -25.637400
C -13.477100 -30.594000 -28.085800
H -13.450200 -27.350700 -25.023500
C -13.426500 -29.296600 -30.739100
H -12.708100 -24.396300 -26.917400
C -12.687200 -24.976700 -26.153100
C -12.628600 -27.430100 -25.513700
C -12.597600 -26.401400 -26.609900
H -12.568300 -28.308300 -25.897000
C -12.369500 -28.320600 -28.574100
C -12.290000 -29.857200 -28.490500
C -12.275700 -29.151900 -29.852800
H -11.923000 -24.765700 -25.611800
H -11.887100 -27.288300 -24.920600
O -11.353000 -26.504500 -27.361500
C -11.140900 -27.532700 -28.177700
C -11.043600 -30.479200 -28.066700
C -11.027700 -29.183000 -30.613700
N -10.116700 -29.258500 -31.288400
N -10.071200 -30.977600 -27.749600
O -10.053300 -27.796300 -28.590100
26
Fragment
N -14.963000 -26.069900 -18.517800
N -14.548000 -21.948300 -19.048200
C -14.235500 -25.306700 -18.952400
C -14.008400 -22.930900 -19.266100
C -13.418300 -24.235100 -19.504100
N -13.115000 -26.721500 -22.087300
C -12.934700 -25.756800 -21.512300
N -12.825800 -22.599600 -22.655200
C -12.753700 -23.375800 -21.828800
C -12.742900 -24.468900 -20.866300
C -11.885100 -24.380900 -19.580800
O -11.865600 -26.732400 -19.234600
O -11.468700 -22.056000 -19.796100
C -11.280100 -25.694700 -19.140100
C -11.074100 -23.116300 -19.418300
H -10.815200 -24.292800 -16.672700
O -10.014100 -25.637000 -18.745300
O -9.866100 -23.258000 -18.881700
C -9.857600 -24.336100 -16.725700
H -9.544900 -25.105100 -16.243900
H -9.479800 -23.541900 -16.340800
C -9.440200 -24.442400 -18.164400
C -7.957900 -24.553900 -18.393100
H -7.782700 -24.607700 -19.335400
H -7.626000 -25.343800 -17.960300
H -7.519100 -23.781400 -18.029500
52
Fragment
O -14.724500 -28.095400 -28.798900
N -14.370800 -31.172500 -27.691000
N -14.239400 -29.453200 -31.524300
C -13.720300 -27.682600 -28.304900
O -13.708400 -26.612100 -27.518500
H -13.487800 -24.855900 -25.637400
C -13.477100 -30.594000 -28.085800
H -13.450200 -27.350700 -25.023500
C -13.426500 -29.296600 -30.739100
H -12.708100 -24.396300 -26.917400
C -12.687200 -24.976700 -26.153100
C -12.628600 -27.430100 -25.513700
C -12.597600 -26.401400 -26.609900
H -12.568300 -28.308300 -25.897000
C -12.369500 -28.320600 -28.574100
C -12.290000 -29.857200 -28.490500
C -12.275700 -29.151900 -29.852800
H -11.923000 -24.765700 -25.611800
H -11.887100 -27.288300 -24.920600
O -11.353000 -26.504500 -27.361500
C -11.140900 -27.532700 -28.177700
C -11.043600 -30.479200 -28.066700
C -11.027700 -29.183000 -30.613700
N -10.116700 -29.258500 -31.288400
N -10.071200 -30.977600 -27.749600
O -10.053300 -27.796300 -28.590100
N -14.963000 -26.069900 -18.517800
N -14.548000 -21.948300 -19.048200
C -14.235500 -25.306700 -18.952400
C -14.008400 -22.930900 -19.266100
C -13.418300 -24.235100 -19.504100
N -13.115000 -26.721500 -22.087300
C -12.934700 -25.756800 -21.512300
N -12.825800 -22.599600 -22.655200
C -12.753700 -23.375800 -21.828800
C -12.742900 -24.468900 -20.866300
C -11.885100 -24.380900 -19.580800
O -11.865600 -26.732400 -19.234600
O -11.468700 -22.056000 -19.796100
C -11.280100 -25.694700 -19.140100
C -11.074100 -23.116300 -19.418300
H -10.815200 -24.292800 -16.672700
O -10.014100 -25.637000 -18.745300
O -9.866100 -23.258000 -18.881700
C -9.857600 -24.336100 -16.725700
H -9.544900 -25.105100 -16.243900
H -9.479800 -23.541900 -16.340800
C -9.440200 -24.442400 -18.164400
C -7.957900 -24.553900 -18.393100
H -7.782700 -24.607700 -19.335400
H -7.626000 -25.343800 -17.960300
H -7.519100 -23.781400 -18.029500
