14
Fragment
H -17.376000 -17.258900 -22.280000
H -17.098600 -17.935600 -23.669200
H -16.813700 -19.483000 -21.957800
C -16.687200 -17.654900 -22.836800
C -16.110000 -18.842100 -22.143100
H -15.701500 -15.866700 -21.304200
O -15.679200 -16.682100 -23.109300
O -15.480200 -18.453700 -20.915400
H -15.457900 -19.269100 -22.720600
C -15.049400 -16.293700 -21.881600
C -14.472300 -17.480900 -21.187900
H -14.345700 -15.652700 -22.067000
H -14.060900 -17.200100 -20.355600
H -13.783500 -17.876800 -21.744700
26
Fragment
H -20.463400 -20.410000 -24.119800
C -19.571300 -20.414100 -23.766000
H -19.538500 -20.972500 -22.985900
H -19.383700 -20.069800 -26.477500
H -19.316500 -19.519000 -23.529600
O -19.100300 -22.274200 -25.114600
O -18.753300 -24.086700 -26.318100
C -18.623800 -20.946300 -24.802700
C -18.522500 -20.119000 -26.056200
C -18.312100 -23.139300 -25.742300
H -18.224800 -19.234100 -25.832400
H -17.894500 -20.525300 -26.657900
O -17.331700 -21.033200 -24.153400
N -17.162100 -23.678600 -29.117100
N -16.897000 -26.517500 -26.049100
C -16.824400 -22.884300 -25.615500
C -16.645500 -23.460400 -28.123400
C -16.531200 -25.442700 -25.951100
C -16.370500 -21.824400 -24.635400
C -15.969200 -23.101100 -26.885000
C -15.932300 -24.129100 -25.743600
O -15.239400 -21.723500 -24.268300
C -14.776900 -22.291400 -27.083300
C -14.721300 -24.244700 -24.942200
N -13.826800 -21.688200 -27.269800
N -13.793600 -24.479400 -24.321000
40
Fragment
H -17.376000 -17.258900 -22.280000
H -17.098600 -17.935600 -23.669200
H -16.813700 -19.483000 -21.957800
C -16.687200 -17.654900 -22.836800
C -16.110000 -18.842100 -22.143100
H -15.701500 -15.866700 -21.304200
O -15.679200 -16.682100 -23.109300
O -15.480200 -18.453700 -20.915400
H -15.457900 -19.269100 -22.720600
C -15.049400 -16.293700 -21.881600
C -14.472300 -17.480900 -21.187900
H -14.345700 -15.652700 -22.067000
H -14.060900 -17.200100 -20.355600
H -13.783500 -17.876800 -21.744700
H -20.463400 -20.410000 -24.119800
C -19.571300 -20.414100 -23.766000
H -19.538500 -20.972500 -22.985900
H -19.383700 -20.069800 -26.477500
H -19.316500 -19.519000 -23.529600
O -19.100300 -22.274200 -25.114600
O -18.753300 -24.086700 -26.318100
C -18.623800 -20.946300 -24.802700
C -18.522500 -20.119000 -26.056200
C -18.312100 -23.139300 -25.742300
H -18.224800 -19.234100 -25.832400
H -17.894500 -20.525300 -26.657900
O -17.331700 -21.033200 -24.153400
N -17.162100 -23.678600 -29.117100
N -16.897000 -26.517500 -26.049100
C -16.824400 -22.884300 -25.615500
C -16.645500 -23.460400 -28.123400
C -16.531200 -25.442700 -25.951100
C -16.370500 -21.824400 -24.635400
C -15.969200 -23.101100 -26.885000
C -15.932300 -24.129100 -25.743600
O -15.239400 -21.723500 -24.268300
C -14.776900 -22.291400 -27.083300
C -14.721300 -24.244700 -24.942200
N -13.826800 -21.688200 -27.269800
N -13.793600 -24.479400 -24.321000
