14
Fragment
H -17.376000 -17.258900 -22.280000
H -17.098600 -17.935600 -23.669200
H -16.813700 -19.483000 -21.957800
C -16.687200 -17.654900 -22.836800
C -16.110000 -18.842100 -22.143100
H -15.701500 -15.866700 -21.304200
O -15.679200 -16.682100 -23.109300
O -15.480200 -18.453700 -20.915400
H -15.457900 -19.269100 -22.720600
C -15.049400 -16.293700 -21.881600
C -14.472300 -17.480900 -21.187900
H -14.345700 -15.652700 -22.067000
H -14.060900 -17.200100 -20.355600
H -13.783500 -17.876800 -21.744700
26
Fragment
N -11.366200 -18.188200 -19.703700
N -11.333100 -20.979400 -16.754900
C -10.438600 -18.422900 -19.082500
C -10.382900 -20.376200 -16.941500
O -9.920400 -20.944100 -19.756400
C -9.227500 -18.538500 -18.281100
C -9.190700 -19.566500 -17.139700
C -8.789300 -20.843200 -19.389400
C -8.628600 -17.224900 -18.073600
C -8.514400 -19.207200 -15.901300
C -8.335400 -19.783300 -18.409200
N -8.262800 -16.150100 -17.975600
N -7.997700 -18.989000 -14.907700
O -7.828100 -21.634400 -19.871300
H -7.265400 -22.142300 -17.366900
H -6.935100 -23.433500 -18.192300
C -6.847700 -19.528300 -18.282400
C -6.637400 -22.548600 -17.968600
C -6.536000 -21.721300 -19.222100
O -6.406500 -18.580900 -17.706600
O -6.059500 -20.393400 -18.910100
H -5.843400 -23.148600 -20.495100
H -5.776200 -22.597800 -17.547200
H -5.621300 -21.695100 -21.038800
C -5.588500 -22.253500 -20.258700
H -4.696500 -22.257600 -19.904900
40
Fragment
H -17.376000 -17.258900 -22.280000
H -17.098600 -17.935600 -23.669200
H -16.813700 -19.483000 -21.957800
C -16.687200 -17.654900 -22.836800
C -16.110000 -18.842100 -22.143100
H -15.701500 -15.866700 -21.304200
O -15.679200 -16.682100 -23.109300
O -15.480200 -18.453700 -20.915400
H -15.457900 -19.269100 -22.720600
C -15.049400 -16.293700 -21.881600
C -14.472300 -17.480900 -21.187900
H -14.345700 -15.652700 -22.067000
H -14.060900 -17.200100 -20.355600
H -13.783500 -17.876800 -21.744700
N -11.366200 -18.188200 -19.703700
N -11.333100 -20.979400 -16.754900
C -10.438600 -18.422900 -19.082500
C -10.382900 -20.376200 -16.941500
O -9.920400 -20.944100 -19.756400
C -9.227500 -18.538500 -18.281100
C -9.190700 -19.566500 -17.139700
C -8.789300 -20.843200 -19.389400
C -8.628600 -17.224900 -18.073600
C -8.514400 -19.207200 -15.901300
C -8.335400 -19.783300 -18.409200
N -8.262800 -16.150100 -17.975600
N -7.997700 -18.989000 -14.907700
O -7.828100 -21.634400 -19.871300
H -7.265400 -22.142300 -17.366900
H -6.935100 -23.433500 -18.192300
C -6.847700 -19.528300 -18.282400
C -6.637400 -22.548600 -17.968600
C -6.536000 -21.721300 -19.222100
O -6.406500 -18.580900 -17.706600
O -6.059500 -20.393400 -18.910100
H -5.843400 -23.148600 -20.495100
H -5.776200 -22.597800 -17.547200
H -5.621300 -21.695100 -21.038800
C -5.588500 -22.253500 -20.258700
H -4.696500 -22.257600 -19.904900
