14
Fragment
H -17.376000 -17.258900 -22.280000
H -17.098600 -17.935600 -23.669200
H -16.813700 -19.483000 -21.957800
C -16.687200 -17.654900 -22.836800
C -16.110000 -18.842100 -22.143100
H -15.701500 -15.866700 -21.304200
O -15.679200 -16.682100 -23.109300
O -15.480200 -18.453700 -20.915400
H -15.457900 -19.269100 -22.720600
C -15.049400 -16.293700 -21.881600
C -14.472300 -17.480900 -21.187900
H -14.345700 -15.652700 -22.067000
H -14.060900 -17.200100 -20.355600
H -13.783500 -17.876800 -21.744700
26
Fragment
H -18.875500 -12.878100 -24.119800
C -17.983400 -12.882200 -23.766000
H -17.950600 -13.440600 -22.985900
H -17.795800 -12.537900 -26.477500
H -17.728600 -11.987100 -23.529600
O -17.512400 -14.742400 -25.114600
O -17.165400 -16.554900 -26.318100
C -17.035900 -13.414400 -24.802700
C -16.934600 -12.587100 -26.056200
C -16.724200 -15.607500 -25.742300
H -16.636900 -11.702300 -25.832400
H -16.306600 -12.993500 -26.657900
O -15.743800 -13.501400 -24.153400
N -15.574200 -16.146700 -29.117100
N -15.309100 -18.985700 -26.049100
C -15.236500 -15.352400 -25.615500
C -15.057600 -15.928500 -28.123400
C -14.943300 -17.910800 -25.951100
C -14.782600 -14.292600 -24.635400
C -14.381300 -15.569300 -26.885000
C -14.344400 -16.597200 -25.743600
O -13.651500 -14.191700 -24.268300
C -13.189100 -14.759600 -27.083300
C -13.133400 -16.712800 -24.942200
N -12.238900 -14.156300 -27.269800
N -12.205700 -16.947600 -24.321000
40
Fragment
H -17.376000 -17.258900 -22.280000
H -17.098600 -17.935600 -23.669200
H -16.813700 -19.483000 -21.957800
C -16.687200 -17.654900 -22.836800
C -16.110000 -18.842100 -22.143100
H -15.701500 -15.866700 -21.304200
O -15.679200 -16.682100 -23.109300
O -15.480200 -18.453700 -20.915400
H -15.457900 -19.269100 -22.720600
C -15.049400 -16.293700 -21.881600
C -14.472300 -17.480900 -21.187900
H -14.345700 -15.652700 -22.067000
H -14.060900 -17.200100 -20.355600
H -13.783500 -17.876800 -21.744700
H -18.875500 -12.878100 -24.119800
C -17.983400 -12.882200 -23.766000
H -17.950600 -13.440600 -22.985900
H -17.795800 -12.537900 -26.477500
H -17.728600 -11.987100 -23.529600
O -17.512400 -14.742400 -25.114600
O -17.165400 -16.554900 -26.318100
C -17.035900 -13.414400 -24.802700
C -16.934600 -12.587100 -26.056200
C -16.724200 -15.607500 -25.742300
H -16.636900 -11.702300 -25.832400
H -16.306600 -12.993500 -26.657900
O -15.743800 -13.501400 -24.153400
N -15.574200 -16.146700 -29.117100
N -15.309100 -18.985700 -26.049100
C -15.236500 -15.352400 -25.615500
C -15.057600 -15.928500 -28.123400
C -14.943300 -17.910800 -25.951100
C -14.782600 -14.292600 -24.635400
C -14.381300 -15.569300 -26.885000
C -14.344400 -16.597200 -25.743600
O -13.651500 -14.191700 -24.268300
C -13.189100 -14.759600 -27.083300
C -13.133400 -16.712800 -24.942200
N -12.238900 -14.156300 -27.269800
N -12.205700 -16.947600 -24.321000
