26
Fragment
O -14.724500 -28.095400 -28.798900
N -14.370800 -31.172500 -27.691000
N -14.239400 -29.453200 -31.524300
C -13.720300 -27.682600 -28.304900
O -13.708400 -26.612100 -27.518500
H -13.487800 -24.855900 -25.637400
C -13.477100 -30.594000 -28.085800
H -13.450200 -27.350700 -25.023500
C -13.426500 -29.296600 -30.739100
H -12.708100 -24.396300 -26.917400
C -12.687200 -24.976700 -26.153100
C -12.628600 -27.430100 -25.513700
C -12.597600 -26.401400 -26.609900
H -12.568300 -28.308300 -25.897000
C -12.369500 -28.320600 -28.574100
C -12.290000 -29.857200 -28.490500
C -12.275700 -29.151900 -29.852800
H -11.923000 -24.765700 -25.611800
H -11.887100 -27.288300 -24.920600
O -11.353000 -26.504500 -27.361500
C -11.140900 -27.532700 -28.177700
C -11.043600 -30.479200 -28.066700
C -11.027700 -29.183000 -30.613700
N -10.116700 -29.258500 -31.288400
N -10.071200 -30.977600 -27.749600
O -10.053300 -27.796300 -28.590100
26
Fragment
H -9.022700 -32.747200 -26.151900
H -8.915800 -34.309600 -26.221100
H -8.759100 -33.573500 -24.846000
C -8.583800 -33.519700 -25.788300
C -7.101600 -33.408200 -26.017000
H -7.062000 -32.507700 -27.840600
H -6.996900 -34.070900 -27.937500
C -6.684100 -33.301900 -27.455700
O -6.675600 -32.223800 -25.299700
O -6.527700 -34.602800 -25.436100
H -5.726600 -33.258600 -27.508800
C -5.467600 -32.082100 -24.763100
C -5.261600 -34.660500 -25.041300
O -5.073100 -31.021800 -24.385300
O -4.676200 -35.698200 -24.946800
C -4.656700 -33.346700 -24.600600
C -3.798900 -33.434700 -23.315100
C -3.788100 -32.341600 -22.352600
N -3.715900 -31.565400 -21.526200
C -3.607000 -34.722600 -22.669100
N -3.426800 -35.687300 -22.094100
C -3.123500 -33.200900 -24.677300
C -2.533400 -31.896700 -24.915300
C -2.306300 -34.272500 -25.229000
N -1.993800 -30.914100 -25.133200
N -1.578700 -35.035700 -25.663600
52
Fragment
O -14.724500 -28.095400 -28.798900
N -14.370800 -31.172500 -27.691000
N -14.239400 -29.453200 -31.524300
C -13.720300 -27.682600 -28.304900
O -13.708400 -26.612100 -27.518500
H -13.487800 -24.855900 -25.637400
C -13.477100 -30.594000 -28.085800
H -13.450200 -27.350700 -25.023500
C -13.426500 -29.296600 -30.739100
H -12.708100 -24.396300 -26.917400
C -12.687200 -24.976700 -26.153100
C -12.628600 -27.430100 -25.513700
C -12.597600 -26.401400 -26.609900
H -12.568300 -28.308300 -25.897000
C -12.369500 -28.320600 -28.574100
C -12.290000 -29.857200 -28.490500
C -12.275700 -29.151900 -29.852800
H -11.923000 -24.765700 -25.611800
H -11.887100 -27.288300 -24.920600
O -11.353000 -26.504500 -27.361500
C -11.140900 -27.532700 -28.177700
C -11.043600 -30.479200 -28.066700
C -11.027700 -29.183000 -30.613700
N -10.116700 -29.258500 -31.288400
N -10.071200 -30.977600 -27.749600
O -10.053300 -27.796300 -28.590100
H -9.022700 -32.747200 -26.151900
H -8.915800 -34.309600 -26.221100
H -8.759100 -33.573500 -24.846000
C -8.583800 -33.519700 -25.788300
C -7.101600 -33.408200 -26.017000
H -7.062000 -32.507700 -27.840600
H -6.996900 -34.070900 -27.937500
C -6.684100 -33.301900 -27.455700
O -6.675600 -32.223800 -25.299700
O -6.527700 -34.602800 -25.436100
H -5.726600 -33.258600 -27.508800
C -5.467600 -32.082100 -24.763100
C -5.261600 -34.660500 -25.041300
O -5.073100 -31.021800 -24.385300
O -4.676200 -35.698200 -24.946800
C -4.656700 -33.346700 -24.600600
C -3.798900 -33.434700 -23.315100
C -3.788100 -32.341600 -22.352600
N -3.715900 -31.565400 -21.526200
C -3.607000 -34.722600 -22.669100
N -3.426800 -35.687300 -22.094100
C -3.123500 -33.200900 -24.677300
C -2.533400 -31.896700 -24.915300
C -2.306300 -34.272500 -25.229000
N -1.993800 -30.914100 -25.133200
N -1.578700 -35.035700 -25.663600
