18
Fragment
N -19.125500 -29.985400 -23.171100
N -19.122900 -25.002300 -26.729800
H -19.116300 -26.579400 -25.535700
N -19.115300 -23.758100 -26.367100
N -19.110200 -25.700700 -25.590000
N -19.107700 -29.467000 -24.362500
N -19.107700 -28.116000 -24.298900
N -19.105100 -28.942400 -22.304600
N -19.105100 -23.625400 -25.012300
N -19.100000 -24.267400 -22.204900
C -19.098800 -27.814100 -23.016400
H -19.097000 -28.999000 -21.426700
C -19.089900 -26.458500 -22.480000
C -19.087300 -24.877300 -24.556800
N -19.081000 -24.933700 -21.073700
H -19.078300 -24.520300 -20.297000
C -19.070800 -25.226500 -23.133300
N -19.068200 -26.248100 -21.154500
18
Fragment
H -22.282800 -24.403200 -16.335100
N -22.280000 -27.358100 -17.668000
N -22.269800 -27.788100 -18.900700
N -22.257100 -23.524800 -16.285800
N -22.252000 -22.802000 -15.151100
N -22.246900 -25.990400 -17.664600
N -22.239300 -26.707000 -19.701800
C -22.238000 -25.627500 -18.928200
H -22.222600 -26.713300 -20.581700
C -22.217700 -22.686100 -17.325900
C -22.211300 -23.020100 -18.732200
N -22.211300 -21.556200 -15.496700
N -22.189700 -21.441900 -16.858300
C -22.188400 -24.262800 -19.409500
N -22.182100 -22.047200 -19.643400
N -22.177000 -24.017300 -20.724700
N -22.173200 -22.696800 -20.796900
H -22.164400 -22.273500 -21.567800
36
Fragment
N -19.125500 -29.985400 -23.171100
N -19.122900 -25.002300 -26.729800
H -19.116300 -26.579400 -25.535700
N -19.115300 -23.758100 -26.367100
N -19.110200 -25.700700 -25.590000
N -19.107700 -29.467000 -24.362500
N -19.107700 -28.116000 -24.298900
N -19.105100 -28.942400 -22.304600
N -19.105100 -23.625400 -25.012300
N -19.100000 -24.267400 -22.204900
C -19.098800 -27.814100 -23.016400
H -19.097000 -28.999000 -21.426700
C -19.089900 -26.458500 -22.480000
C -19.087300 -24.877300 -24.556800
N -19.081000 -24.933700 -21.073700
H -19.078300 -24.520300 -20.297000
C -19.070800 -25.226500 -23.133300
N -19.068200 -26.248100 -21.154500
H -22.282800 -24.403200 -16.335100
N -22.280000 -27.358100 -17.668000
N -22.269800 -27.788100 -18.900700
N -22.257100 -23.524800 -16.285800
N -22.252000 -22.802000 -15.151100
N -22.246900 -25.990400 -17.664600
N -22.239300 -26.707000 -19.701800
C -22.238000 -25.627500 -18.928200
H -22.222600 -26.713300 -20.581700
C -22.217700 -22.686100 -17.325900
C -22.211300 -23.020100 -18.732200
N -22.211300 -21.556200 -15.496700
N -22.189700 -21.441900 -16.858300
C -22.188400 -24.262800 -19.409500
N -22.182100 -22.047200 -19.643400
N -22.177000 -24.017300 -20.724700
N -22.173200 -22.696800 -20.796900
H -22.164400 -22.273500 -21.567800
