18
Fragment
N -19.125500 -29.985400 -23.171100
N -19.122900 -25.002300 -26.729800
H -19.116300 -26.579400 -25.535700
N -19.115300 -23.758100 -26.367100
N -19.110200 -25.700700 -25.590000
N -19.107700 -29.467000 -24.362500
N -19.107700 -28.116000 -24.298900
N -19.105100 -28.942400 -22.304600
N -19.105100 -23.625400 -25.012300
N -19.100000 -24.267400 -22.204900
C -19.098800 -27.814100 -23.016400
H -19.097000 -28.999000 -21.426700
C -19.089900 -26.458500 -22.480000
C -19.087300 -24.877300 -24.556800
N -19.081000 -24.933700 -21.073700
H -19.078300 -24.520300 -20.297000
C -19.070800 -25.226500 -23.133300
N -19.068200 -26.248100 -21.154500
18
Fragment
H -19.125200 -27.302500 -33.181200
C -19.114000 -23.727600 -31.132600
C -19.110200 -25.327100 -33.187100
N -19.106400 -26.566800 -33.663300
N -19.106400 -23.944100 -29.798500
N -19.105100 -21.287900 -30.842100
C -19.100000 -24.968800 -31.777300
C -19.092400 -22.350700 -31.610600
N -19.091100 -25.257000 -29.719500
H -19.089000 -25.664200 -28.939600
N -19.082200 -25.944600 -30.847200
N -19.082200 -24.474700 -34.204800
N -19.069500 -26.507300 -35.000800
N -19.042800 -25.237100 -35.317100
N -19.028800 -20.225100 -31.687900
N -19.003400 -21.952700 -32.881000
N -18.985600 -20.626100 -32.912000
H -18.963200 -22.482600 -33.582600
36
Fragment
N -19.125500 -29.985400 -23.171100
N -19.122900 -25.002300 -26.729800
H -19.116300 -26.579400 -25.535700
N -19.115300 -23.758100 -26.367100
N -19.110200 -25.700700 -25.590000
N -19.107700 -29.467000 -24.362500
N -19.107700 -28.116000 -24.298900
N -19.105100 -28.942400 -22.304600
N -19.105100 -23.625400 -25.012300
N -19.100000 -24.267400 -22.204900
C -19.098800 -27.814100 -23.016400
H -19.097000 -28.999000 -21.426700
C -19.089900 -26.458500 -22.480000
C -19.087300 -24.877300 -24.556800
N -19.081000 -24.933700 -21.073700
H -19.078300 -24.520300 -20.297000
C -19.070800 -25.226500 -23.133300
N -19.068200 -26.248100 -21.154500
H -19.125200 -27.302500 -33.181200
C -19.114000 -23.727600 -31.132600
C -19.110200 -25.327100 -33.187100
N -19.106400 -26.566800 -33.663300
N -19.106400 -23.944100 -29.798500
N -19.105100 -21.287900 -30.842100
C -19.100000 -24.968800 -31.777300
C -19.092400 -22.350700 -31.610600
N -19.091100 -25.257000 -29.719500
H -19.089000 -25.664200 -28.939600
N -19.082200 -25.944600 -30.847200
N -19.082200 -24.474700 -34.204800
N -19.069500 -26.507300 -35.000800
N -19.042800 -25.237100 -35.317100
N -19.028800 -20.225100 -31.687900
N -19.003400 -21.952700 -32.881000
N -18.985600 -20.626100 -32.912000
H -18.963200 -22.482600 -33.582600
