38
Fragment
H -11.169000 -18.016700 -31.455000
H -10.965800 -16.490200 -31.434000
N -10.631900 -17.324400 -31.460900
C -9.392400 -17.529400 -30.966700
O -9.185800 -18.855800 -30.773100
N -8.985500 -14.146000 -31.265600
C -8.748100 -15.238900 -31.019100
H -8.623800 -17.316700 -27.922400
H -8.536600 -21.235000 -30.464000
H -8.503600 -16.441600 -25.761500
C -8.441000 -16.594000 -30.724500
C -7.961800 -16.654500 -27.676800
C -7.939500 -19.274500 -30.298200
C -7.891500 -16.107100 -26.405400
C -7.826100 -20.672900 -30.206100
C -7.117900 -16.901800 -30.047000
C -7.061100 -16.240800 -28.663000
C -6.937100 -15.158200 -26.097600
C -6.934500 -18.409100 -29.959300
H -6.882400 -14.798400 -25.151400
C -6.674600 -21.222400 -29.742100
H -6.586800 -22.197600 -29.685500
H -6.404000 -16.493100 -30.537700
C -6.127200 -15.259300 -28.360800
C -6.065100 -14.719600 -27.078700
C -5.706300 -18.976700 -29.477200
C -5.589200 -20.398900 -29.356500
H -5.489300 -14.912200 -29.050100
H -5.453800 -14.030300 -26.855600
H -4.610100 -17.248600 -29.207900
C -4.600000 -18.185900 -29.100800
C -4.389800 -20.947200 -28.834900
H -4.316600 -21.925400 -28.740800
C -3.470700 -18.756600 -28.574400
C -3.364300 -20.146100 -28.444000
H -2.578400 -17.054100 -28.238000
H -2.574300 -20.515500 -28.004400
O -2.399000 -18.024900 -28.151500
38
Fragment
H -19.812000 -18.016700 -31.455000
H -19.608800 -16.490200 -31.434000
N -19.274900 -17.324400 -31.460900
C -18.035400 -17.529400 -30.966700
O -17.828800 -18.855800 -30.773100
N -17.628500 -14.146000 -31.265600
C -17.391100 -15.238900 -31.019100
H -17.266800 -17.316700 -27.922400
H -17.179600 -21.235000 -30.464000
H -17.146600 -16.441600 -25.761500
C -17.084000 -16.594000 -30.724500
C -16.604800 -16.654500 -27.676800
C -16.582500 -19.274500 -30.298200
C -16.534500 -16.107100 -26.405400
C -16.469100 -20.672900 -30.206100
C -15.760900 -16.901800 -30.047000
C -15.704100 -16.240800 -28.663000
C -15.580100 -15.158200 -26.097600
C -15.577500 -18.409100 -29.959300
H -15.525400 -14.798400 -25.151400
C -15.317600 -21.222400 -29.742100
H -15.229800 -22.197600 -29.685500
H -15.047000 -16.493100 -30.537700
C -14.770200 -15.259300 -28.360800
C -14.708100 -14.719600 -27.078700
C -14.349300 -18.976700 -29.477200
C -14.232200 -20.398900 -29.356500
H -14.132300 -14.912200 -29.050100
H -14.096800 -14.030300 -26.855600
H -13.253100 -17.248600 -29.207900
C -13.243000 -18.185900 -29.100800
C -13.032800 -20.947200 -28.834900
H -12.959600 -21.925400 -28.740800
C -12.113700 -18.756600 -28.574400
C -12.007300 -20.146100 -28.444000
H -11.221400 -17.054100 -28.238000
H -11.217300 -20.515500 -28.004400
O -11.042000 -18.024900 -28.151500
76
Fragment
H -11.169000 -18.016700 -31.455000
H -10.965800 -16.490200 -31.434000
N -10.631900 -17.324400 -31.460900
C -9.392400 -17.529400 -30.966700
O -9.185800 -18.855800 -30.773100
N -8.985500 -14.146000 -31.265600
C -8.748100 -15.238900 -31.019100
H -8.623800 -17.316700 -27.922400
H -8.536600 -21.235000 -30.464000
H -8.503600 -16.441600 -25.761500
C -8.441000 -16.594000 -30.724500
C -7.961800 -16.654500 -27.676800
C -7.939500 -19.274500 -30.298200
C -7.891500 -16.107100 -26.405400
C -7.826100 -20.672900 -30.206100
C -7.117900 -16.901800 -30.047000
C -7.061100 -16.240800 -28.663000
C -6.937100 -15.158200 -26.097600
C -6.934500 -18.409100 -29.959300
H -6.882400 -14.798400 -25.151400
C -6.674600 -21.222400 -29.742100
H -6.586800 -22.197600 -29.685500
H -6.404000 -16.493100 -30.537700
C -6.127200 -15.259300 -28.360800
C -6.065100 -14.719600 -27.078700
C -5.706300 -18.976700 -29.477200
C -5.589200 -20.398900 -29.356500
H -5.489300 -14.912200 -29.050100
H -5.453800 -14.030300 -26.855600
H -4.610100 -17.248600 -29.207900
C -4.600000 -18.185900 -29.100800
C -4.389800 -20.947200 -28.834900
H -4.316600 -21.925400 -28.740800
C -3.470700 -18.756600 -28.574400
C -3.364300 -20.146100 -28.444000
H -2.578400 -17.054100 -28.238000
H -2.574300 -20.515500 -28.004400
O -2.399000 -18.024900 -28.151500
H -19.812000 -18.016700 -31.455000
H -19.608800 -16.490200 -31.434000
N -19.274900 -17.324400 -31.460900
C -18.035400 -17.529400 -30.966700
O -17.828800 -18.855800 -30.773100
N -17.628500 -14.146000 -31.265600
C -17.391100 -15.238900 -31.019100
H -17.266800 -17.316700 -27.922400
H -17.179600 -21.235000 -30.464000
H -17.146600 -16.441600 -25.761500
C -17.084000 -16.594000 -30.724500
C -16.604800 -16.654500 -27.676800
C -16.582500 -19.274500 -30.298200
C -16.534500 -16.107100 -26.405400
C -16.469100 -20.672900 -30.206100
C -15.760900 -16.901800 -30.047000
C -15.704100 -16.240800 -28.663000
C -15.580100 -15.158200 -26.097600
C -15.577500 -18.409100 -29.959300
H -15.525400 -14.798400 -25.151400
C -15.317600 -21.222400 -29.742100
H -15.229800 -22.197600 -29.685500
H -15.047000 -16.493100 -30.537700
C -14.770200 -15.259300 -28.360800
C -14.708100 -14.719600 -27.078700
C -14.349300 -18.976700 -29.477200
C -14.232200 -20.398900 -29.356500
H -14.132300 -14.912200 -29.050100
H -14.096800 -14.030300 -26.855600
H -13.253100 -17.248600 -29.207900
C -13.243000 -18.185900 -29.100800
C -13.032800 -20.947200 -28.834900
H -12.959600 -21.925400 -28.740800
C -12.113700 -18.756600 -28.574400
C -12.007300 -20.146100 -28.444000
H -11.221400 -17.054100 -28.238000
H -11.217300 -20.515500 -28.004400
O -11.042000 -18.024900 -28.151500
