38
Fragment
H -11.169000 -18.016700 -31.455000
H -10.965800 -16.490200 -31.434000
N -10.631900 -17.324400 -31.460900
C -9.392400 -17.529400 -30.966700
O -9.185800 -18.855800 -30.773100
N -8.985500 -14.146000 -31.265600
C -8.748100 -15.238900 -31.019100
H -8.623800 -17.316700 -27.922400
H -8.536600 -21.235000 -30.464000
H -8.503600 -16.441600 -25.761500
C -8.441000 -16.594000 -30.724500
C -7.961800 -16.654500 -27.676800
C -7.939500 -19.274500 -30.298200
C -7.891500 -16.107100 -26.405400
C -7.826100 -20.672900 -30.206100
C -7.117900 -16.901800 -30.047000
C -7.061100 -16.240800 -28.663000
C -6.937100 -15.158200 -26.097600
C -6.934500 -18.409100 -29.959300
H -6.882400 -14.798400 -25.151400
C -6.674600 -21.222400 -29.742100
H -6.586800 -22.197600 -29.685500
H -6.404000 -16.493100 -30.537700
C -6.127200 -15.259300 -28.360800
C -6.065100 -14.719600 -27.078700
C -5.706300 -18.976700 -29.477200
C -5.589200 -20.398900 -29.356500
H -5.489300 -14.912200 -29.050100
H -5.453800 -14.030300 -26.855600
H -4.610100 -17.248600 -29.207900
C -4.600000 -18.185900 -29.100800
C -4.389800 -20.947200 -28.834900
H -4.316600 -21.925400 -28.740800
C -3.470700 -18.756600 -28.574400
C -3.364300 -20.146100 -28.444000
H -2.578400 -17.054100 -28.238000
H -2.574300 -20.515500 -28.004400
O -2.399000 -18.024900 -28.151500
38
Fragment
O -19.273600 -20.867100 -34.968900
H -19.098400 -18.376500 -35.116000
H -19.094200 -21.837900 -34.882400
C -18.308300 -18.745900 -34.676500
C -18.201900 -20.135400 -34.546000
H -17.356000 -16.966600 -34.379600
C -17.282800 -17.944800 -34.285500
C -17.072700 -20.706100 -34.019600
H -17.062600 -21.643400 -33.912500
H -16.218800 -24.861700 -36.264800
H -16.183300 -23.979800 -34.070300
C -16.083400 -18.493100 -33.764000
C -15.966400 -19.915300 -33.643200
C -15.607600 -24.172400 -36.041800
C -15.545500 -23.632700 -34.759600
H -15.268600 -22.398900 -32.582800
H -15.085900 -16.694400 -33.434900
C -14.998000 -17.669600 -33.378300
H -14.790200 -24.093600 -37.969000
C -14.738200 -20.482900 -33.161200
C -14.735500 -23.733800 -37.022900
C -14.611500 -22.651200 -34.457400
C -14.554700 -21.990200 -33.073400
C -13.846500 -18.219100 -32.914400
C -13.781100 -22.784900 -36.715000
C -13.733100 -19.617500 -32.822200
C -13.710800 -22.237500 -35.443600
C -13.231600 -22.298000 -32.395900
H -13.169000 -22.450400 -37.358900
H -13.136100 -17.657000 -32.656400
H -13.048800 -21.575300 -35.198000
C -12.924500 -23.653100 -32.101400
N -12.687100 -24.746000 -31.854800
O -12.486900 -20.036200 -32.347300
C -12.280300 -21.362600 -32.153800
N -11.040700 -21.567600 -31.659500
H -10.706800 -22.401800 -31.686400
H -10.503700 -20.875300 -31.665400
76
Fragment
H -11.169000 -18.016700 -31.455000
H -10.965800 -16.490200 -31.434000
N -10.631900 -17.324400 -31.460900
C -9.392400 -17.529400 -30.966700
O -9.185800 -18.855800 -30.773100
N -8.985500 -14.146000 -31.265600
C -8.748100 -15.238900 -31.019100
H -8.623800 -17.316700 -27.922400
H -8.536600 -21.235000 -30.464000
H -8.503600 -16.441600 -25.761500
C -8.441000 -16.594000 -30.724500
C -7.961800 -16.654500 -27.676800
C -7.939500 -19.274500 -30.298200
C -7.891500 -16.107100 -26.405400
C -7.826100 -20.672900 -30.206100
C -7.117900 -16.901800 -30.047000
C -7.061100 -16.240800 -28.663000
C -6.937100 -15.158200 -26.097600
C -6.934500 -18.409100 -29.959300
H -6.882400 -14.798400 -25.151400
C -6.674600 -21.222400 -29.742100
H -6.586800 -22.197600 -29.685500
H -6.404000 -16.493100 -30.537700
C -6.127200 -15.259300 -28.360800
C -6.065100 -14.719600 -27.078700
C -5.706300 -18.976700 -29.477200
C -5.589200 -20.398900 -29.356500
H -5.489300 -14.912200 -29.050100
H -5.453800 -14.030300 -26.855600
H -4.610100 -17.248600 -29.207900
C -4.600000 -18.185900 -29.100800
C -4.389800 -20.947200 -28.834900
H -4.316600 -21.925400 -28.740800
C -3.470700 -18.756600 -28.574400
C -3.364300 -20.146100 -28.444000
H -2.578400 -17.054100 -28.238000
H -2.574300 -20.515500 -28.004400
O -2.399000 -18.024900 -28.151500
O -19.273600 -20.867100 -34.968900
H -19.098400 -18.376500 -35.116000
H -19.094200 -21.837900 -34.882400
C -18.308300 -18.745900 -34.676500
C -18.201900 -20.135400 -34.546000
H -17.356000 -16.966600 -34.379600
C -17.282800 -17.944800 -34.285500
C -17.072700 -20.706100 -34.019600
H -17.062600 -21.643400 -33.912500
H -16.218800 -24.861700 -36.264800
H -16.183300 -23.979800 -34.070300
C -16.083400 -18.493100 -33.764000
C -15.966400 -19.915300 -33.643200
C -15.607600 -24.172400 -36.041800
C -15.545500 -23.632700 -34.759600
H -15.268600 -22.398900 -32.582800
H -15.085900 -16.694400 -33.434900
C -14.998000 -17.669600 -33.378300
H -14.790200 -24.093600 -37.969000
C -14.738200 -20.482900 -33.161200
C -14.735500 -23.733800 -37.022900
C -14.611500 -22.651200 -34.457400
C -14.554700 -21.990200 -33.073400
C -13.846500 -18.219100 -32.914400
C -13.781100 -22.784900 -36.715000
C -13.733100 -19.617500 -32.822200
C -13.710800 -22.237500 -35.443600
C -13.231600 -22.298000 -32.395900
H -13.169000 -22.450400 -37.358900
H -13.136100 -17.657000 -32.656400
H -13.048800 -21.575300 -35.198000
C -12.924500 -23.653100 -32.101400
N -12.687100 -24.746000 -31.854800
O -12.486900 -20.036200 -32.347300
C -12.280300 -21.362600 -32.153800
N -11.040700 -21.567600 -31.659500
H -10.706800 -22.401800 -31.686400
H -10.503700 -20.875300 -31.665400
