45
Fragment
H -27.799500 -24.710800 -23.424500
C -26.893200 -24.677600 -23.306400
H -26.863800 -22.821500 -22.478200
H -26.551100 -26.558400 -24.023200
C -26.303700 -23.555500 -22.758300
C -26.111900 -25.759200 -23.673800
C -24.928800 -23.488900 -22.599700
C -24.742100 -25.717100 -23.495300
H -24.497300 -22.668400 -22.210400
H -24.208000 -26.459200 -23.683200
C -24.158300 -24.576900 -22.976300
H -23.514600 -24.362900 -27.414300
H -23.402100 -24.208100 -25.139600
N -22.898100 -25.156900 -20.647100
H -22.811800 -23.491300 -29.479900
N -22.717900 -24.514400 -22.851000
C -22.708700 -23.771900 -27.481400
N -22.560400 -23.930400 -25.095200
H -22.555900 -23.190300 -19.005900
C -22.355200 -25.202500 -19.332300
C -22.287800 -24.026100 -18.582700
C -22.284800 -23.266400 -28.700500
C -22.118000 -24.741300 -21.588700
C -22.006800 -23.464500 -26.315100
H -21.994500 -27.172500 -19.243600
C -21.984600 -26.399400 -18.734500
C -21.930200 -24.125800 -23.907300
C -21.866900 -24.051300 -17.268800
H -21.837300 -23.232100 -16.764200
C -21.566000 -26.419100 -17.410800
C -21.512000 -25.247400 -16.670800
H -21.358500 -27.242100 -17.036500
H -21.227000 -25.246700 -15.742700
C -21.155900 -22.461200 -28.774300
C -20.867400 -22.664100 -26.385400
H -20.862600 -22.125600 -29.645400
N -20.784100 -24.507300 -21.463100
N -20.647500 -23.930400 -23.799500
C -20.452400 -22.172100 -27.617700
H -20.401900 -22.417900 -25.569800
C -20.125300 -24.108600 -22.549000
H -19.645600 -21.582800 -27.667100
N -18.828500 -23.856100 -22.452400
H -18.423400 -23.505200 -23.153700
H -18.397700 -23.741800 -21.647700
45
Fragment
H -19.777500 -18.715800 -12.255300
H -19.398400 -17.790300 -11.042700
N -19.127500 -18.411000 -11.612600
H -19.081200 -23.767900 -14.844500
H -18.725600 -23.077300 -17.087700
C -18.335700 -23.129300 -15.067600
C -18.137600 -22.725000 -16.375900
C -17.883500 -18.889900 -11.584200
H -17.727700 -22.882400 -13.111400
N -17.572700 -19.860500 -12.437200
C -17.567900 -22.615500 -14.034700
C -17.127200 -21.819600 -16.651200
H -17.115300 -16.362000 -6.288700
N -17.054600 -18.292900 -10.678100
H -16.958300 -21.522000 -17.557100
H -16.769900 -18.176500 -7.881900
C -16.581000 -21.669300 -14.301300
C -16.424000 -16.291200 -6.972300
C -16.347400 -21.302900 -15.622900
C -16.280100 -20.313900 -12.438700
C -16.230900 -17.344700 -7.859200
C -15.845600 -18.811000 -10.609600
H -15.780600 -14.429200 -6.421000
N -15.758400 -21.137100 -13.279000
H -15.653600 -20.639900 -15.804400
C -15.635100 -15.160400 -7.048700
N -15.417600 -19.831700 -11.420200
C -15.245800 -17.237400 -8.822600
N -14.970700 -18.325400 -9.714300
C -14.649800 -15.061900 -8.015600
H -14.592500 -22.153500 -10.617000
C -14.461900 -16.108000 -8.906300
H -14.189100 -18.642700 -9.685700
C -14.072300 -20.354300 -11.361800
H -14.031300 -14.269100 -8.098500
C -13.865900 -21.638500 -10.885400
H -13.796600 -16.045300 -9.547300
H -13.161400 -18.708800 -12.174100
C -13.007000 -19.589300 -11.807600
C -12.588700 -22.165800 -10.879800
H -12.464100 -23.030300 -10.576400
C -11.729900 -20.117500 -11.766400
C -11.520600 -21.399800 -11.311100
H -11.023200 -19.589100 -12.082300
H -10.609300 -21.772500 -11.262400
90
Fragment
H -27.799500 -24.710800 -23.424500
C -26.893200 -24.677600 -23.306400
H -26.863800 -22.821500 -22.478200
H -26.551100 -26.558400 -24.023200
C -26.303700 -23.555500 -22.758300
C -26.111900 -25.759200 -23.673800
C -24.928800 -23.488900 -22.599700
C -24.742100 -25.717100 -23.495300
H -24.497300 -22.668400 -22.210400
H -24.208000 -26.459200 -23.683200
C -24.158300 -24.576900 -22.976300
H -23.514600 -24.362900 -27.414300
H -23.402100 -24.208100 -25.139600
N -22.898100 -25.156900 -20.647100
H -22.811800 -23.491300 -29.479900
N -22.717900 -24.514400 -22.851000
C -22.708700 -23.771900 -27.481400
N -22.560400 -23.930400 -25.095200
H -22.555900 -23.190300 -19.005900
C -22.355200 -25.202500 -19.332300
C -22.287800 -24.026100 -18.582700
C -22.284800 -23.266400 -28.700500
C -22.118000 -24.741300 -21.588700
C -22.006800 -23.464500 -26.315100
H -21.994500 -27.172500 -19.243600
C -21.984600 -26.399400 -18.734500
C -21.930200 -24.125800 -23.907300
C -21.866900 -24.051300 -17.268800
H -21.837300 -23.232100 -16.764200
C -21.566000 -26.419100 -17.410800
C -21.512000 -25.247400 -16.670800
H -21.358500 -27.242100 -17.036500
H -21.227000 -25.246700 -15.742700
C -21.155900 -22.461200 -28.774300
C -20.867400 -22.664100 -26.385400
H -20.862600 -22.125600 -29.645400
N -20.784100 -24.507300 -21.463100
N -20.647500 -23.930400 -23.799500
C -20.452400 -22.172100 -27.617700
H -20.401900 -22.417900 -25.569800
C -20.125300 -24.108600 -22.549000
H -19.645600 -21.582800 -27.667100
N -18.828500 -23.856100 -22.452400
H -18.423400 -23.505200 -23.153700
H -18.397700 -23.741800 -21.647700
H -19.777500 -18.715800 -12.255300
H -19.398400 -17.790300 -11.042700
N -19.127500 -18.411000 -11.612600
H -19.081200 -23.767900 -14.844500
H -18.725600 -23.077300 -17.087700
C -18.335700 -23.129300 -15.067600
C -18.137600 -22.725000 -16.375900
C -17.883500 -18.889900 -11.584200
H -17.727700 -22.882400 -13.111400
N -17.572700 -19.860500 -12.437200
C -17.567900 -22.615500 -14.034700
C -17.127200 -21.819600 -16.651200
H -17.115300 -16.362000 -6.288700
N -17.054600 -18.292900 -10.678100
H -16.958300 -21.522000 -17.557100
H -16.769900 -18.176500 -7.881900
C -16.581000 -21.669300 -14.301300
C -16.424000 -16.291200 -6.972300
C -16.347400 -21.302900 -15.622900
C -16.280100 -20.313900 -12.438700
C -16.230900 -17.344700 -7.859200
C -15.845600 -18.811000 -10.609600
H -15.780600 -14.429200 -6.421000
N -15.758400 -21.137100 -13.279000
H -15.653600 -20.639900 -15.804400
C -15.635100 -15.160400 -7.048700
N -15.417600 -19.831700 -11.420200
C -15.245800 -17.237400 -8.822600
N -14.970700 -18.325400 -9.714300
C -14.649800 -15.061900 -8.015600
H -14.592500 -22.153500 -10.617000
C -14.461900 -16.108000 -8.906300
H -14.189100 -18.642700 -9.685700
C -14.072300 -20.354300 -11.361800
H -14.031300 -14.269100 -8.098500
C -13.865900 -21.638500 -10.885400
H -13.796600 -16.045300 -9.547300
H -13.161400 -18.708800 -12.174100
C -13.007000 -19.589300 -11.807600
C -12.588700 -22.165800 -10.879800
H -12.464100 -23.030300 -10.576400
C -11.729900 -20.117500 -11.766400
C -11.520600 -21.399800 -11.311100
H -11.023200 -19.589100 -12.082300
H -10.609300 -21.772500 -11.262400
