45
Fragment
H -27.799500 -24.710800 -23.424500
C -26.893200 -24.677600 -23.306400
H -26.863800 -22.821500 -22.478200
H -26.551100 -26.558400 -24.023200
C -26.303700 -23.555500 -22.758300
C -26.111900 -25.759200 -23.673800
C -24.928800 -23.488900 -22.599700
C -24.742100 -25.717100 -23.495300
H -24.497300 -22.668400 -22.210400
H -24.208000 -26.459200 -23.683200
C -24.158300 -24.576900 -22.976300
H -23.514600 -24.362900 -27.414300
H -23.402100 -24.208100 -25.139600
N -22.898100 -25.156900 -20.647100
H -22.811800 -23.491300 -29.479900
N -22.717900 -24.514400 -22.851000
C -22.708700 -23.771900 -27.481400
N -22.560400 -23.930400 -25.095200
H -22.555900 -23.190300 -19.005900
C -22.355200 -25.202500 -19.332300
C -22.287800 -24.026100 -18.582700
C -22.284800 -23.266400 -28.700500
C -22.118000 -24.741300 -21.588700
C -22.006800 -23.464500 -26.315100
H -21.994500 -27.172500 -19.243600
C -21.984600 -26.399400 -18.734500
C -21.930200 -24.125800 -23.907300
C -21.866900 -24.051300 -17.268800
H -21.837300 -23.232100 -16.764200
C -21.566000 -26.419100 -17.410800
C -21.512000 -25.247400 -16.670800
H -21.358500 -27.242100 -17.036500
H -21.227000 -25.246700 -15.742700
C -21.155900 -22.461200 -28.774300
C -20.867400 -22.664100 -26.385400
H -20.862600 -22.125600 -29.645400
N -20.784100 -24.507300 -21.463100
N -20.647500 -23.930400 -23.799500
C -20.452400 -22.172100 -27.617700
H -20.401900 -22.417900 -25.569800
C -20.125300 -24.108600 -22.549000
H -19.645600 -21.582800 -27.667100
N -18.828500 -23.856100 -22.452400
H -18.423400 -23.505200 -23.153700
H -18.397700 -23.741800 -21.647700
45
Fragment
H -31.202100 -30.471000 -11.304500
H -30.788200 -28.287700 -10.484600
C -30.290800 -30.098400 -11.255800
C -30.081600 -28.816000 -10.800500
H -29.347400 -31.728800 -11.990600
C -29.222700 -30.864400 -11.687100
C -28.804500 -28.287900 -10.759300
H -28.650000 -27.407400 -10.392800
H -28.014800 -24.743900 -13.019600
C -27.945500 -30.337100 -11.681500
H -27.780200 -22.967700 -14.468400
C -27.739200 -29.052800 -11.205100
H -27.622300 -27.341300 -12.881200
C -27.349600 -24.806500 -13.660700
H -27.218900 -30.852000 -11.949900
C -27.161600 -23.760400 -14.551300
N -26.840800 -27.024000 -12.852600
C -26.565700 -25.935900 -13.744300
N -26.393900 -28.530200 -11.146700
C -26.176300 -23.858900 -15.518200
H -26.157800 -29.338500 -6.762600
N -26.053000 -29.835700 -9.287900
H -26.030800 -23.127700 -16.145900
C -25.965800 -27.509500 -11.957300
C -25.580600 -26.043300 -14.707800
C -25.531400 -29.012400 -10.128200
C -25.464000 -30.001500 -6.944000
C -25.387400 -24.989700 -15.594600
C -25.230400 -30.367900 -8.265700
H -25.041600 -26.875000 -14.685100
H -24.853100 -30.220500 -5.009900
N -24.756900 -26.991400 -11.888900
H -24.696200 -25.060500 -16.278300
C -24.684300 -30.518200 -5.915700
C -24.243500 -31.314100 -8.532300
N -24.238800 -28.559100 -10.129700
H -24.083800 -31.581000 -9.455500
C -23.927900 -27.588500 -10.982700
C -23.673800 -31.423500 -6.191000
C -23.475700 -31.827800 -7.499300
H -23.085800 -31.775800 -5.479200
H -22.730300 -32.466500 -7.722400
N -22.684000 -27.109600 -10.954300
H -22.413000 -26.488800 -11.524200
H -22.033900 -27.414400 -10.311600
90
Fragment
H -27.799500 -24.710800 -23.424500
C -26.893200 -24.677600 -23.306400
H -26.863800 -22.821500 -22.478200
H -26.551100 -26.558400 -24.023200
C -26.303700 -23.555500 -22.758300
C -26.111900 -25.759200 -23.673800
C -24.928800 -23.488900 -22.599700
C -24.742100 -25.717100 -23.495300
H -24.497300 -22.668400 -22.210400
H -24.208000 -26.459200 -23.683200
C -24.158300 -24.576900 -22.976300
H -23.514600 -24.362900 -27.414300
H -23.402100 -24.208100 -25.139600
N -22.898100 -25.156900 -20.647100
H -22.811800 -23.491300 -29.479900
N -22.717900 -24.514400 -22.851000
C -22.708700 -23.771900 -27.481400
N -22.560400 -23.930400 -25.095200
H -22.555900 -23.190300 -19.005900
C -22.355200 -25.202500 -19.332300
C -22.287800 -24.026100 -18.582700
C -22.284800 -23.266400 -28.700500
C -22.118000 -24.741300 -21.588700
C -22.006800 -23.464500 -26.315100
H -21.994500 -27.172500 -19.243600
C -21.984600 -26.399400 -18.734500
C -21.930200 -24.125800 -23.907300
C -21.866900 -24.051300 -17.268800
H -21.837300 -23.232100 -16.764200
C -21.566000 -26.419100 -17.410800
C -21.512000 -25.247400 -16.670800
H -21.358500 -27.242100 -17.036500
H -21.227000 -25.246700 -15.742700
C -21.155900 -22.461200 -28.774300
C -20.867400 -22.664100 -26.385400
H -20.862600 -22.125600 -29.645400
N -20.784100 -24.507300 -21.463100
N -20.647500 -23.930400 -23.799500
C -20.452400 -22.172100 -27.617700
H -20.401900 -22.417900 -25.569800
C -20.125300 -24.108600 -22.549000
H -19.645600 -21.582800 -27.667100
N -18.828500 -23.856100 -22.452400
H -18.423400 -23.505200 -23.153700
H -18.397700 -23.741800 -21.647700
H -31.202100 -30.471000 -11.304500
H -30.788200 -28.287700 -10.484600
C -30.290800 -30.098400 -11.255800
C -30.081600 -28.816000 -10.800500
H -29.347400 -31.728800 -11.990600
C -29.222700 -30.864400 -11.687100
C -28.804500 -28.287900 -10.759300
H -28.650000 -27.407400 -10.392800
H -28.014800 -24.743900 -13.019600
C -27.945500 -30.337100 -11.681500
H -27.780200 -22.967700 -14.468400
C -27.739200 -29.052800 -11.205100
H -27.622300 -27.341300 -12.881200
C -27.349600 -24.806500 -13.660700
H -27.218900 -30.852000 -11.949900
C -27.161600 -23.760400 -14.551300
N -26.840800 -27.024000 -12.852600
C -26.565700 -25.935900 -13.744300
N -26.393900 -28.530200 -11.146700
C -26.176300 -23.858900 -15.518200
H -26.157800 -29.338500 -6.762600
N -26.053000 -29.835700 -9.287900
H -26.030800 -23.127700 -16.145900
C -25.965800 -27.509500 -11.957300
C -25.580600 -26.043300 -14.707800
C -25.531400 -29.012400 -10.128200
C -25.464000 -30.001500 -6.944000
C -25.387400 -24.989700 -15.594600
C -25.230400 -30.367900 -8.265700
H -25.041600 -26.875000 -14.685100
H -24.853100 -30.220500 -5.009900
N -24.756900 -26.991400 -11.888900
H -24.696200 -25.060500 -16.278300
C -24.684300 -30.518200 -5.915700
C -24.243500 -31.314100 -8.532300
N -24.238800 -28.559100 -10.129700
H -24.083800 -31.581000 -9.455500
C -23.927900 -27.588500 -10.982700
C -23.673800 -31.423500 -6.191000
C -23.475700 -31.827800 -7.499300
H -23.085800 -31.775800 -5.479200
H -22.730300 -32.466500 -7.722400
N -22.684000 -27.109600 -10.954300
H -22.413000 -26.488800 -11.524200
H -22.033900 -27.414400 -10.311600
