45
Fragment
H -27.799500 -24.710800 -23.424500
C -26.893200 -24.677600 -23.306400
H -26.863800 -22.821500 -22.478200
H -26.551100 -26.558400 -24.023200
C -26.303700 -23.555500 -22.758300
C -26.111900 -25.759200 -23.673800
C -24.928800 -23.488900 -22.599700
C -24.742100 -25.717100 -23.495300
H -24.497300 -22.668400 -22.210400
H -24.208000 -26.459200 -23.683200
C -24.158300 -24.576900 -22.976300
H -23.514600 -24.362900 -27.414300
H -23.402100 -24.208100 -25.139600
N -22.898100 -25.156900 -20.647100
H -22.811800 -23.491300 -29.479900
N -22.717900 -24.514400 -22.851000
C -22.708700 -23.771900 -27.481400
N -22.560400 -23.930400 -25.095200
H -22.555900 -23.190300 -19.005900
C -22.355200 -25.202500 -19.332300
C -22.287800 -24.026100 -18.582700
C -22.284800 -23.266400 -28.700500
C -22.118000 -24.741300 -21.588700
C -22.006800 -23.464500 -26.315100
H -21.994500 -27.172500 -19.243600
C -21.984600 -26.399400 -18.734500
C -21.930200 -24.125800 -23.907300
C -21.866900 -24.051300 -17.268800
H -21.837300 -23.232100 -16.764200
C -21.566000 -26.419100 -17.410800
C -21.512000 -25.247400 -16.670800
H -21.358500 -27.242100 -17.036500
H -21.227000 -25.246700 -15.742700
C -21.155900 -22.461200 -28.774300
C -20.867400 -22.664100 -26.385400
H -20.862600 -22.125600 -29.645400
N -20.784100 -24.507300 -21.463100
N -20.647500 -23.930400 -23.799500
C -20.452400 -22.172100 -27.617700
H -20.401900 -22.417900 -25.569800
C -20.125300 -24.108600 -22.549000
H -19.645600 -21.582800 -27.667100
N -18.828500 -23.856100 -22.452400
H -18.423400 -23.505200 -23.153700
H -18.397700 -23.741800 -21.647700
45
Fragment
H -30.969700 -13.021700 -18.826800
H -30.555700 -15.205100 -18.006900
C -30.058400 -13.394400 -18.778100
C -29.849100 -14.676700 -18.322800
H -29.114900 -11.763900 -19.512900
C -28.990200 -12.628400 -19.209400
C -28.572000 -15.204900 -18.281600
H -28.417500 -16.085400 -17.915100
H -27.782300 -18.748900 -20.541900
C -27.713000 -13.155700 -19.203900
H -27.547700 -20.525100 -21.990700
C -27.506700 -14.439900 -18.727400
H -27.389900 -16.151500 -20.403500
C -27.117100 -18.686200 -21.183000
H -26.986500 -12.640700 -19.472200
C -26.929200 -19.732300 -22.073600
N -26.608300 -16.468800 -20.374900
C -26.333200 -17.556800 -21.266600
N -26.161400 -14.962500 -18.669000
C -25.943800 -19.633800 -23.040500
H -25.925400 -14.154300 -14.284900
N -25.820500 -13.657100 -16.810300
H -25.798300 -20.365000 -23.668200
C -25.733400 -15.983200 -19.479600
C -25.348100 -17.449500 -22.230100
C -25.298900 -14.480300 -17.650500
C -25.231500 -13.491300 -14.466300
C -25.154900 -18.503000 -23.117000
C -24.998000 -13.124900 -15.788000
H -24.809100 -16.617700 -22.207400
H -24.620700 -13.272200 -12.532200
N -24.524400 -16.501300 -19.411200
H -24.463700 -18.432200 -23.800600
C -24.451800 -12.974600 -13.438000
C -24.011100 -12.178700 -16.054600
N -24.006300 -14.933700 -17.652000
H -23.851300 -11.911800 -16.977900
C -23.695400 -15.904300 -18.505000
C -23.441400 -12.069200 -13.713300
C -23.243200 -11.664900 -15.021600
H -22.853400 -11.716900 -13.001600
H -22.497800 -11.026300 -15.244700
N -22.451500 -16.383200 -18.476600
H -22.180600 -17.003900 -19.046500
H -21.801400 -16.078400 -17.833900
90
Fragment
H -27.799500 -24.710800 -23.424500
C -26.893200 -24.677600 -23.306400
H -26.863800 -22.821500 -22.478200
H -26.551100 -26.558400 -24.023200
C -26.303700 -23.555500 -22.758300
C -26.111900 -25.759200 -23.673800
C -24.928800 -23.488900 -22.599700
C -24.742100 -25.717100 -23.495300
H -24.497300 -22.668400 -22.210400
H -24.208000 -26.459200 -23.683200
C -24.158300 -24.576900 -22.976300
H -23.514600 -24.362900 -27.414300
H -23.402100 -24.208100 -25.139600
N -22.898100 -25.156900 -20.647100
H -22.811800 -23.491300 -29.479900
N -22.717900 -24.514400 -22.851000
C -22.708700 -23.771900 -27.481400
N -22.560400 -23.930400 -25.095200
H -22.555900 -23.190300 -19.005900
C -22.355200 -25.202500 -19.332300
C -22.287800 -24.026100 -18.582700
C -22.284800 -23.266400 -28.700500
C -22.118000 -24.741300 -21.588700
C -22.006800 -23.464500 -26.315100
H -21.994500 -27.172500 -19.243600
C -21.984600 -26.399400 -18.734500
C -21.930200 -24.125800 -23.907300
C -21.866900 -24.051300 -17.268800
H -21.837300 -23.232100 -16.764200
C -21.566000 -26.419100 -17.410800
C -21.512000 -25.247400 -16.670800
H -21.358500 -27.242100 -17.036500
H -21.227000 -25.246700 -15.742700
C -21.155900 -22.461200 -28.774300
C -20.867400 -22.664100 -26.385400
H -20.862600 -22.125600 -29.645400
N -20.784100 -24.507300 -21.463100
N -20.647500 -23.930400 -23.799500
C -20.452400 -22.172100 -27.617700
H -20.401900 -22.417900 -25.569800
C -20.125300 -24.108600 -22.549000
H -19.645600 -21.582800 -27.667100
N -18.828500 -23.856100 -22.452400
H -18.423400 -23.505200 -23.153700
H -18.397700 -23.741800 -21.647700
H -30.969700 -13.021700 -18.826800
H -30.555700 -15.205100 -18.006900
C -30.058400 -13.394400 -18.778100
C -29.849100 -14.676700 -18.322800
H -29.114900 -11.763900 -19.512900
C -28.990200 -12.628400 -19.209400
C -28.572000 -15.204900 -18.281600
H -28.417500 -16.085400 -17.915100
H -27.782300 -18.748900 -20.541900
C -27.713000 -13.155700 -19.203900
H -27.547700 -20.525100 -21.990700
C -27.506700 -14.439900 -18.727400
H -27.389900 -16.151500 -20.403500
C -27.117100 -18.686200 -21.183000
H -26.986500 -12.640700 -19.472200
C -26.929200 -19.732300 -22.073600
N -26.608300 -16.468800 -20.374900
C -26.333200 -17.556800 -21.266600
N -26.161400 -14.962500 -18.669000
C -25.943800 -19.633800 -23.040500
H -25.925400 -14.154300 -14.284900
N -25.820500 -13.657100 -16.810300
H -25.798300 -20.365000 -23.668200
C -25.733400 -15.983200 -19.479600
C -25.348100 -17.449500 -22.230100
C -25.298900 -14.480300 -17.650500
C -25.231500 -13.491300 -14.466300
C -25.154900 -18.503000 -23.117000
C -24.998000 -13.124900 -15.788000
H -24.809100 -16.617700 -22.207400
H -24.620700 -13.272200 -12.532200
N -24.524400 -16.501300 -19.411200
H -24.463700 -18.432200 -23.800600
C -24.451800 -12.974600 -13.438000
C -24.011100 -12.178700 -16.054600
N -24.006300 -14.933700 -17.652000
H -23.851300 -11.911800 -16.977900
C -23.695400 -15.904300 -18.505000
C -23.441400 -12.069200 -13.713300
C -23.243200 -11.664900 -15.021600
H -22.853400 -11.716900 -13.001600
H -22.497800 -11.026300 -15.244700
N -22.451500 -16.383200 -18.476600
H -22.180600 -17.003900 -19.046500
H -21.801400 -16.078400 -17.833900
