45
Fragment
H -27.799500 -24.710800 -23.424500
C -26.893200 -24.677600 -23.306400
H -26.863800 -22.821500 -22.478200
H -26.551100 -26.558400 -24.023200
C -26.303700 -23.555500 -22.758300
C -26.111900 -25.759200 -23.673800
C -24.928800 -23.488900 -22.599700
C -24.742100 -25.717100 -23.495300
H -24.497300 -22.668400 -22.210400
H -24.208000 -26.459200 -23.683200
C -24.158300 -24.576900 -22.976300
H -23.514600 -24.362900 -27.414300
H -23.402100 -24.208100 -25.139600
N -22.898100 -25.156900 -20.647100
H -22.811800 -23.491300 -29.479900
N -22.717900 -24.514400 -22.851000
C -22.708700 -23.771900 -27.481400
N -22.560400 -23.930400 -25.095200
H -22.555900 -23.190300 -19.005900
C -22.355200 -25.202500 -19.332300
C -22.287800 -24.026100 -18.582700
C -22.284800 -23.266400 -28.700500
C -22.118000 -24.741300 -21.588700
C -22.006800 -23.464500 -26.315100
H -21.994500 -27.172500 -19.243600
C -21.984600 -26.399400 -18.734500
C -21.930200 -24.125800 -23.907300
C -21.866900 -24.051300 -17.268800
H -21.837300 -23.232100 -16.764200
C -21.566000 -26.419100 -17.410800
C -21.512000 -25.247400 -16.670800
H -21.358500 -27.242100 -17.036500
H -21.227000 -25.246700 -15.742700
C -21.155900 -22.461200 -28.774300
C -20.867400 -22.664100 -26.385400
H -20.862600 -22.125600 -29.645400
N -20.784100 -24.507300 -21.463100
N -20.647500 -23.930400 -23.799500
C -20.452400 -22.172100 -27.617700
H -20.401900 -22.417900 -25.569800
C -20.125300 -24.108600 -22.549000
H -19.645600 -21.582800 -27.667100
N -18.828500 -23.856100 -22.452400
H -18.423400 -23.505200 -23.153700
H -18.397700 -23.741800 -21.647700
45
Fragment
H -36.886000 -28.449500 -23.486200
H -36.860300 -28.686100 -21.980200
N -36.455200 -28.335200 -22.681400
H -35.638100 -30.608500 -17.466800
C -35.158400 -28.082700 -22.584800
H -34.881800 -29.773400 -19.564000
C -34.831300 -30.019200 -17.516100
N -34.636200 -28.260900 -21.334300
N -34.499500 -27.684000 -23.670800
H -34.421100 -30.065700 -15.488400
C -34.416300 -29.527200 -18.748500
C -34.127800 -29.730100 -16.359500
H -34.056700 -26.944600 -29.391200
H -33.925200 -24.949200 -28.097300
C -33.771600 -26.943900 -28.463100
C -33.717700 -25.772200 -27.723000
H -33.446300 -28.959200 -28.369600
C -33.416700 -28.140000 -27.865000
C -33.353500 -28.065500 -21.226600
C -33.299100 -25.791900 -26.399400
H -33.289200 -25.018800 -25.890300
C -33.276900 -28.726800 -18.818700
C -33.165700 -27.450000 -23.545100
C -32.998900 -28.924900 -16.433400
C -32.995800 -28.165200 -26.551200
C -32.928500 -26.988800 -25.801500
H -32.727800 -29.001000 -26.128000
N -32.723200 -28.260900 -20.038700
C -32.574900 -28.419400 -17.652500
N -32.565800 -27.676900 -22.282900
H -32.471900 -28.700000 -15.653900
N -32.385600 -27.034400 -24.486800
H -31.881500 -27.983200 -19.994300
H -31.769000 -27.828400 -17.719600
C -31.125300 -27.614400 -22.157600
H -31.075600 -25.732100 -21.450600
H -30.786400 -29.522900 -22.923500
C -30.541600 -26.474200 -21.638500
C -30.354900 -28.702400 -22.534100
C -29.171800 -26.432100 -21.460100
C -28.980000 -28.635800 -22.375600
H -28.732600 -25.632900 -21.110600
H -28.419800 -29.369800 -22.655700
C -28.390500 -27.513700 -21.827500
H -27.484100 -27.480500 -21.709400
90
Fragment
H -27.799500 -24.710800 -23.424500
C -26.893200 -24.677600 -23.306400
H -26.863800 -22.821500 -22.478200
H -26.551100 -26.558400 -24.023200
C -26.303700 -23.555500 -22.758300
C -26.111900 -25.759200 -23.673800
C -24.928800 -23.488900 -22.599700
C -24.742100 -25.717100 -23.495300
H -24.497300 -22.668400 -22.210400
H -24.208000 -26.459200 -23.683200
C -24.158300 -24.576900 -22.976300
H -23.514600 -24.362900 -27.414300
H -23.402100 -24.208100 -25.139600
N -22.898100 -25.156900 -20.647100
H -22.811800 -23.491300 -29.479900
N -22.717900 -24.514400 -22.851000
C -22.708700 -23.771900 -27.481400
N -22.560400 -23.930400 -25.095200
H -22.555900 -23.190300 -19.005900
C -22.355200 -25.202500 -19.332300
C -22.287800 -24.026100 -18.582700
C -22.284800 -23.266400 -28.700500
C -22.118000 -24.741300 -21.588700
C -22.006800 -23.464500 -26.315100
H -21.994500 -27.172500 -19.243600
C -21.984600 -26.399400 -18.734500
C -21.930200 -24.125800 -23.907300
C -21.866900 -24.051300 -17.268800
H -21.837300 -23.232100 -16.764200
C -21.566000 -26.419100 -17.410800
C -21.512000 -25.247400 -16.670800
H -21.358500 -27.242100 -17.036500
H -21.227000 -25.246700 -15.742700
C -21.155900 -22.461200 -28.774300
C -20.867400 -22.664100 -26.385400
H -20.862600 -22.125600 -29.645400
N -20.784100 -24.507300 -21.463100
N -20.647500 -23.930400 -23.799500
C -20.452400 -22.172100 -27.617700
H -20.401900 -22.417900 -25.569800
C -20.125300 -24.108600 -22.549000
H -19.645600 -21.582800 -27.667100
N -18.828500 -23.856100 -22.452400
H -18.423400 -23.505200 -23.153700
H -18.397700 -23.741800 -21.647700
H -36.886000 -28.449500 -23.486200
H -36.860300 -28.686100 -21.980200
N -36.455200 -28.335200 -22.681400
H -35.638100 -30.608500 -17.466800
C -35.158400 -28.082700 -22.584800
H -34.881800 -29.773400 -19.564000
C -34.831300 -30.019200 -17.516100
N -34.636200 -28.260900 -21.334300
N -34.499500 -27.684000 -23.670800
H -34.421100 -30.065700 -15.488400
C -34.416300 -29.527200 -18.748500
C -34.127800 -29.730100 -16.359500
H -34.056700 -26.944600 -29.391200
H -33.925200 -24.949200 -28.097300
C -33.771600 -26.943900 -28.463100
C -33.717700 -25.772200 -27.723000
H -33.446300 -28.959200 -28.369600
C -33.416700 -28.140000 -27.865000
C -33.353500 -28.065500 -21.226600
C -33.299100 -25.791900 -26.399400
H -33.289200 -25.018800 -25.890300
C -33.276900 -28.726800 -18.818700
C -33.165700 -27.450000 -23.545100
C -32.998900 -28.924900 -16.433400
C -32.995800 -28.165200 -26.551200
C -32.928500 -26.988800 -25.801500
H -32.727800 -29.001000 -26.128000
N -32.723200 -28.260900 -20.038700
C -32.574900 -28.419400 -17.652500
N -32.565800 -27.676900 -22.282900
H -32.471900 -28.700000 -15.653900
N -32.385600 -27.034400 -24.486800
H -31.881500 -27.983200 -19.994300
H -31.769000 -27.828400 -17.719600
C -31.125300 -27.614400 -22.157600
H -31.075600 -25.732100 -21.450600
H -30.786400 -29.522900 -22.923500
C -30.541600 -26.474200 -21.638500
C -30.354900 -28.702400 -22.534100
C -29.171800 -26.432100 -21.460100
C -28.980000 -28.635800 -22.375600
H -28.732600 -25.632900 -21.110600
H -28.419800 -29.369800 -22.655700
C -28.390500 -27.513700 -21.827500
H -27.484100 -27.480500 -21.709400
