45
Fragment
H -27.799500 -24.710800 -23.424500
C -26.893200 -24.677600 -23.306400
H -26.863800 -22.821500 -22.478200
H -26.551100 -26.558400 -24.023200
C -26.303700 -23.555500 -22.758300
C -26.111900 -25.759200 -23.673800
C -24.928800 -23.488900 -22.599700
C -24.742100 -25.717100 -23.495300
H -24.497300 -22.668400 -22.210400
H -24.208000 -26.459200 -23.683200
C -24.158300 -24.576900 -22.976300
H -23.514600 -24.362900 -27.414300
H -23.402100 -24.208100 -25.139600
N -22.898100 -25.156900 -20.647100
H -22.811800 -23.491300 -29.479900
N -22.717900 -24.514400 -22.851000
C -22.708700 -23.771900 -27.481400
N -22.560400 -23.930400 -25.095200
H -22.555900 -23.190300 -19.005900
C -22.355200 -25.202500 -19.332300
C -22.287800 -24.026100 -18.582700
C -22.284800 -23.266400 -28.700500
C -22.118000 -24.741300 -21.588700
C -22.006800 -23.464500 -26.315100
H -21.994500 -27.172500 -19.243600
C -21.984600 -26.399400 -18.734500
C -21.930200 -24.125800 -23.907300
C -21.866900 -24.051300 -17.268800
H -21.837300 -23.232100 -16.764200
C -21.566000 -26.419100 -17.410800
C -21.512000 -25.247400 -16.670800
H -21.358500 -27.242100 -17.036500
H -21.227000 -25.246700 -15.742700
C -21.155900 -22.461200 -28.774300
C -20.867400 -22.664100 -26.385400
H -20.862600 -22.125600 -29.645400
N -20.784100 -24.507300 -21.463100
N -20.647500 -23.930400 -23.799500
C -20.452400 -22.172100 -27.617700
H -20.401900 -22.417900 -25.569800
C -20.125300 -24.108600 -22.549000
H -19.645600 -21.582800 -27.667100
N -18.828500 -23.856100 -22.452400
H -18.423400 -23.505200 -23.153700
H -18.397700 -23.741800 -21.647700
45
Fragment
H -22.716400 -28.449500 -23.486200
H -22.690700 -28.686100 -21.980200
N -22.285600 -28.335200 -22.681400
H -21.468500 -30.608500 -17.466800
C -20.988800 -28.082700 -22.584800
H -20.712200 -29.773400 -19.564000
C -20.661700 -30.019200 -17.516100
N -20.466600 -28.260900 -21.334300
N -20.329900 -27.684000 -23.670800
H -20.251500 -30.065700 -15.488400
C -20.246700 -29.527200 -18.748500
C -19.958200 -29.730100 -16.359500
H -19.887100 -26.944600 -29.391200
H -19.755600 -24.949200 -28.097300
C -19.602000 -26.943900 -28.463100
C -19.548100 -25.772200 -27.723000
H -19.276700 -28.959200 -28.369600
C -19.247100 -28.140000 -27.865000
C -19.183900 -28.065500 -21.226600
C -19.129500 -25.791900 -26.399400
H -19.119600 -25.018800 -25.890300
C -19.107300 -28.726800 -18.818700
C -18.996100 -27.450000 -23.545100
C -18.829300 -28.924900 -16.433400
C -18.826200 -28.165200 -26.551200
C -18.758900 -26.988800 -25.801500
H -18.558200 -29.001000 -26.128000
N -18.553600 -28.260900 -20.038700
C -18.405300 -28.419400 -17.652500
N -18.396200 -27.676900 -22.282900
H -18.302300 -28.700000 -15.653900
N -18.216000 -27.034400 -24.486800
H -17.711900 -27.983200 -19.994300
H -17.599400 -27.828400 -17.719600
C -16.955700 -27.614400 -22.157600
H -16.906000 -25.732100 -21.450600
H -16.616800 -29.522900 -22.923500
C -16.372000 -26.474200 -21.638500
C -16.185300 -28.702400 -22.534100
C -15.002200 -26.432100 -21.460100
C -14.810400 -28.635800 -22.375600
H -14.563000 -25.632900 -21.110600
H -14.250200 -29.369800 -22.655700
C -14.220900 -27.513700 -21.827500
H -13.314500 -27.480500 -21.709400
90
Fragment
H -27.799500 -24.710800 -23.424500
C -26.893200 -24.677600 -23.306400
H -26.863800 -22.821500 -22.478200
H -26.551100 -26.558400 -24.023200
C -26.303700 -23.555500 -22.758300
C -26.111900 -25.759200 -23.673800
C -24.928800 -23.488900 -22.599700
C -24.742100 -25.717100 -23.495300
H -24.497300 -22.668400 -22.210400
H -24.208000 -26.459200 -23.683200
C -24.158300 -24.576900 -22.976300
H -23.514600 -24.362900 -27.414300
H -23.402100 -24.208100 -25.139600
N -22.898100 -25.156900 -20.647100
H -22.811800 -23.491300 -29.479900
N -22.717900 -24.514400 -22.851000
C -22.708700 -23.771900 -27.481400
N -22.560400 -23.930400 -25.095200
H -22.555900 -23.190300 -19.005900
C -22.355200 -25.202500 -19.332300
C -22.287800 -24.026100 -18.582700
C -22.284800 -23.266400 -28.700500
C -22.118000 -24.741300 -21.588700
C -22.006800 -23.464500 -26.315100
H -21.994500 -27.172500 -19.243600
C -21.984600 -26.399400 -18.734500
C -21.930200 -24.125800 -23.907300
C -21.866900 -24.051300 -17.268800
H -21.837300 -23.232100 -16.764200
C -21.566000 -26.419100 -17.410800
C -21.512000 -25.247400 -16.670800
H -21.358500 -27.242100 -17.036500
H -21.227000 -25.246700 -15.742700
C -21.155900 -22.461200 -28.774300
C -20.867400 -22.664100 -26.385400
H -20.862600 -22.125600 -29.645400
N -20.784100 -24.507300 -21.463100
N -20.647500 -23.930400 -23.799500
C -20.452400 -22.172100 -27.617700
H -20.401900 -22.417900 -25.569800
C -20.125300 -24.108600 -22.549000
H -19.645600 -21.582800 -27.667100
N -18.828500 -23.856100 -22.452400
H -18.423400 -23.505200 -23.153700
H -18.397700 -23.741800 -21.647700
H -22.716400 -28.449500 -23.486200
H -22.690700 -28.686100 -21.980200
N -22.285600 -28.335200 -22.681400
H -21.468500 -30.608500 -17.466800
C -20.988800 -28.082700 -22.584800
H -20.712200 -29.773400 -19.564000
C -20.661700 -30.019200 -17.516100
N -20.466600 -28.260900 -21.334300
N -20.329900 -27.684000 -23.670800
H -20.251500 -30.065700 -15.488400
C -20.246700 -29.527200 -18.748500
C -19.958200 -29.730100 -16.359500
H -19.887100 -26.944600 -29.391200
H -19.755600 -24.949200 -28.097300
C -19.602000 -26.943900 -28.463100
C -19.548100 -25.772200 -27.723000
H -19.276700 -28.959200 -28.369600
C -19.247100 -28.140000 -27.865000
C -19.183900 -28.065500 -21.226600
C -19.129500 -25.791900 -26.399400
H -19.119600 -25.018800 -25.890300
C -19.107300 -28.726800 -18.818700
C -18.996100 -27.450000 -23.545100
C -18.829300 -28.924900 -16.433400
C -18.826200 -28.165200 -26.551200
C -18.758900 -26.988800 -25.801500
H -18.558200 -29.001000 -26.128000
N -18.553600 -28.260900 -20.038700
C -18.405300 -28.419400 -17.652500
N -18.396200 -27.676900 -22.282900
H -18.302300 -28.700000 -15.653900
N -18.216000 -27.034400 -24.486800
H -17.711900 -27.983200 -19.994300
H -17.599400 -27.828400 -17.719600
C -16.955700 -27.614400 -22.157600
H -16.906000 -25.732100 -21.450600
H -16.616800 -29.522900 -22.923500
C -16.372000 -26.474200 -21.638500
C -16.185300 -28.702400 -22.534100
C -15.002200 -26.432100 -21.460100
C -14.810400 -28.635800 -22.375600
H -14.563000 -25.632900 -21.110600
H -14.250200 -29.369800 -22.655700
C -14.220900 -27.513700 -21.827500
H -13.314500 -27.480500 -21.709400
