45
Fragment
H -27.799500 -24.710800 -23.424500
C -26.893200 -24.677600 -23.306400
H -26.863800 -22.821500 -22.478200
H -26.551100 -26.558400 -24.023200
C -26.303700 -23.555500 -22.758300
C -26.111900 -25.759200 -23.673800
C -24.928800 -23.488900 -22.599700
C -24.742100 -25.717100 -23.495300
H -24.497300 -22.668400 -22.210400
H -24.208000 -26.459200 -23.683200
C -24.158300 -24.576900 -22.976300
H -23.514600 -24.362900 -27.414300
H -23.402100 -24.208100 -25.139600
N -22.898100 -25.156900 -20.647100
H -22.811800 -23.491300 -29.479900
N -22.717900 -24.514400 -22.851000
C -22.708700 -23.771900 -27.481400
N -22.560400 -23.930400 -25.095200
H -22.555900 -23.190300 -19.005900
C -22.355200 -25.202500 -19.332300
C -22.287800 -24.026100 -18.582700
C -22.284800 -23.266400 -28.700500
C -22.118000 -24.741300 -21.588700
C -22.006800 -23.464500 -26.315100
H -21.994500 -27.172500 -19.243600
C -21.984600 -26.399400 -18.734500
C -21.930200 -24.125800 -23.907300
C -21.866900 -24.051300 -17.268800
H -21.837300 -23.232100 -16.764200
C -21.566000 -26.419100 -17.410800
C -21.512000 -25.247400 -16.670800
H -21.358500 -27.242100 -17.036500
H -21.227000 -25.246700 -15.742700
C -21.155900 -22.461200 -28.774300
C -20.867400 -22.664100 -26.385400
H -20.862600 -22.125600 -29.645400
N -20.784100 -24.507300 -21.463100
N -20.647500 -23.930400 -23.799500
C -20.452400 -22.172100 -27.617700
H -20.401900 -22.417900 -25.569800
C -20.125300 -24.108600 -22.549000
H -19.645600 -21.582800 -27.667100
N -18.828500 -23.856100 -22.452400
H -18.423400 -23.505200 -23.153700
H -18.397700 -23.741800 -21.647700
45
Fragment
H -30.737200 -30.471000 -26.349100
H -30.323300 -28.287700 -25.529200
C -29.825900 -30.098400 -26.300400
C -29.616700 -28.816000 -25.845100
H -28.882500 -31.728800 -27.035200
C -28.757800 -30.864400 -26.731700
C -28.339600 -28.287900 -25.803900
H -28.185100 -27.407400 -25.437400
H -27.549900 -24.743900 -28.064200
C -27.480600 -30.337100 -26.726200
H -27.315200 -22.967700 -29.513000
C -27.274300 -29.052800 -26.249700
H -27.157400 -27.341300 -27.925800
C -26.884700 -24.806500 -28.705300
H -26.754000 -30.852000 -26.994600
C -26.696700 -23.760400 -29.595900
N -26.375900 -27.024000 -27.897200
C -26.100800 -25.935900 -28.788900
N -25.929000 -28.530200 -26.191300
C -25.711400 -23.858900 -30.562800
H -25.692900 -29.338500 -21.807200
N -25.588100 -29.835700 -24.332600
H -25.565900 -23.127700 -31.190500
C -25.500900 -27.509500 -27.001900
C -25.115700 -26.043300 -29.752400
C -25.066500 -29.012400 -25.172800
C -24.999100 -30.001500 -21.988600
C -24.922500 -24.989700 -30.639300
C -24.765500 -30.367900 -23.310300
H -24.576700 -26.875000 -29.729700
H -24.388200 -30.220500 -20.054500
N -24.292000 -26.991400 -26.933500
H -24.231300 -25.060500 -31.322900
C -24.219400 -30.518200 -20.960300
C -23.778600 -31.314100 -23.576900
N -23.773900 -28.559100 -25.174300
H -23.618900 -31.581000 -24.500200
C -23.463000 -27.588500 -26.027300
C -23.208900 -31.423500 -21.235600
C -23.010800 -31.827800 -22.543900
H -22.620900 -31.775800 -20.523900
H -22.265400 -32.466500 -22.767000
N -22.219100 -27.109600 -25.998900
H -21.948100 -26.488800 -26.568800
H -21.569000 -27.414400 -25.356200
90
Fragment
H -27.799500 -24.710800 -23.424500
C -26.893200 -24.677600 -23.306400
H -26.863800 -22.821500 -22.478200
H -26.551100 -26.558400 -24.023200
C -26.303700 -23.555500 -22.758300
C -26.111900 -25.759200 -23.673800
C -24.928800 -23.488900 -22.599700
C -24.742100 -25.717100 -23.495300
H -24.497300 -22.668400 -22.210400
H -24.208000 -26.459200 -23.683200
C -24.158300 -24.576900 -22.976300
H -23.514600 -24.362900 -27.414300
H -23.402100 -24.208100 -25.139600
N -22.898100 -25.156900 -20.647100
H -22.811800 -23.491300 -29.479900
N -22.717900 -24.514400 -22.851000
C -22.708700 -23.771900 -27.481400
N -22.560400 -23.930400 -25.095200
H -22.555900 -23.190300 -19.005900
C -22.355200 -25.202500 -19.332300
C -22.287800 -24.026100 -18.582700
C -22.284800 -23.266400 -28.700500
C -22.118000 -24.741300 -21.588700
C -22.006800 -23.464500 -26.315100
H -21.994500 -27.172500 -19.243600
C -21.984600 -26.399400 -18.734500
C -21.930200 -24.125800 -23.907300
C -21.866900 -24.051300 -17.268800
H -21.837300 -23.232100 -16.764200
C -21.566000 -26.419100 -17.410800
C -21.512000 -25.247400 -16.670800
H -21.358500 -27.242100 -17.036500
H -21.227000 -25.246700 -15.742700
C -21.155900 -22.461200 -28.774300
C -20.867400 -22.664100 -26.385400
H -20.862600 -22.125600 -29.645400
N -20.784100 -24.507300 -21.463100
N -20.647500 -23.930400 -23.799500
C -20.452400 -22.172100 -27.617700
H -20.401900 -22.417900 -25.569800
C -20.125300 -24.108600 -22.549000
H -19.645600 -21.582800 -27.667100
N -18.828500 -23.856100 -22.452400
H -18.423400 -23.505200 -23.153700
H -18.397700 -23.741800 -21.647700
H -30.737200 -30.471000 -26.349100
H -30.323300 -28.287700 -25.529200
C -29.825900 -30.098400 -26.300400
C -29.616700 -28.816000 -25.845100
H -28.882500 -31.728800 -27.035200
C -28.757800 -30.864400 -26.731700
C -28.339600 -28.287900 -25.803900
H -28.185100 -27.407400 -25.437400
H -27.549900 -24.743900 -28.064200
C -27.480600 -30.337100 -26.726200
H -27.315200 -22.967700 -29.513000
C -27.274300 -29.052800 -26.249700
H -27.157400 -27.341300 -27.925800
C -26.884700 -24.806500 -28.705300
H -26.754000 -30.852000 -26.994600
C -26.696700 -23.760400 -29.595900
N -26.375900 -27.024000 -27.897200
C -26.100800 -25.935900 -28.788900
N -25.929000 -28.530200 -26.191300
C -25.711400 -23.858900 -30.562800
H -25.692900 -29.338500 -21.807200
N -25.588100 -29.835700 -24.332600
H -25.565900 -23.127700 -31.190500
C -25.500900 -27.509500 -27.001900
C -25.115700 -26.043300 -29.752400
C -25.066500 -29.012400 -25.172800
C -24.999100 -30.001500 -21.988600
C -24.922500 -24.989700 -30.639300
C -24.765500 -30.367900 -23.310300
H -24.576700 -26.875000 -29.729700
H -24.388200 -30.220500 -20.054500
N -24.292000 -26.991400 -26.933500
H -24.231300 -25.060500 -31.322900
C -24.219400 -30.518200 -20.960300
C -23.778600 -31.314100 -23.576900
N -23.773900 -28.559100 -25.174300
H -23.618900 -31.581000 -24.500200
C -23.463000 -27.588500 -26.027300
C -23.208900 -31.423500 -21.235600
C -23.010800 -31.827800 -22.543900
H -22.620900 -31.775800 -20.523900
H -22.265400 -32.466500 -22.767000
N -22.219100 -27.109600 -25.998900
H -21.948100 -26.488800 -26.568800
H -21.569000 -27.414400 -25.356200
