45
Fragment
H -27.799500 -24.710800 -23.424500
C -26.893200 -24.677600 -23.306400
H -26.863800 -22.821500 -22.478200
H -26.551100 -26.558400 -24.023200
C -26.303700 -23.555500 -22.758300
C -26.111900 -25.759200 -23.673800
C -24.928800 -23.488900 -22.599700
C -24.742100 -25.717100 -23.495300
H -24.497300 -22.668400 -22.210400
H -24.208000 -26.459200 -23.683200
C -24.158300 -24.576900 -22.976300
H -23.514600 -24.362900 -27.414300
H -23.402100 -24.208100 -25.139600
N -22.898100 -25.156900 -20.647100
H -22.811800 -23.491300 -29.479900
N -22.717900 -24.514400 -22.851000
C -22.708700 -23.771900 -27.481400
N -22.560400 -23.930400 -25.095200
H -22.555900 -23.190300 -19.005900
C -22.355200 -25.202500 -19.332300
C -22.287800 -24.026100 -18.582700
C -22.284800 -23.266400 -28.700500
C -22.118000 -24.741300 -21.588700
C -22.006800 -23.464500 -26.315100
H -21.994500 -27.172500 -19.243600
C -21.984600 -26.399400 -18.734500
C -21.930200 -24.125800 -23.907300
C -21.866900 -24.051300 -17.268800
H -21.837300 -23.232100 -16.764200
C -21.566000 -26.419100 -17.410800
C -21.512000 -25.247400 -16.670800
H -21.358500 -27.242100 -17.036500
H -21.227000 -25.246700 -15.742700
C -21.155900 -22.461200 -28.774300
C -20.867400 -22.664100 -26.385400
H -20.862600 -22.125600 -29.645400
N -20.784100 -24.507300 -21.463100
N -20.647500 -23.930400 -23.799500
C -20.452400 -22.172100 -27.617700
H -20.401900 -22.417900 -25.569800
C -20.125300 -24.108600 -22.549000
H -19.645600 -21.582800 -27.667100
N -18.828500 -23.856100 -22.452400
H -18.423400 -23.505200 -23.153700
H -18.397700 -23.741800 -21.647700
45
Fragment
H -28.264400 -24.710800 -8.379900
C -27.358100 -24.677600 -8.261800
H -27.328700 -22.821500 -7.433500
H -27.016000 -26.558400 -8.978600
C -26.768600 -23.555500 -7.713700
C -26.576800 -25.759200 -8.629100
C -25.393700 -23.488900 -7.555100
C -25.207000 -25.717100 -8.450700
H -24.962200 -22.668400 -7.165800
H -24.673000 -26.459200 -8.638600
C -24.623300 -24.576900 -7.931700
H -23.979500 -24.362900 -12.369700
H -23.867100 -24.208100 -10.094900
N -23.363000 -25.156900 -5.602500
H -23.276700 -23.491300 -14.435300
N -23.182800 -24.514400 -7.806400
C -23.173600 -23.771900 -12.436800
N -23.025300 -23.930400 -10.050600
H -23.020800 -23.190300 -3.961200
C -22.820100 -25.202500 -4.287700
C -22.752700 -24.026100 -3.538000
C -22.749700 -23.266400 -13.655800
C -22.582900 -24.741300 -6.544100
C -22.471700 -23.464500 -11.270500
H -22.459400 -27.172500 -4.199000
C -22.449500 -26.399400 -3.689800
C -22.395100 -24.125800 -8.862600
C -22.331800 -24.051300 -2.224200
H -22.302200 -23.232100 -1.719600
C -22.030900 -26.419100 -2.366200
C -21.977000 -25.247400 -1.626200
H -21.823400 -27.242100 -1.991900
H -21.691900 -25.246700 -0.698100
C -21.620800 -22.461200 -13.729700
C -21.332300 -22.664100 -11.340800
H -21.327500 -22.125600 -14.600800
N -21.249000 -24.507300 -6.418500
N -21.112400 -23.930400 -8.754900
C -20.917300 -22.172100 -12.573100
H -20.866800 -22.417900 -10.525200
C -20.590200 -24.108600 -7.504400
H -20.110500 -21.582800 -12.622400
N -19.293400 -23.856100 -7.407800
H -18.888300 -23.505200 -8.109000
H -18.862600 -23.741800 -6.603100
90
Fragment
H -27.799500 -24.710800 -23.424500
C -26.893200 -24.677600 -23.306400
H -26.863800 -22.821500 -22.478200
H -26.551100 -26.558400 -24.023200
C -26.303700 -23.555500 -22.758300
C -26.111900 -25.759200 -23.673800
C -24.928800 -23.488900 -22.599700
C -24.742100 -25.717100 -23.495300
H -24.497300 -22.668400 -22.210400
H -24.208000 -26.459200 -23.683200
C -24.158300 -24.576900 -22.976300
H -23.514600 -24.362900 -27.414300
H -23.402100 -24.208100 -25.139600
N -22.898100 -25.156900 -20.647100
H -22.811800 -23.491300 -29.479900
N -22.717900 -24.514400 -22.851000
C -22.708700 -23.771900 -27.481400
N -22.560400 -23.930400 -25.095200
H -22.555900 -23.190300 -19.005900
C -22.355200 -25.202500 -19.332300
C -22.287800 -24.026100 -18.582700
C -22.284800 -23.266400 -28.700500
C -22.118000 -24.741300 -21.588700
C -22.006800 -23.464500 -26.315100
H -21.994500 -27.172500 -19.243600
C -21.984600 -26.399400 -18.734500
C -21.930200 -24.125800 -23.907300
C -21.866900 -24.051300 -17.268800
H -21.837300 -23.232100 -16.764200
C -21.566000 -26.419100 -17.410800
C -21.512000 -25.247400 -16.670800
H -21.358500 -27.242100 -17.036500
H -21.227000 -25.246700 -15.742700
C -21.155900 -22.461200 -28.774300
C -20.867400 -22.664100 -26.385400
H -20.862600 -22.125600 -29.645400
N -20.784100 -24.507300 -21.463100
N -20.647500 -23.930400 -23.799500
C -20.452400 -22.172100 -27.617700
H -20.401900 -22.417900 -25.569800
C -20.125300 -24.108600 -22.549000
H -19.645600 -21.582800 -27.667100
N -18.828500 -23.856100 -22.452400
H -18.423400 -23.505200 -23.153700
H -18.397700 -23.741800 -21.647700
H -28.264400 -24.710800 -8.379900
C -27.358100 -24.677600 -8.261800
H -27.328700 -22.821500 -7.433500
H -27.016000 -26.558400 -8.978600
C -26.768600 -23.555500 -7.713700
C -26.576800 -25.759200 -8.629100
C -25.393700 -23.488900 -7.555100
C -25.207000 -25.717100 -8.450700
H -24.962200 -22.668400 -7.165800
H -24.673000 -26.459200 -8.638600
C -24.623300 -24.576900 -7.931700
H -23.979500 -24.362900 -12.369700
H -23.867100 -24.208100 -10.094900
N -23.363000 -25.156900 -5.602500
H -23.276700 -23.491300 -14.435300
N -23.182800 -24.514400 -7.806400
C -23.173600 -23.771900 -12.436800
N -23.025300 -23.930400 -10.050600
H -23.020800 -23.190300 -3.961200
C -22.820100 -25.202500 -4.287700
C -22.752700 -24.026100 -3.538000
C -22.749700 -23.266400 -13.655800
C -22.582900 -24.741300 -6.544100
C -22.471700 -23.464500 -11.270500
H -22.459400 -27.172500 -4.199000
C -22.449500 -26.399400 -3.689800
C -22.395100 -24.125800 -8.862600
C -22.331800 -24.051300 -2.224200
H -22.302200 -23.232100 -1.719600
C -22.030900 -26.419100 -2.366200
C -21.977000 -25.247400 -1.626200
H -21.823400 -27.242100 -1.991900
H -21.691900 -25.246700 -0.698100
C -21.620800 -22.461200 -13.729700
C -21.332300 -22.664100 -11.340800
H -21.327500 -22.125600 -14.600800
N -21.249000 -24.507300 -6.418500
N -21.112400 -23.930400 -8.754900
C -20.917300 -22.172100 -12.573100
H -20.866800 -22.417900 -10.525200
C -20.590200 -24.108600 -7.504400
H -20.110500 -21.582800 -12.622400
N -19.293400 -23.856100 -7.407800
H -18.888300 -23.505200 -8.109000
H -18.862600 -23.741800 -6.603100
