45
Fragment
H -27.799500 -24.710800 -23.424500
C -26.893200 -24.677600 -23.306400
H -26.863800 -22.821500 -22.478200
H -26.551100 -26.558400 -24.023200
C -26.303700 -23.555500 -22.758300
C -26.111900 -25.759200 -23.673800
C -24.928800 -23.488900 -22.599700
C -24.742100 -25.717100 -23.495300
H -24.497300 -22.668400 -22.210400
H -24.208000 -26.459200 -23.683200
C -24.158300 -24.576900 -22.976300
H -23.514600 -24.362900 -27.414300
H -23.402100 -24.208100 -25.139600
N -22.898100 -25.156900 -20.647100
H -22.811800 -23.491300 -29.479900
N -22.717900 -24.514400 -22.851000
C -22.708700 -23.771900 -27.481400
N -22.560400 -23.930400 -25.095200
H -22.555900 -23.190300 -19.005900
C -22.355200 -25.202500 -19.332300
C -22.287800 -24.026100 -18.582700
C -22.284800 -23.266400 -28.700500
C -22.118000 -24.741300 -21.588700
C -22.006800 -23.464500 -26.315100
H -21.994500 -27.172500 -19.243600
C -21.984600 -26.399400 -18.734500
C -21.930200 -24.125800 -23.907300
C -21.866900 -24.051300 -17.268800
H -21.837300 -23.232100 -16.764200
C -21.566000 -26.419100 -17.410800
C -21.512000 -25.247400 -16.670800
H -21.358500 -27.242100 -17.036500
H -21.227000 -25.246700 -15.742700
C -21.155900 -22.461200 -28.774300
C -20.867400 -22.664100 -26.385400
H -20.862600 -22.125600 -29.645400
N -20.784100 -24.507300 -21.463100
N -20.647500 -23.930400 -23.799500
C -20.452400 -22.172100 -27.617700
H -20.401900 -22.417900 -25.569800
C -20.125300 -24.108600 -22.549000
H -19.645600 -21.582800 -27.667100
N -18.828500 -23.856100 -22.452400
H -18.423400 -23.505200 -23.153700
H -18.397700 -23.741800 -21.647700
6
Fragment
H -26.229500 -27.659600 -19.025400
C -25.374400 -27.212400 -19.197400
O -25.370700 -26.694800 -20.505800
H -25.254900 -26.480100 -18.556000
H -24.641600 -27.856200 -19.099100
H -24.628700 -26.334000 -20.662300
51
Fragment
H -27.799500 -24.710800 -23.424500
C -26.893200 -24.677600 -23.306400
H -26.863800 -22.821500 -22.478200
H -26.551100 -26.558400 -24.023200
C -26.303700 -23.555500 -22.758300
C -26.111900 -25.759200 -23.673800
C -24.928800 -23.488900 -22.599700
C -24.742100 -25.717100 -23.495300
H -24.497300 -22.668400 -22.210400
H -24.208000 -26.459200 -23.683200
C -24.158300 -24.576900 -22.976300
H -23.514600 -24.362900 -27.414300
H -23.402100 -24.208100 -25.139600
N -22.898100 -25.156900 -20.647100
H -22.811800 -23.491300 -29.479900
N -22.717900 -24.514400 -22.851000
C -22.708700 -23.771900 -27.481400
N -22.560400 -23.930400 -25.095200
H -22.555900 -23.190300 -19.005900
C -22.355200 -25.202500 -19.332300
C -22.287800 -24.026100 -18.582700
C -22.284800 -23.266400 -28.700500
C -22.118000 -24.741300 -21.588700
C -22.006800 -23.464500 -26.315100
H -21.994500 -27.172500 -19.243600
C -21.984600 -26.399400 -18.734500
C -21.930200 -24.125800 -23.907300
C -21.866900 -24.051300 -17.268800
H -21.837300 -23.232100 -16.764200
C -21.566000 -26.419100 -17.410800
C -21.512000 -25.247400 -16.670800
H -21.358500 -27.242100 -17.036500
H -21.227000 -25.246700 -15.742700
C -21.155900 -22.461200 -28.774300
C -20.867400 -22.664100 -26.385400
H -20.862600 -22.125600 -29.645400
N -20.784100 -24.507300 -21.463100
N -20.647500 -23.930400 -23.799500
C -20.452400 -22.172100 -27.617700
H -20.401900 -22.417900 -25.569800
C -20.125300 -24.108600 -22.549000
H -19.645600 -21.582800 -27.667100
N -18.828500 -23.856100 -22.452400
H -18.423400 -23.505200 -23.153700
H -18.397700 -23.741800 -21.647700
H -26.229500 -27.659600 -19.025400
C -25.374400 -27.212400 -19.197400
O -25.370700 -26.694800 -20.505800
H -25.254900 -26.480100 -18.556000
H -24.641600 -27.856200 -19.099100
H -24.628700 -26.334000 -20.662300
