45
Fragment
H -27.799500 -24.710800 -23.424500
C -26.893200 -24.677600 -23.306400
H -26.863800 -22.821500 -22.478200
H -26.551100 -26.558400 -24.023200
C -26.303700 -23.555500 -22.758300
C -26.111900 -25.759200 -23.673800
C -24.928800 -23.488900 -22.599700
C -24.742100 -25.717100 -23.495300
H -24.497300 -22.668400 -22.210400
H -24.208000 -26.459200 -23.683200
C -24.158300 -24.576900 -22.976300
H -23.514600 -24.362900 -27.414300
H -23.402100 -24.208100 -25.139600
N -22.898100 -25.156900 -20.647100
H -22.811800 -23.491300 -29.479900
N -22.717900 -24.514400 -22.851000
C -22.708700 -23.771900 -27.481400
N -22.560400 -23.930400 -25.095200
H -22.555900 -23.190300 -19.005900
C -22.355200 -25.202500 -19.332300
C -22.287800 -24.026100 -18.582700
C -22.284800 -23.266400 -28.700500
C -22.118000 -24.741300 -21.588700
C -22.006800 -23.464500 -26.315100
H -21.994500 -27.172500 -19.243600
C -21.984600 -26.399400 -18.734500
C -21.930200 -24.125800 -23.907300
C -21.866900 -24.051300 -17.268800
H -21.837300 -23.232100 -16.764200
C -21.566000 -26.419100 -17.410800
C -21.512000 -25.247400 -16.670800
H -21.358500 -27.242100 -17.036500
H -21.227000 -25.246700 -15.742700
C -21.155900 -22.461200 -28.774300
C -20.867400 -22.664100 -26.385400
H -20.862600 -22.125600 -29.645400
N -20.784100 -24.507300 -21.463100
N -20.647500 -23.930400 -23.799500
C -20.452400 -22.172100 -27.617700
H -20.401900 -22.417900 -25.569800
C -20.125300 -24.108600 -22.549000
H -19.645600 -21.582800 -27.667100
N -18.828500 -23.856100 -22.452400
H -18.423400 -23.505200 -23.153700
H -18.397700 -23.741800 -21.647700
45
Fragment
H -23.181300 -28.449500 -8.441500
H -23.155600 -28.686100 -6.935600
N -22.750500 -28.335200 -7.636800
H -21.933400 -30.608500 -2.422200
C -21.453700 -28.082700 -7.540200
H -21.177100 -29.773400 -4.519400
C -21.126600 -30.019200 -2.471500
N -20.931500 -28.260900 -6.289700
N -20.794800 -27.684000 -8.626100
H -20.716400 -30.065700 -0.443800
C -20.711600 -29.527200 -3.703800
C -20.423100 -29.730100 -1.314900
H -20.352000 -26.944600 -14.346500
H -20.220500 -24.949200 -13.052700
C -20.066900 -26.943900 -13.418400
C -20.013000 -25.772200 -12.678400
H -19.741700 -28.959200 -13.325000
C -19.712000 -28.140000 -12.820400
C -19.648800 -28.065500 -6.182000
C -19.594400 -25.791900 -11.354800
H -19.584500 -25.018800 -10.845700
C -19.572200 -28.726800 -3.774100
C -19.461000 -27.450000 -8.500500
C -19.294200 -28.924900 -1.388800
C -19.291100 -28.165200 -11.506600
C -19.223800 -26.988800 -10.756900
H -19.023100 -29.001000 -11.083400
N -19.018600 -28.260900 -4.994100
C -18.870300 -28.419400 -2.607800
N -18.861100 -27.676900 -7.238300
H -18.767200 -28.700000 -0.609300
N -18.680900 -27.034400 -9.442200
H -18.176800 -27.983200 -4.949700
H -18.064300 -27.828400 -2.674900
C -17.420600 -27.614400 -7.112900
H -17.370900 -25.732100 -6.406000
H -17.081700 -29.522900 -7.878900
C -16.836900 -26.474200 -6.593900
C -16.650200 -28.702400 -7.489500
C -15.467100 -26.432100 -6.415500
C -15.275300 -28.635800 -7.330900
H -15.027900 -25.632900 -6.066000
H -14.715100 -29.369800 -7.611100
C -14.685800 -27.513700 -6.782900
H -13.779400 -27.480500 -6.664800
90
Fragment
H -27.799500 -24.710800 -23.424500
C -26.893200 -24.677600 -23.306400
H -26.863800 -22.821500 -22.478200
H -26.551100 -26.558400 -24.023200
C -26.303700 -23.555500 -22.758300
C -26.111900 -25.759200 -23.673800
C -24.928800 -23.488900 -22.599700
C -24.742100 -25.717100 -23.495300
H -24.497300 -22.668400 -22.210400
H -24.208000 -26.459200 -23.683200
C -24.158300 -24.576900 -22.976300
H -23.514600 -24.362900 -27.414300
H -23.402100 -24.208100 -25.139600
N -22.898100 -25.156900 -20.647100
H -22.811800 -23.491300 -29.479900
N -22.717900 -24.514400 -22.851000
C -22.708700 -23.771900 -27.481400
N -22.560400 -23.930400 -25.095200
H -22.555900 -23.190300 -19.005900
C -22.355200 -25.202500 -19.332300
C -22.287800 -24.026100 -18.582700
C -22.284800 -23.266400 -28.700500
C -22.118000 -24.741300 -21.588700
C -22.006800 -23.464500 -26.315100
H -21.994500 -27.172500 -19.243600
C -21.984600 -26.399400 -18.734500
C -21.930200 -24.125800 -23.907300
C -21.866900 -24.051300 -17.268800
H -21.837300 -23.232100 -16.764200
C -21.566000 -26.419100 -17.410800
C -21.512000 -25.247400 -16.670800
H -21.358500 -27.242100 -17.036500
H -21.227000 -25.246700 -15.742700
C -21.155900 -22.461200 -28.774300
C -20.867400 -22.664100 -26.385400
H -20.862600 -22.125600 -29.645400
N -20.784100 -24.507300 -21.463100
N -20.647500 -23.930400 -23.799500
C -20.452400 -22.172100 -27.617700
H -20.401900 -22.417900 -25.569800
C -20.125300 -24.108600 -22.549000
H -19.645600 -21.582800 -27.667100
N -18.828500 -23.856100 -22.452400
H -18.423400 -23.505200 -23.153700
H -18.397700 -23.741800 -21.647700
H -23.181300 -28.449500 -8.441500
H -23.155600 -28.686100 -6.935600
N -22.750500 -28.335200 -7.636800
H -21.933400 -30.608500 -2.422200
C -21.453700 -28.082700 -7.540200
H -21.177100 -29.773400 -4.519400
C -21.126600 -30.019200 -2.471500
N -20.931500 -28.260900 -6.289700
N -20.794800 -27.684000 -8.626100
H -20.716400 -30.065700 -0.443800
C -20.711600 -29.527200 -3.703800
C -20.423100 -29.730100 -1.314900
H -20.352000 -26.944600 -14.346500
H -20.220500 -24.949200 -13.052700
C -20.066900 -26.943900 -13.418400
C -20.013000 -25.772200 -12.678400
H -19.741700 -28.959200 -13.325000
C -19.712000 -28.140000 -12.820400
C -19.648800 -28.065500 -6.182000
C -19.594400 -25.791900 -11.354800
H -19.584500 -25.018800 -10.845700
C -19.572200 -28.726800 -3.774100
C -19.461000 -27.450000 -8.500500
C -19.294200 -28.924900 -1.388800
C -19.291100 -28.165200 -11.506600
C -19.223800 -26.988800 -10.756900
H -19.023100 -29.001000 -11.083400
N -19.018600 -28.260900 -4.994100
C -18.870300 -28.419400 -2.607800
N -18.861100 -27.676900 -7.238300
H -18.767200 -28.700000 -0.609300
N -18.680900 -27.034400 -9.442200
H -18.176800 -27.983200 -4.949700
H -18.064300 -27.828400 -2.674900
C -17.420600 -27.614400 -7.112900
H -17.370900 -25.732100 -6.406000
H -17.081700 -29.522900 -7.878900
C -16.836900 -26.474200 -6.593900
C -16.650200 -28.702400 -7.489500
C -15.467100 -26.432100 -6.415500
C -15.275300 -28.635800 -7.330900
H -15.027900 -25.632900 -6.066000
H -14.715100 -29.369800 -7.611100
C -14.685800 -27.513700 -6.782900
H -13.779400 -27.480500 -6.664800
