3
Fragment
H -10.194000 -15.682900 -19.748200
H -10.038700 -17.229600 -19.591500
O -9.953000 -16.383300 -19.101700
22
Fragment
H -10.677400 -23.229400 -21.915100
O -9.953000 -18.829100 -20.252900
H -9.951000 -19.963400 -15.516500
H -9.951000 -18.848300 -17.802100
C -9.931400 -19.868600 -19.522300
H -9.930700 -21.546000 -15.542600
N -9.923300 -23.627300 -19.344400
C -9.919900 -19.730700 -18.099900
C -9.916500 -22.290600 -19.194400
N -9.915900 -24.137700 -18.084500
C -9.914500 -21.205500 -20.112600
C -9.907800 -21.397400 -21.514100
N -9.905700 -20.354200 -22.308200
C -9.899000 -20.789500 -17.256200
N -9.897600 -23.224600 -17.175500
N -9.895600 -22.049000 -17.853200
C -9.888200 -22.742600 -22.163200
N -9.870000 -20.779900 -15.915500
H -9.863200 -22.638300 -23.118000
H -9.856500 -20.466900 -23.209400
H -9.795700 -19.555700 -21.877200
H -9.110500 -23.225800 -21.874600
25
Fragment
H -10.194000 -15.682900 -19.748200
H -10.038700 -17.229600 -19.591500
O -9.953000 -16.383300 -19.101700
H -10.677400 -23.229400 -21.915100
O -9.953000 -18.829100 -20.252900
H -9.951000 -19.963400 -15.516500
H -9.951000 -18.848300 -17.802100
C -9.931400 -19.868600 -19.522300
H -9.930700 -21.546000 -15.542600
N -9.923300 -23.627300 -19.344400
C -9.919900 -19.730700 -18.099900
C -9.916500 -22.290600 -19.194400
N -9.915900 -24.137700 -18.084500
C -9.914500 -21.205500 -20.112600
C -9.907800 -21.397400 -21.514100
N -9.905700 -20.354200 -22.308200
C -9.899000 -20.789500 -17.256200
N -9.897600 -23.224600 -17.175500
N -9.895600 -22.049000 -17.853200
C -9.888200 -22.742600 -22.163200
N -9.870000 -20.779900 -15.915500
H -9.863200 -22.638300 -23.118000
H -9.856500 -20.466900 -23.209400
H -9.795700 -19.555700 -21.877200
H -9.110500 -23.225800 -21.874600
