3
Fragment
H -10.194000 -15.682900 -19.748200
H -10.038700 -17.229600 -19.591500
O -9.953000 -16.383300 -19.101700
3
Fragment
H -8.276700 -15.970700 -18.611900
O -7.303200 -15.834000 -18.594900
H -6.697000 -16.522200 -18.938500
6
Fragment
H -10.194000 -15.682900 -19.748200
H -10.038700 -17.229600 -19.591500
O -9.953000 -16.383300 -19.101700
H -8.276700 -15.970700 -18.611900
O -7.303200 -15.834000 -18.594900
H -6.697000 -16.522200 -18.938500
