36
Fragment
H -10.252400 -8.688200 -16.491900
H -9.813100 -6.614800 -15.592500
O -9.384300 -15.975600 -18.876700
C -9.331100 -8.340300 -16.565700
H -9.248100 -7.949800 -17.365300
C -9.122600 -7.301500 -15.516500
H -9.080800 -7.737400 -14.631800
H -8.445700 -10.013200 -15.913500
N -8.366000 -9.417400 -16.457300
N -8.264100 -15.789400 -19.363100
O -7.919700 -5.595500 -13.807400
H -7.872200 -14.514000 -17.989100
O -7.834800 -6.683300 -15.784900
O -7.788600 -16.422300 -20.285300
N -7.563000 -14.782000 -18.774200
C -7.375100 -5.870300 -14.830300
C -7.272000 -9.502400 -17.186100
O -6.927900 -8.727300 -18.084200
O -6.761900 -11.501300 -15.943200
C -6.417800 -10.726200 -16.841300
C -6.314800 -14.358300 -19.197100
N -6.126800 -5.446600 -15.253200
O -5.901300 -3.806300 -13.742100
O -5.855100 -13.545300 -18.242500
H -5.817600 -5.714600 -16.038200
O -5.770100 -14.633100 -20.220000
N -5.425800 -4.439200 -14.664300
N -5.323900 -10.811200 -17.570000
H -5.244100 -10.215400 -18.113900
H -4.609100 -12.491200 -19.395600
C -4.567300 -12.927100 -18.510900
H -4.441800 -12.278800 -16.662100
C -4.358800 -11.888300 -17.461700
O -4.305600 -4.253000 -15.150700
H -3.876700 -13.613800 -18.434900
H -3.437500 -11.540400 -17.535500
36
Fragment
H -7.970700 -16.597600 -10.820700
H -7.531500 -18.671000 -9.921300
O -7.102600 -9.310100 -13.205500
C -7.049400 -16.945500 -10.894400
H -6.966400 -17.335900 -11.694100
C -6.840900 -17.984200 -9.845300
H -6.799100 -17.548300 -8.960500
H -6.164100 -15.272600 -10.242200
N -6.084300 -15.868300 -10.786100
N -5.982400 -9.496300 -13.691800
O -5.638000 -19.690200 -8.136200
H -5.590600 -10.771700 -12.317900
O -5.553100 -18.602400 -10.113600
O -5.506900 -8.863500 -14.614100
N -5.281400 -10.503700 -13.102900
C -5.093400 -19.415400 -9.159000
C -4.990400 -15.783400 -11.514900
O -4.646200 -16.558400 -12.413000
O -4.480300 -13.784500 -10.272000
C -4.136100 -14.559500 -11.170100
C -4.033100 -10.927500 -13.525900
N -3.845200 -19.839200 -9.582000
O -3.619600 -21.479400 -8.070800
O -3.573400 -11.740500 -12.571300
H -3.536000 -19.571200 -10.367000
O -3.488500 -10.652700 -14.548800
N -3.144100 -20.846600 -8.993100
N -3.042200 -14.474600 -11.898800
H -2.962500 -15.070300 -12.442700
H -2.327400 -12.794600 -13.724400
C -2.285600 -12.358700 -12.839700
H -2.160100 -13.007000 -10.990800
C -2.077100 -13.397400 -11.790500
O -2.023900 -21.032800 -9.479500
H -1.595100 -11.671900 -12.763700
H -1.155800 -13.745300 -11.864200
72
Fragment
H -10.252400 -8.688200 -16.491900
H -9.813100 -6.614800 -15.592500
O -9.384300 -15.975600 -18.876700
C -9.331100 -8.340300 -16.565700
H -9.248100 -7.949800 -17.365300
C -9.122600 -7.301500 -15.516500
H -9.080800 -7.737400 -14.631800
H -8.445700 -10.013200 -15.913500
N -8.366000 -9.417400 -16.457300
N -8.264100 -15.789400 -19.363100
O -7.919700 -5.595500 -13.807400
H -7.872200 -14.514000 -17.989100
O -7.834800 -6.683300 -15.784900
O -7.788600 -16.422300 -20.285300
N -7.563000 -14.782000 -18.774200
C -7.375100 -5.870300 -14.830300
C -7.272000 -9.502400 -17.186100
O -6.927900 -8.727300 -18.084200
O -6.761900 -11.501300 -15.943200
C -6.417800 -10.726200 -16.841300
C -6.314800 -14.358300 -19.197100
N -6.126800 -5.446600 -15.253200
O -5.901300 -3.806300 -13.742100
O -5.855100 -13.545300 -18.242500
H -5.817600 -5.714600 -16.038200
O -5.770100 -14.633100 -20.220000
N -5.425800 -4.439200 -14.664300
N -5.323900 -10.811200 -17.570000
H -5.244100 -10.215400 -18.113900
H -4.609100 -12.491200 -19.395600
C -4.567300 -12.927100 -18.510900
H -4.441800 -12.278800 -16.662100
C -4.358800 -11.888300 -17.461700
O -4.305600 -4.253000 -15.150700
H -3.876700 -13.613800 -18.434900
H -3.437500 -11.540400 -17.535500
H -7.970700 -16.597600 -10.820700
H -7.531500 -18.671000 -9.921300
O -7.102600 -9.310100 -13.205500
C -7.049400 -16.945500 -10.894400
H -6.966400 -17.335900 -11.694100
C -6.840900 -17.984200 -9.845300
H -6.799100 -17.548300 -8.960500
H -6.164100 -15.272600 -10.242200
N -6.084300 -15.868300 -10.786100
N -5.982400 -9.496300 -13.691800
O -5.638000 -19.690200 -8.136200
H -5.590600 -10.771700 -12.317900
O -5.553100 -18.602400 -10.113600
O -5.506900 -8.863500 -14.614100
N -5.281400 -10.503700 -13.102900
C -5.093400 -19.415400 -9.159000
C -4.990400 -15.783400 -11.514900
O -4.646200 -16.558400 -12.413000
O -4.480300 -13.784500 -10.272000
C -4.136100 -14.559500 -11.170100
C -4.033100 -10.927500 -13.525900
N -3.845200 -19.839200 -9.582000
O -3.619600 -21.479400 -8.070800
O -3.573400 -11.740500 -12.571300
H -3.536000 -19.571200 -10.367000
O -3.488500 -10.652700 -14.548800
N -3.144100 -20.846600 -8.993100
N -3.042200 -14.474600 -11.898800
H -2.962500 -15.070300 -12.442700
H -2.327400 -12.794600 -13.724400
C -2.285600 -12.358700 -12.839700
H -2.160100 -13.007000 -10.990800
C -2.077100 -13.397400 -11.790500
O -2.023900 -21.032800 -9.479500
H -1.595100 -11.671900 -12.763700
H -1.155800 -13.745300 -11.864200
