36
Fragment
H -10.252400 -8.688200 -16.491900
H -9.813100 -6.614800 -15.592500
O -9.384300 -15.975600 -18.876700
C -9.331100 -8.340300 -16.565700
H -9.248100 -7.949800 -17.365300
C -9.122600 -7.301500 -15.516500
H -9.080800 -7.737400 -14.631800
H -8.445700 -10.013200 -15.913500
N -8.366000 -9.417400 -16.457300
N -8.264100 -15.789400 -19.363100
O -7.919700 -5.595500 -13.807400
H -7.872200 -14.514000 -17.989100
O -7.834800 -6.683300 -15.784900
O -7.788600 -16.422300 -20.285300
N -7.563000 -14.782000 -18.774200
C -7.375100 -5.870300 -14.830300
C -7.272000 -9.502400 -17.186100
O -6.927900 -8.727300 -18.084200
O -6.761900 -11.501300 -15.943200
C -6.417800 -10.726200 -16.841300
C -6.314800 -14.358300 -19.197100
N -6.126800 -5.446600 -15.253200
O -5.901300 -3.806300 -13.742100
O -5.855100 -13.545300 -18.242500
H -5.817600 -5.714600 -16.038200
O -5.770100 -14.633100 -20.220000
N -5.425800 -4.439200 -14.664300
N -5.323900 -10.811200 -17.570000
H -5.244100 -10.215400 -18.113900
H -4.609100 -12.491200 -19.395600
C -4.567300 -12.927100 -18.510900
H -4.441800 -12.278800 -16.662100
C -4.358800 -11.888300 -17.461700
O -4.305600 -4.253000 -15.150700
H -3.876700 -13.613800 -18.434900
H -3.437500 -11.540400 -17.535500
36
Fragment
H -12.534000 -6.483300 -22.163200
H -12.094800 -8.556700 -21.263700
O -11.665900 0.804200 -24.547900
C -11.612700 -6.831200 -22.236900
H -11.529700 -7.221600 -23.036500
C -11.404200 -7.869900 -21.187700
H -11.362400 -7.434000 -20.303000
H -10.727400 -5.158300 -21.584700
N -10.647600 -5.754000 -22.128600
N -10.545700 0.618000 -25.034300
O -10.201300 -9.575900 -19.478600
H -10.153800 -0.657400 -23.660400
O -10.116400 -8.488100 -21.456100
O -10.070200 1.250800 -25.956500
N -9.844700 -0.389400 -24.445400
C -9.656700 -9.301100 -20.501500
C -9.553700 -5.669100 -22.857300
O -9.209500 -6.444100 -23.755400
O -9.043600 -3.670200 -21.614400
C -8.699400 -4.445200 -22.512500
C -8.596400 -0.813200 -24.868400
N -8.408400 -9.724900 -20.924500
O -8.182900 -11.365100 -19.413300
O -8.136700 -1.626200 -23.913800
H -8.099300 -9.456900 -21.709500
O -8.051800 -0.538400 -25.891200
N -7.707400 -10.732300 -20.335600
N -7.605500 -4.360300 -23.241300
H -7.525700 -4.956000 -23.785100
H -6.890700 -2.680300 -25.066800
C -6.848900 -2.244400 -24.182100
H -6.723400 -2.892700 -22.333300
C -6.640400 -3.283100 -23.133000
O -6.587200 -10.918500 -20.821900
H -6.158300 -1.557600 -24.106100
H -5.719100 -3.631000 -23.206700
72
Fragment
H -10.252400 -8.688200 -16.491900
H -9.813100 -6.614800 -15.592500
O -9.384300 -15.975600 -18.876700
C -9.331100 -8.340300 -16.565700
H -9.248100 -7.949800 -17.365300
C -9.122600 -7.301500 -15.516500
H -9.080800 -7.737400 -14.631800
H -8.445700 -10.013200 -15.913500
N -8.366000 -9.417400 -16.457300
N -8.264100 -15.789400 -19.363100
O -7.919700 -5.595500 -13.807400
H -7.872200 -14.514000 -17.989100
O -7.834800 -6.683300 -15.784900
O -7.788600 -16.422300 -20.285300
N -7.563000 -14.782000 -18.774200
C -7.375100 -5.870300 -14.830300
C -7.272000 -9.502400 -17.186100
O -6.927900 -8.727300 -18.084200
O -6.761900 -11.501300 -15.943200
C -6.417800 -10.726200 -16.841300
C -6.314800 -14.358300 -19.197100
N -6.126800 -5.446600 -15.253200
O -5.901300 -3.806300 -13.742100
O -5.855100 -13.545300 -18.242500
H -5.817600 -5.714600 -16.038200
O -5.770100 -14.633100 -20.220000
N -5.425800 -4.439200 -14.664300
N -5.323900 -10.811200 -17.570000
H -5.244100 -10.215400 -18.113900
H -4.609100 -12.491200 -19.395600
C -4.567300 -12.927100 -18.510900
H -4.441800 -12.278800 -16.662100
C -4.358800 -11.888300 -17.461700
O -4.305600 -4.253000 -15.150700
H -3.876700 -13.613800 -18.434900
H -3.437500 -11.540400 -17.535500
H -12.534000 -6.483300 -22.163200
H -12.094800 -8.556700 -21.263700
O -11.665900 0.804200 -24.547900
C -11.612700 -6.831200 -22.236900
H -11.529700 -7.221600 -23.036500
C -11.404200 -7.869900 -21.187700
H -11.362400 -7.434000 -20.303000
H -10.727400 -5.158300 -21.584700
N -10.647600 -5.754000 -22.128600
N -10.545700 0.618000 -25.034300
O -10.201300 -9.575900 -19.478600
H -10.153800 -0.657400 -23.660400
O -10.116400 -8.488100 -21.456100
O -10.070200 1.250800 -25.956500
N -9.844700 -0.389400 -24.445400
C -9.656700 -9.301100 -20.501500
C -9.553700 -5.669100 -22.857300
O -9.209500 -6.444100 -23.755400
O -9.043600 -3.670200 -21.614400
C -8.699400 -4.445200 -22.512500
C -8.596400 -0.813200 -24.868400
N -8.408400 -9.724900 -20.924500
O -8.182900 -11.365100 -19.413300
O -8.136700 -1.626200 -23.913800
H -8.099300 -9.456900 -21.709500
O -8.051800 -0.538400 -25.891200
N -7.707400 -10.732300 -20.335600
N -7.605500 -4.360300 -23.241300
H -7.525700 -4.956000 -23.785100
H -6.890700 -2.680300 -25.066800
C -6.848900 -2.244400 -24.182100
H -6.723400 -2.892700 -22.333300
C -6.640400 -3.283100 -23.133000
O -6.587200 -10.918500 -20.821900
H -6.158300 -1.557600 -24.106100
H -5.719100 -3.631000 -23.206700
