36
Fragment
H -10.252400 -8.688200 -16.491900
H -9.813100 -6.614800 -15.592500
O -9.384300 -15.975600 -18.876700
C -9.331100 -8.340300 -16.565700
H -9.248100 -7.949800 -17.365300
C -9.122600 -7.301500 -15.516500
H -9.080800 -7.737400 -14.631800
H -8.445700 -10.013200 -15.913500
N -8.366000 -9.417400 -16.457300
N -8.264100 -15.789400 -19.363100
O -7.919700 -5.595500 -13.807400
H -7.872200 -14.514000 -17.989100
O -7.834800 -6.683300 -15.784900
O -7.788600 -16.422300 -20.285300
N -7.563000 -14.782000 -18.774200
C -7.375100 -5.870300 -14.830300
C -7.272000 -9.502400 -17.186100
O -6.927900 -8.727300 -18.084200
O -6.761900 -11.501300 -15.943200
C -6.417800 -10.726200 -16.841300
C -6.314800 -14.358300 -19.197100
N -6.126800 -5.446600 -15.253200
O -5.901300 -3.806300 -13.742100
O -5.855100 -13.545300 -18.242500
H -5.817600 -5.714600 -16.038200
O -5.770100 -14.633100 -20.220000
N -5.425800 -4.439200 -14.664300
N -5.323900 -10.811200 -17.570000
H -5.244100 -10.215400 -18.113900
H -4.609100 -12.491200 -19.395600
C -4.567300 -12.927100 -18.510900
H -4.441800 -12.278800 -16.662100
C -4.358800 -11.888300 -17.461700
O -4.305600 -4.253000 -15.150700
H -3.876700 -13.613800 -18.434900
H -3.437500 -11.540400 -17.535500
36
Fragment
H -14.583800 -16.597600 -10.820700
H -14.144600 -18.671000 -9.921300
O -13.715700 -9.310100 -13.205500
C -13.662500 -16.945500 -10.894400
H -13.579500 -17.335900 -11.694100
C -13.454000 -17.984200 -9.845300
H -13.412200 -17.548300 -8.960500
H -12.777200 -15.272600 -10.242200
N -12.697400 -15.868300 -10.786100
N -12.595500 -9.496300 -13.691800
O -12.251100 -19.690200 -8.136200
H -12.203700 -10.771700 -12.317900
O -12.166200 -18.602400 -10.113600
O -12.120000 -8.863500 -14.614100
N -11.894500 -10.503700 -13.102900
C -11.706500 -19.415400 -9.159000
C -11.603500 -15.783400 -11.514900
O -11.259300 -16.558400 -12.413000
O -11.093400 -13.784500 -10.272000
C -10.749200 -14.559500 -11.170100
C -10.646200 -10.927500 -13.525900
N -10.458300 -19.839200 -9.582000
O -10.232700 -21.479400 -8.070800
O -10.186500 -11.740500 -12.571300
H -10.149100 -19.571200 -10.367000
O -10.101600 -10.652700 -14.548800
N -9.757200 -20.846600 -8.993100
N -9.655300 -14.474600 -11.898800
H -9.575600 -15.070300 -12.442700
H -8.940500 -12.794600 -13.724400
C -8.898700 -12.358700 -12.839700
H -8.773200 -13.007000 -10.990800
C -8.690200 -13.397400 -11.790500
O -8.637000 -21.032800 -9.479500
H -8.208200 -11.671900 -12.763700
H -7.768900 -13.745300 -11.864200
72
Fragment
H -10.252400 -8.688200 -16.491900
H -9.813100 -6.614800 -15.592500
O -9.384300 -15.975600 -18.876700
C -9.331100 -8.340300 -16.565700
H -9.248100 -7.949800 -17.365300
C -9.122600 -7.301500 -15.516500
H -9.080800 -7.737400 -14.631800
H -8.445700 -10.013200 -15.913500
N -8.366000 -9.417400 -16.457300
N -8.264100 -15.789400 -19.363100
O -7.919700 -5.595500 -13.807400
H -7.872200 -14.514000 -17.989100
O -7.834800 -6.683300 -15.784900
O -7.788600 -16.422300 -20.285300
N -7.563000 -14.782000 -18.774200
C -7.375100 -5.870300 -14.830300
C -7.272000 -9.502400 -17.186100
O -6.927900 -8.727300 -18.084200
O -6.761900 -11.501300 -15.943200
C -6.417800 -10.726200 -16.841300
C -6.314800 -14.358300 -19.197100
N -6.126800 -5.446600 -15.253200
O -5.901300 -3.806300 -13.742100
O -5.855100 -13.545300 -18.242500
H -5.817600 -5.714600 -16.038200
O -5.770100 -14.633100 -20.220000
N -5.425800 -4.439200 -14.664300
N -5.323900 -10.811200 -17.570000
H -5.244100 -10.215400 -18.113900
H -4.609100 -12.491200 -19.395600
C -4.567300 -12.927100 -18.510900
H -4.441800 -12.278800 -16.662100
C -4.358800 -11.888300 -17.461700
O -4.305600 -4.253000 -15.150700
H -3.876700 -13.613800 -18.434900
H -3.437500 -11.540400 -17.535500
H -14.583800 -16.597600 -10.820700
H -14.144600 -18.671000 -9.921300
O -13.715700 -9.310100 -13.205500
C -13.662500 -16.945500 -10.894400
H -13.579500 -17.335900 -11.694100
C -13.454000 -17.984200 -9.845300
H -13.412200 -17.548300 -8.960500
H -12.777200 -15.272600 -10.242200
N -12.697400 -15.868300 -10.786100
N -12.595500 -9.496300 -13.691800
O -12.251100 -19.690200 -8.136200
H -12.203700 -10.771700 -12.317900
O -12.166200 -18.602400 -10.113600
O -12.120000 -8.863500 -14.614100
N -11.894500 -10.503700 -13.102900
C -11.706500 -19.415400 -9.159000
C -11.603500 -15.783400 -11.514900
O -11.259300 -16.558400 -12.413000
O -11.093400 -13.784500 -10.272000
C -10.749200 -14.559500 -11.170100
C -10.646200 -10.927500 -13.525900
N -10.458300 -19.839200 -9.582000
O -10.232700 -21.479400 -8.070800
O -10.186500 -11.740500 -12.571300
H -10.149100 -19.571200 -10.367000
O -10.101600 -10.652700 -14.548800
N -9.757200 -20.846600 -8.993100
N -9.655300 -14.474600 -11.898800
H -9.575600 -15.070300 -12.442700
H -8.940500 -12.794600 -13.724400
C -8.898700 -12.358700 -12.839700
H -8.773200 -13.007000 -10.990800
C -8.690200 -13.397400 -11.790500
O -8.637000 -21.032800 -9.479500
H -8.208200 -11.671900 -12.763700
H -7.768900 -13.745300 -11.864200
