36
Fragment
H -10.252400 -8.688200 -16.491900
H -9.813100 -6.614800 -15.592500
O -9.384300 -15.975600 -18.876700
C -9.331100 -8.340300 -16.565700
H -9.248100 -7.949800 -17.365300
C -9.122600 -7.301500 -15.516500
H -9.080800 -7.737400 -14.631800
H -8.445700 -10.013200 -15.913500
N -8.366000 -9.417400 -16.457300
N -8.264100 -15.789400 -19.363100
O -7.919700 -5.595500 -13.807400
H -7.872200 -14.514000 -17.989100
O -7.834800 -6.683300 -15.784900
O -7.788600 -16.422300 -20.285300
N -7.563000 -14.782000 -18.774200
C -7.375100 -5.870300 -14.830300
C -7.272000 -9.502400 -17.186100
O -6.927900 -8.727300 -18.084200
O -6.761900 -11.501300 -15.943200
C -6.417800 -10.726200 -16.841300
C -6.314800 -14.358300 -19.197100
N -6.126800 -5.446600 -15.253200
O -5.901300 -3.806300 -13.742100
O -5.855100 -13.545300 -18.242500
H -5.817600 -5.714600 -16.038200
O -5.770100 -14.633100 -20.220000
N -5.425800 -4.439200 -14.664300
N -5.323900 -10.811200 -17.570000
H -5.244100 -10.215400 -18.113900
H -4.609100 -12.491200 -19.395600
C -4.567300 -12.927100 -18.510900
H -4.441800 -12.278800 -16.662100
C -4.358800 -11.888300 -17.461700
O -4.305600 -4.253000 -15.150700
H -3.876700 -13.613800 -18.434900
H -3.437500 -11.540400 -17.535500
3
Fragment
H -9.085100 -3.600700 -15.924800
O -8.362700 -3.594600 -16.405900
H -7.831400 -2.933100 -16.129000
39
Fragment
H -10.252400 -8.688200 -16.491900
H -9.813100 -6.614800 -15.592500
O -9.384300 -15.975600 -18.876700
C -9.331100 -8.340300 -16.565700
H -9.248100 -7.949800 -17.365300
C -9.122600 -7.301500 -15.516500
H -9.080800 -7.737400 -14.631800
H -8.445700 -10.013200 -15.913500
N -8.366000 -9.417400 -16.457300
N -8.264100 -15.789400 -19.363100
O -7.919700 -5.595500 -13.807400
H -7.872200 -14.514000 -17.989100
O -7.834800 -6.683300 -15.784900
O -7.788600 -16.422300 -20.285300
N -7.563000 -14.782000 -18.774200
C -7.375100 -5.870300 -14.830300
C -7.272000 -9.502400 -17.186100
O -6.927900 -8.727300 -18.084200
O -6.761900 -11.501300 -15.943200
C -6.417800 -10.726200 -16.841300
C -6.314800 -14.358300 -19.197100
N -6.126800 -5.446600 -15.253200
O -5.901300 -3.806300 -13.742100
O -5.855100 -13.545300 -18.242500
H -5.817600 -5.714600 -16.038200
O -5.770100 -14.633100 -20.220000
N -5.425800 -4.439200 -14.664300
N -5.323900 -10.811200 -17.570000
H -5.244100 -10.215400 -18.113900
H -4.609100 -12.491200 -19.395600
C -4.567300 -12.927100 -18.510900
H -4.441800 -12.278800 -16.662100
C -4.358800 -11.888300 -17.461700
O -4.305600 -4.253000 -15.150700
H -3.876700 -13.613800 -18.434900
H -3.437500 -11.540400 -17.535500
H -9.085100 -3.600700 -15.924800
O -8.362700 -3.594600 -16.405900
H -7.831400 -2.933100 -16.129000
