36
Fragment
H -10.252400 -8.688200 -16.491900
H -9.813100 -6.614800 -15.592500
O -9.384300 -15.975600 -18.876700
C -9.331100 -8.340300 -16.565700
H -9.248100 -7.949800 -17.365300
C -9.122600 -7.301500 -15.516500
H -9.080800 -7.737400 -14.631800
H -8.445700 -10.013200 -15.913500
N -8.366000 -9.417400 -16.457300
N -8.264100 -15.789400 -19.363100
O -7.919700 -5.595500 -13.807400
H -7.872200 -14.514000 -17.989100
O -7.834800 -6.683300 -15.784900
O -7.788600 -16.422300 -20.285300
N -7.563000 -14.782000 -18.774200
C -7.375100 -5.870300 -14.830300
C -7.272000 -9.502400 -17.186100
O -6.927900 -8.727300 -18.084200
O -6.761900 -11.501300 -15.943200
C -6.417800 -10.726200 -16.841300
C -6.314800 -14.358300 -19.197100
N -6.126800 -5.446600 -15.253200
O -5.901300 -3.806300 -13.742100
O -5.855100 -13.545300 -18.242500
H -5.817600 -5.714600 -16.038200
O -5.770100 -14.633100 -20.220000
N -5.425800 -4.439200 -14.664300
N -5.323900 -10.811200 -17.570000
H -5.244100 -10.215400 -18.113900
H -4.609100 -12.491200 -19.395600
C -4.567300 -12.927100 -18.510900
H -4.441800 -12.278800 -16.662100
C -4.358800 -11.888300 -17.461700
O -4.305600 -4.253000 -15.150700
H -3.876700 -13.613800 -18.434900
H -3.437500 -11.540400 -17.535500
36
Fragment
H -5.920900 -16.597600 -22.163200
H -5.481700 -18.671000 -21.263700
O -5.052800 -9.310100 -24.547900
C -4.999600 -16.945500 -22.236900
H -4.916600 -17.335900 -23.036500
C -4.791100 -17.984200 -21.187700
H -4.749300 -17.548300 -20.303000
H -4.114300 -15.272600 -21.584700
N -4.034500 -15.868300 -22.128600
N -3.932600 -9.496300 -25.034300
O -3.588200 -19.690200 -19.478600
H -3.540700 -10.771700 -23.660400
O -3.503300 -18.602400 -21.456100
O -3.457100 -8.863500 -25.956500
N -3.231600 -10.503700 -24.445400
C -3.043600 -19.415400 -20.501500
C -2.940600 -15.783400 -22.857300
O -2.596400 -16.558400 -23.755400
O -2.430500 -13.784500 -21.614400
C -2.086300 -14.559500 -22.512500
C -1.983300 -10.927500 -24.868400
N -1.795300 -19.839200 -20.924500
O -1.569800 -21.479400 -19.413300
O -1.523600 -11.740500 -23.913800
H -1.486200 -19.571200 -21.709500
O -1.438700 -10.652700 -25.891200
N -1.094300 -20.846600 -20.335600
N -0.992400 -14.474600 -23.241300
H -0.912600 -15.070300 -23.785100
H -0.277600 -12.794600 -25.066800
C -0.235800 -12.358700 -24.182100
H -0.110300 -13.007000 -22.333300
C -0.027300 -13.397400 -23.133000
O 0.025900 -21.032800 -20.821900
H 0.454800 -11.671900 -24.106100
H 0.894000 -13.745300 -23.206700
72
Fragment
H -10.252400 -8.688200 -16.491900
H -9.813100 -6.614800 -15.592500
O -9.384300 -15.975600 -18.876700
C -9.331100 -8.340300 -16.565700
H -9.248100 -7.949800 -17.365300
C -9.122600 -7.301500 -15.516500
H -9.080800 -7.737400 -14.631800
H -8.445700 -10.013200 -15.913500
N -8.366000 -9.417400 -16.457300
N -8.264100 -15.789400 -19.363100
O -7.919700 -5.595500 -13.807400
H -7.872200 -14.514000 -17.989100
O -7.834800 -6.683300 -15.784900
O -7.788600 -16.422300 -20.285300
N -7.563000 -14.782000 -18.774200
C -7.375100 -5.870300 -14.830300
C -7.272000 -9.502400 -17.186100
O -6.927900 -8.727300 -18.084200
O -6.761900 -11.501300 -15.943200
C -6.417800 -10.726200 -16.841300
C -6.314800 -14.358300 -19.197100
N -6.126800 -5.446600 -15.253200
O -5.901300 -3.806300 -13.742100
O -5.855100 -13.545300 -18.242500
H -5.817600 -5.714600 -16.038200
O -5.770100 -14.633100 -20.220000
N -5.425800 -4.439200 -14.664300
N -5.323900 -10.811200 -17.570000
H -5.244100 -10.215400 -18.113900
H -4.609100 -12.491200 -19.395600
C -4.567300 -12.927100 -18.510900
H -4.441800 -12.278800 -16.662100
C -4.358800 -11.888300 -17.461700
O -4.305600 -4.253000 -15.150700
H -3.876700 -13.613800 -18.434900
H -3.437500 -11.540400 -17.535500
H -5.920900 -16.597600 -22.163200
H -5.481700 -18.671000 -21.263700
O -5.052800 -9.310100 -24.547900
C -4.999600 -16.945500 -22.236900
H -4.916600 -17.335900 -23.036500
C -4.791100 -17.984200 -21.187700
H -4.749300 -17.548300 -20.303000
H -4.114300 -15.272600 -21.584700
N -4.034500 -15.868300 -22.128600
N -3.932600 -9.496300 -25.034300
O -3.588200 -19.690200 -19.478600
H -3.540700 -10.771700 -23.660400
O -3.503300 -18.602400 -21.456100
O -3.457100 -8.863500 -25.956500
N -3.231600 -10.503700 -24.445400
C -3.043600 -19.415400 -20.501500
C -2.940600 -15.783400 -22.857300
O -2.596400 -16.558400 -23.755400
O -2.430500 -13.784500 -21.614400
C -2.086300 -14.559500 -22.512500
C -1.983300 -10.927500 -24.868400
N -1.795300 -19.839200 -20.924500
O -1.569800 -21.479400 -19.413300
O -1.523600 -11.740500 -23.913800
H -1.486200 -19.571200 -21.709500
O -1.438700 -10.652700 -25.891200
N -1.094300 -20.846600 -20.335600
N -0.992400 -14.474600 -23.241300
H -0.912600 -15.070300 -23.785100
H -0.277600 -12.794600 -25.066800
C -0.235800 -12.358700 -24.182100
H -0.110300 -13.007000 -22.333300
C -0.027300 -13.397400 -23.133000
O 0.025900 -21.032800 -20.821900
H 0.454800 -11.671900 -24.106100
H 0.894000 -13.745300 -23.206700
