24
Fragment
H -40.181400 -18.664600 -4.592100
H -39.631100 -16.839900 -6.243300
C -39.111800 -18.843400 -4.555300
C -38.549900 -17.014600 -6.211500
N -38.525100 -19.779700 -3.805600
N -38.235500 -18.108400 -5.294100
H -38.198800 -17.277500 -7.212200
H -38.046100 -16.107300 -5.864900
H -37.490100 -21.506500 -2.415200
C -37.199500 -19.630300 -4.082600
C -36.972500 -18.611300 -4.995700
C -36.413100 -21.444200 -2.589300
N -36.165000 -20.369900 -3.553300
H -36.049100 -22.404100 -2.977600
H -35.889800 -21.206800 -1.661200
C -35.671300 -18.239200 -5.465400
O -35.405300 -17.343400 -6.275500
C -34.847200 -20.097000 -3.937600
N -34.662500 -19.051200 -4.870200
O -33.895200 -20.732600 -3.490000
H -33.275500 -17.969300 -5.966100
C -33.266700 -18.792800 -5.250400
H -32.835600 -19.691000 -5.703000
H -32.678000 -18.521700 -4.366700
8
Fragment
F -43.006100 -22.001100 -1.197000
F -41.875000 -23.522200 -2.201500
C -41.811800 -22.375200 -1.462800
O -41.599500 -20.193000 -2.521600
F -41.234300 -22.633200 -0.423700
C -41.075700 -21.237700 -2.220800
O -39.801000 -21.598100 -2.478400
H -39.388800 -20.848600 -2.954600
32
Fragment
H -40.181400 -18.664600 -4.592100
H -39.631100 -16.839900 -6.243300
C -39.111800 -18.843400 -4.555300
C -38.549900 -17.014600 -6.211500
N -38.525100 -19.779700 -3.805600
N -38.235500 -18.108400 -5.294100
H -38.198800 -17.277500 -7.212200
H -38.046100 -16.107300 -5.864900
H -37.490100 -21.506500 -2.415200
C -37.199500 -19.630300 -4.082600
C -36.972500 -18.611300 -4.995700
C -36.413100 -21.444200 -2.589300
N -36.165000 -20.369900 -3.553300
H -36.049100 -22.404100 -2.977600
H -35.889800 -21.206800 -1.661200
C -35.671300 -18.239200 -5.465400
O -35.405300 -17.343400 -6.275500
C -34.847200 -20.097000 -3.937600
N -34.662500 -19.051200 -4.870200
O -33.895200 -20.732600 -3.490000
H -33.275500 -17.969300 -5.966100
C -33.266700 -18.792800 -5.250400
H -32.835600 -19.691000 -5.703000
H -32.678000 -18.521700 -4.366700
F -43.006100 -22.001100 -1.197000
F -41.875000 -23.522200 -2.201500
C -41.811800 -22.375200 -1.462800
O -41.599500 -20.193000 -2.521600
F -41.234300 -22.633200 -0.423700
C -41.075700 -21.237700 -2.220800
O -39.801000 -21.598100 -2.478400
H -39.388800 -20.848600 -2.954600
