24
Fragment
H -19.776600 -10.460000 -20.594600
H -19.776600 -8.859100 -20.594600
C -19.283000 -9.659600 -20.319100
H -19.176400 -9.659600 -19.344700
O -18.907200 -9.659600 -23.017100
N -17.967300 -9.659600 -20.951800
C -17.899900 -9.659600 -22.334800
H -17.052200 -10.460000 -24.714800
H -17.052200 -8.859100 -24.714800
C -16.805700 -9.659600 -20.220300
N -16.693800 -9.659600 -18.862600
N -16.625100 -9.659600 -22.907600
C -16.596000 -9.659600 -24.378600
H -15.665500 -9.659600 -24.687000
C -15.573700 -9.659600 -20.817000
C -15.401900 -9.659600 -22.233600
C -15.372700 -9.659600 -18.644600
H -14.984200 -9.659600 -17.777500
N -14.656800 -9.659600 -19.774000
O -14.324300 -9.659600 -22.832400
C -13.205000 -9.659600 -19.876800
H -12.911100 -10.460000 -20.360800
H -12.911100 -8.859100 -20.360800
H -12.814200 -9.659600 -18.978200
24
Fragment
H -10.024700 -9.659600 -18.937700
H -9.927800 -10.460000 -17.555000
H -9.927800 -8.859100 -17.555000
C -9.633900 -9.659600 -18.039100
O -8.514600 -9.659600 -15.083400
N -8.182100 -9.659600 -18.141900
H -7.854700 -9.659600 -20.138400
C -7.466200 -9.659600 -19.271200
C -7.437000 -9.659600 -15.682300
C -7.265200 -9.659600 -17.098900
H -7.173300 -9.659600 -13.228800
C -6.242900 -9.659600 -13.537200
N -6.213800 -9.659600 -15.008200
N -6.145100 -9.659600 -19.053200
C -6.033200 -9.659600 -17.695600
H -5.786700 -10.460000 -13.201000
H -5.786700 -8.859100 -13.201000
C -4.939000 -9.659600 -15.581000
N -4.871600 -9.659600 -16.964100
O -3.931700 -9.659600 -14.898800
H -3.662500 -9.659600 -18.571200
C -3.555900 -9.659600 -17.596800
H -3.062300 -10.460000 -17.321200
H -3.062300 -8.859100 -17.321200
48
Fragment
H -19.776600 -10.460000 -20.594600
H -19.776600 -8.859100 -20.594600
C -19.283000 -9.659600 -20.319100
H -19.176400 -9.659600 -19.344700
O -18.907200 -9.659600 -23.017100
N -17.967300 -9.659600 -20.951800
C -17.899900 -9.659600 -22.334800
H -17.052200 -10.460000 -24.714800
H -17.052200 -8.859100 -24.714800
C -16.805700 -9.659600 -20.220300
N -16.693800 -9.659600 -18.862600
N -16.625100 -9.659600 -22.907600
C -16.596000 -9.659600 -24.378600
H -15.665500 -9.659600 -24.687000
C -15.573700 -9.659600 -20.817000
C -15.401900 -9.659600 -22.233600
C -15.372700 -9.659600 -18.644600
H -14.984200 -9.659600 -17.777500
N -14.656800 -9.659600 -19.774000
O -14.324300 -9.659600 -22.832400
C -13.205000 -9.659600 -19.876800
H -12.911100 -10.460000 -20.360800
H -12.911100 -8.859100 -20.360800
H -12.814200 -9.659600 -18.978200
H -10.024700 -9.659600 -18.937700
H -9.927800 -10.460000 -17.555000
H -9.927800 -8.859100 -17.555000
C -9.633900 -9.659600 -18.039100
O -8.514600 -9.659600 -15.083400
N -8.182100 -9.659600 -18.141900
H -7.854700 -9.659600 -20.138400
C -7.466200 -9.659600 -19.271200
C -7.437000 -9.659600 -15.682300
C -7.265200 -9.659600 -17.098900
H -7.173300 -9.659600 -13.228800
C -6.242900 -9.659600 -13.537200
N -6.213800 -9.659600 -15.008200
N -6.145100 -9.659600 -19.053200
C -6.033200 -9.659600 -17.695600
H -5.786700 -10.460000 -13.201000
H -5.786700 -8.859100 -13.201000
C -4.939000 -9.659600 -15.581000
N -4.871600 -9.659600 -16.964100
O -3.931700 -9.659600 -14.898800
H -3.662500 -9.659600 -18.571200
C -3.555900 -9.659600 -17.596800
H -3.062300 -10.460000 -17.321200
H -3.062300 -8.859100 -17.321200
