24
Fragment
H -19.776600 -10.460000 -20.594600
H -19.776600 -8.859100 -20.594600
C -19.283000 -9.659600 -20.319100
H -19.176400 -9.659600 -19.344700
O -18.907200 -9.659600 -23.017100
N -17.967300 -9.659600 -20.951800
C -17.899900 -9.659600 -22.334800
H -17.052200 -10.460000 -24.714800
H -17.052200 -8.859100 -24.714800
C -16.805700 -9.659600 -20.220300
N -16.693800 -9.659600 -18.862600
N -16.625100 -9.659600 -22.907600
C -16.596000 -9.659600 -24.378600
H -15.665500 -9.659600 -24.687000
C -15.573700 -9.659600 -20.817000
C -15.401900 -9.659600 -22.233600
C -15.372700 -9.659600 -18.644600
H -14.984200 -9.659600 -17.777500
N -14.656800 -9.659600 -19.774000
O -14.324300 -9.659600 -22.832400
C -13.205000 -9.659600 -19.876800
H -12.911100 -10.460000 -20.360800
H -12.911100 -8.859100 -20.360800
H -12.814200 -9.659600 -18.978200
24
Fragment
H -19.081000 -12.879400 -18.937700
H -18.984100 -13.679900 -17.555000
H -18.984100 -12.078900 -17.555000
C -18.690200 -12.879400 -18.039100
O -17.570900 -12.879400 -15.083400
N -17.238500 -12.879400 -18.141900
H -16.911000 -12.879400 -20.138400
C -16.522600 -12.879400 -19.271200
C -16.493400 -12.879400 -15.682300
C -16.321600 -12.879400 -17.098900
H -16.229700 -12.879400 -13.228800
C -15.299200 -12.879400 -13.537200
N -15.270200 -12.879400 -15.008200
N -15.201400 -12.879400 -19.053200
C -15.089500 -12.879400 -17.695600
H -14.843000 -13.679900 -13.201000
H -14.843000 -12.078900 -13.201000
C -13.995300 -12.879400 -15.581000
N -13.928000 -12.879400 -16.964100
O -12.988000 -12.879400 -14.898800
H -12.718800 -12.879400 -18.571200
C -12.612200 -12.879400 -17.596800
H -12.118700 -13.679900 -17.321200
H -12.118700 -12.078900 -17.321200
48
Fragment
H -19.776600 -10.460000 -20.594600
H -19.776600 -8.859100 -20.594600
C -19.283000 -9.659600 -20.319100
H -19.176400 -9.659600 -19.344700
O -18.907200 -9.659600 -23.017100
N -17.967300 -9.659600 -20.951800
C -17.899900 -9.659600 -22.334800
H -17.052200 -10.460000 -24.714800
H -17.052200 -8.859100 -24.714800
C -16.805700 -9.659600 -20.220300
N -16.693800 -9.659600 -18.862600
N -16.625100 -9.659600 -22.907600
C -16.596000 -9.659600 -24.378600
H -15.665500 -9.659600 -24.687000
C -15.573700 -9.659600 -20.817000
C -15.401900 -9.659600 -22.233600
C -15.372700 -9.659600 -18.644600
H -14.984200 -9.659600 -17.777500
N -14.656800 -9.659600 -19.774000
O -14.324300 -9.659600 -22.832400
C -13.205000 -9.659600 -19.876800
H -12.911100 -10.460000 -20.360800
H -12.911100 -8.859100 -20.360800
H -12.814200 -9.659600 -18.978200
H -19.081000 -12.879400 -18.937700
H -18.984100 -13.679900 -17.555000
H -18.984100 -12.078900 -17.555000
C -18.690200 -12.879400 -18.039100
O -17.570900 -12.879400 -15.083400
N -17.238500 -12.879400 -18.141900
H -16.911000 -12.879400 -20.138400
C -16.522600 -12.879400 -19.271200
C -16.493400 -12.879400 -15.682300
C -16.321600 -12.879400 -17.098900
H -16.229700 -12.879400 -13.228800
C -15.299200 -12.879400 -13.537200
N -15.270200 -12.879400 -15.008200
N -15.201400 -12.879400 -19.053200
C -15.089500 -12.879400 -17.695600
H -14.843000 -13.679900 -13.201000
H -14.843000 -12.078900 -13.201000
C -13.995300 -12.879400 -15.581000
N -13.928000 -12.879400 -16.964100
O -12.988000 -12.879400 -14.898800
H -12.718800 -12.879400 -18.571200
C -12.612200 -12.879400 -17.596800
H -12.118700 -13.679900 -17.321200
H -12.118700 -12.078900 -17.321200
