5
Fragment
O -8.778800 -28.316000 -24.563300
H -8.700000 -26.265500 -25.630700
C -8.402800 -27.296400 -24.097300
O -8.383100 -26.138600 -24.710300
H -8.087200 -27.319200 -23.201200
5
Fragment
H -5.411400 -25.458000 -25.323300
O -5.115500 -26.638600 -23.814200
C -5.095800 -25.480800 -24.427300
H -4.798600 -26.511700 -22.893900
O -4.719800 -24.461200 -23.961300
10
Fragment
O -8.778800 -28.316000 -24.563300
H -8.700000 -26.265500 -25.630700
C -8.402800 -27.296400 -24.097300
O -8.383100 -26.138600 -24.710300
H -8.087200 -27.319200 -23.201200
H -5.411400 -25.458000 -25.323300
O -5.115500 -26.638600 -23.814200
C -5.095800 -25.480800 -24.427300
H -4.798600 -26.511700 -22.893900
O -4.719800 -24.461200 -23.961300
