24
Fragment
H -40.181400 -18.664600 -4.592100
H -39.631100 -16.839900 -6.243300
C -39.111800 -18.843400 -4.555300
C -38.549900 -17.014600 -6.211500
N -38.525100 -19.779700 -3.805600
N -38.235500 -18.108400 -5.294100
H -38.198800 -17.277500 -7.212200
H -38.046100 -16.107300 -5.864900
H -37.490100 -21.506500 -2.415200
C -37.199500 -19.630300 -4.082600
C -36.972500 -18.611300 -4.995700
C -36.413100 -21.444200 -2.589300
N -36.165000 -20.369900 -3.553300
H -36.049100 -22.404100 -2.977600
H -35.889800 -21.206800 -1.661200
C -35.671300 -18.239200 -5.465400
O -35.405300 -17.343400 -6.275500
C -34.847200 -20.097000 -3.937600
N -34.662500 -19.051200 -4.870200
O -33.895200 -20.732600 -3.490000
H -33.275500 -17.969300 -5.966100
C -33.266700 -18.792800 -5.250400
H -32.835600 -19.691000 -5.703000
H -32.678000 -18.521700 -4.366700
24
Fragment
H -38.881200 -24.724000 -2.447400
H -38.723500 -25.893200 -1.111100
C -38.292500 -24.995000 -1.563700
H -38.283700 -24.171500 -0.847900
O -37.664000 -26.934800 -3.324100
N -36.896600 -25.253400 -1.943900
C -36.712000 -26.299200 -2.876500
O -36.153800 -23.545700 -0.538600
C -35.887900 -24.441400 -1.348700
H -35.669400 -27.409100 -5.152900
H -35.510000 -28.606300 -3.836500
N -35.394100 -26.572100 -3.260800
C -35.146000 -27.646500 -4.224800
C -34.586700 -24.813500 -1.818400
C -34.359600 -25.832600 -2.731500
H -34.069100 -27.708800 -4.398900
H -33.513100 -22.309600 -0.949200
H -33.360400 -23.479700 0.398100
N -33.323700 -24.310700 -1.520000
N -33.034100 -25.981900 -3.008500
C -33.009300 -23.216800 -0.602500
C -32.447300 -25.045600 -2.258800
H -31.928000 -23.042200 -0.570800
H -31.377700 -24.866900 -2.222000
48
Fragment
H -40.181400 -18.664600 -4.592100
H -39.631100 -16.839900 -6.243300
C -39.111800 -18.843400 -4.555300
C -38.549900 -17.014600 -6.211500
N -38.525100 -19.779700 -3.805600
N -38.235500 -18.108400 -5.294100
H -38.198800 -17.277500 -7.212200
H -38.046100 -16.107300 -5.864900
H -37.490100 -21.506500 -2.415200
C -37.199500 -19.630300 -4.082600
C -36.972500 -18.611300 -4.995700
C -36.413100 -21.444200 -2.589300
N -36.165000 -20.369900 -3.553300
H -36.049100 -22.404100 -2.977600
H -35.889800 -21.206800 -1.661200
C -35.671300 -18.239200 -5.465400
O -35.405300 -17.343400 -6.275500
C -34.847200 -20.097000 -3.937600
N -34.662500 -19.051200 -4.870200
O -33.895200 -20.732600 -3.490000
H -33.275500 -17.969300 -5.966100
C -33.266700 -18.792800 -5.250400
H -32.835600 -19.691000 -5.703000
H -32.678000 -18.521700 -4.366700
H -38.881200 -24.724000 -2.447400
H -38.723500 -25.893200 -1.111100
C -38.292500 -24.995000 -1.563700
H -38.283700 -24.171500 -0.847900
O -37.664000 -26.934800 -3.324100
N -36.896600 -25.253400 -1.943900
C -36.712000 -26.299200 -2.876500
O -36.153800 -23.545700 -0.538600
C -35.887900 -24.441400 -1.348700
H -35.669400 -27.409100 -5.152900
H -35.510000 -28.606300 -3.836500
N -35.394100 -26.572100 -3.260800
C -35.146000 -27.646500 -4.224800
C -34.586700 -24.813500 -1.818400
C -34.359600 -25.832600 -2.731500
H -34.069100 -27.708800 -4.398900
H -33.513100 -22.309600 -0.949200
H -33.360400 -23.479700 0.398100
N -33.323700 -24.310700 -1.520000
N -33.034100 -25.981900 -3.008500
C -33.009300 -23.216800 -0.602500
C -32.447300 -25.045600 -2.258800
H -31.928000 -23.042200 -0.570800
H -31.377700 -24.866900 -2.222000
