24
Fragment
H -19.776600 -10.460000 -20.594600
H -19.776600 -8.859100 -20.594600
C -19.283000 -9.659600 -20.319100
H -19.176400 -9.659600 -19.344700
O -18.907200 -9.659600 -23.017100
N -17.967300 -9.659600 -20.951800
C -17.899900 -9.659600 -22.334800
H -17.052200 -10.460000 -24.714800
H -17.052200 -8.859100 -24.714800
C -16.805700 -9.659600 -20.220300
N -16.693800 -9.659600 -18.862600
N -16.625100 -9.659600 -22.907600
C -16.596000 -9.659600 -24.378600
H -15.665500 -9.659600 -24.687000
C -15.573700 -9.659600 -20.817000
C -15.401900 -9.659600 -22.233600
C -15.372700 -9.659600 -18.644600
H -14.984200 -9.659600 -17.777500
N -14.656800 -9.659600 -19.774000
O -14.324300 -9.659600 -22.832400
C -13.205000 -9.659600 -19.876800
H -12.911100 -10.460000 -20.360800
H -12.911100 -8.859100 -20.360800
H -12.814200 -9.659600 -18.978200
8
Fragment
H -20.890500 -12.879400 -22.923900
H -20.186700 -13.679900 -24.117000
H -20.186700 -12.078900 -24.117000
C -20.139700 -12.879400 -23.553300
C -18.857600 -12.879400 -22.796300
O -18.768100 -12.879400 -21.586100
O -17.794000 -12.879400 -23.593300
H -16.951000 -12.879400 -23.103400
32
Fragment
H -19.776600 -10.460000 -20.594600
H -19.776600 -8.859100 -20.594600
C -19.283000 -9.659600 -20.319100
H -19.176400 -9.659600 -19.344700
O -18.907200 -9.659600 -23.017100
N -17.967300 -9.659600 -20.951800
C -17.899900 -9.659600 -22.334800
H -17.052200 -10.460000 -24.714800
H -17.052200 -8.859100 -24.714800
C -16.805700 -9.659600 -20.220300
N -16.693800 -9.659600 -18.862600
N -16.625100 -9.659600 -22.907600
C -16.596000 -9.659600 -24.378600
H -15.665500 -9.659600 -24.687000
C -15.573700 -9.659600 -20.817000
C -15.401900 -9.659600 -22.233600
C -15.372700 -9.659600 -18.644600
H -14.984200 -9.659600 -17.777500
N -14.656800 -9.659600 -19.774000
O -14.324300 -9.659600 -22.832400
C -13.205000 -9.659600 -19.876800
H -12.911100 -10.460000 -20.360800
H -12.911100 -8.859100 -20.360800
H -12.814200 -9.659600 -18.978200
H -20.890500 -12.879400 -22.923900
H -20.186700 -13.679900 -24.117000
H -20.186700 -12.078900 -24.117000
C -20.139700 -12.879400 -23.553300
C -18.857600 -12.879400 -22.796300
O -18.768100 -12.879400 -21.586100
O -17.794000 -12.879400 -23.593300
H -16.951000 -12.879400 -23.103400
