15
Fragment
O -6.182200 -36.433300 -7.730200
H -6.128900 -37.122200 -7.149700
H -5.925100 -34.068600 -8.324700
C -5.815600 -36.656000 -8.899200
O -5.732500 -37.802900 -9.398200
C -5.715400 -34.200600 -9.279700
C -5.616800 -35.488200 -9.791300
H -5.608500 -32.195500 -9.761100
C -5.531500 -33.109700 -10.114900
C -5.319400 -35.678500 -11.137100
C -5.240700 -33.292700 -11.449800
H -5.234000 -36.600200 -11.486700
C -5.127300 -34.569500 -11.969700
H -5.091000 -32.500100 -12.031100
H -4.932200 -34.710600 -12.929500
21
Fragment
H -7.826800 -29.132000 -2.378000
H -7.541900 -27.017700 -3.457300
C -7.515300 -29.009000 -3.348400
H -7.503200 -31.781500 -6.478000
N -7.425600 -27.801800 -3.888800
N -7.303300 -29.983000 -4.207900
H -7.269000 -26.364100 -8.848000
C -7.108700 -28.009700 -5.223400
C -7.040400 -29.349000 -5.369600
O -6.962800 -25.853900 -6.209200
C -6.915400 -27.063400 -6.276700
N -6.757600 -29.925200 -6.595100
C -6.670700 -31.385200 -6.720500
N -6.660500 -27.738300 -7.496600
C -6.584200 -29.135300 -7.686300
C -6.478500 -26.881100 -8.698400
H -6.465300 -31.608000 -7.623600
O -6.418700 -29.593300 -8.805300
H -6.315800 -27.436000 -9.471500
H -5.969500 -31.711900 -6.149700
H -5.728500 -26.294300 -8.574700
36
Fragment
O -6.182200 -36.433300 -7.730200
H -6.128900 -37.122200 -7.149700
H -5.925100 -34.068600 -8.324700
C -5.815600 -36.656000 -8.899200
O -5.732500 -37.802900 -9.398200
C -5.715400 -34.200600 -9.279700
C -5.616800 -35.488200 -9.791300
H -5.608500 -32.195500 -9.761100
C -5.531500 -33.109700 -10.114900
C -5.319400 -35.678500 -11.137100
C -5.240700 -33.292700 -11.449800
H -5.234000 -36.600200 -11.486700
C -5.127300 -34.569500 -11.969700
H -5.091000 -32.500100 -12.031100
H -4.932200 -34.710600 -12.929500
H -7.826800 -29.132000 -2.378000
H -7.541900 -27.017700 -3.457300
C -7.515300 -29.009000 -3.348400
H -7.503200 -31.781500 -6.478000
N -7.425600 -27.801800 -3.888800
N -7.303300 -29.983000 -4.207900
H -7.269000 -26.364100 -8.848000
C -7.108700 -28.009700 -5.223400
C -7.040400 -29.349000 -5.369600
O -6.962800 -25.853900 -6.209200
C -6.915400 -27.063400 -6.276700
N -6.757600 -29.925200 -6.595100
C -6.670700 -31.385200 -6.720500
N -6.660500 -27.738300 -7.496600
C -6.584200 -29.135300 -7.686300
C -6.478500 -26.881100 -8.698400
H -6.465300 -31.608000 -7.623600
O -6.418700 -29.593300 -8.805300
H -6.315800 -27.436000 -9.471500
H -5.969500 -31.711900 -6.149700
H -5.728500 -26.294300 -8.574700
