15
Fragment
O -6.182200 -36.433300 -7.730200
H -6.128900 -37.122200 -7.149700
H -5.925100 -34.068600 -8.324700
C -5.815600 -36.656000 -8.899200
O -5.732500 -37.802900 -9.398200
C -5.715400 -34.200600 -9.279700
C -5.616800 -35.488200 -9.791300
H -5.608500 -32.195500 -9.761100
C -5.531500 -33.109700 -10.114900
C -5.319400 -35.678500 -11.137100
C -5.240700 -33.292700 -11.449800
H -5.234000 -36.600200 -11.486700
C -5.127300 -34.569500 -11.969700
H -5.091000 -32.500100 -12.031100
H -4.932200 -34.710600 -12.929500
21
Fragment
H -4.890100 -38.848400 -11.827200
H -4.649000 -44.266000 -14.252200
H -4.302700 -39.990100 -10.930300
O -4.199900 -42.147400 -11.596600
H -4.153200 -44.162100 -12.778300
C -4.140000 -39.435200 -11.703500
C -4.034400 -41.689400 -12.715600
N -3.958100 -40.292400 -12.905200
C -3.947900 -43.939400 -13.681300
N -3.861000 -42.479300 -13.806800
C -3.703200 -39.617500 -14.125200
O -3.655800 -38.408000 -14.192700
C -3.578200 -41.903100 -15.032300
C -3.509900 -40.563800 -15.178500
H -3.349600 -38.918200 -11.553800
N -3.315300 -42.537100 -16.193900
N -3.192900 -40.355900 -16.513000
H -3.115400 -44.335600 -13.923900
C -3.103200 -41.563100 -17.053500
H -3.076600 -39.571800 -16.944600
H -2.791800 -41.686100 -18.023800
36
Fragment
O -6.182200 -36.433300 -7.730200
H -6.128900 -37.122200 -7.149700
H -5.925100 -34.068600 -8.324700
C -5.815600 -36.656000 -8.899200
O -5.732500 -37.802900 -9.398200
C -5.715400 -34.200600 -9.279700
C -5.616800 -35.488200 -9.791300
H -5.608500 -32.195500 -9.761100
C -5.531500 -33.109700 -10.114900
C -5.319400 -35.678500 -11.137100
C -5.240700 -33.292700 -11.449800
H -5.234000 -36.600200 -11.486700
C -5.127300 -34.569500 -11.969700
H -5.091000 -32.500100 -12.031100
H -4.932200 -34.710600 -12.929500
H -4.890100 -38.848400 -11.827200
H -4.649000 -44.266000 -14.252200
H -4.302700 -39.990100 -10.930300
O -4.199900 -42.147400 -11.596600
H -4.153200 -44.162100 -12.778300
C -4.140000 -39.435200 -11.703500
C -4.034400 -41.689400 -12.715600
N -3.958100 -40.292400 -12.905200
C -3.947900 -43.939400 -13.681300
N -3.861000 -42.479300 -13.806800
C -3.703200 -39.617500 -14.125200
O -3.655800 -38.408000 -14.192700
C -3.578200 -41.903100 -15.032300
C -3.509900 -40.563800 -15.178500
H -3.349600 -38.918200 -11.553800
N -3.315300 -42.537100 -16.193900
N -3.192900 -40.355900 -16.513000
H -3.115400 -44.335600 -13.923900
C -3.103200 -41.563100 -17.053500
H -3.076600 -39.571800 -16.944600
H -2.791800 -41.686100 -18.023800
