15
Fragment
O -6.182200 -36.433300 -7.730200
H -6.128900 -37.122200 -7.149700
H -5.925100 -34.068600 -8.324700
C -5.815600 -36.656000 -8.899200
O -5.732500 -37.802900 -9.398200
C -5.715400 -34.200600 -9.279700
C -5.616800 -35.488200 -9.791300
H -5.608500 -32.195500 -9.761100
C -5.531500 -33.109700 -10.114900
C -5.319400 -35.678500 -11.137100
C -5.240700 -33.292700 -11.449800
H -5.234000 -36.600200 -11.486700
C -5.127300 -34.569500 -11.969700
H -5.091000 -32.500100 -12.031100
H -4.932200 -34.710600 -12.929500
21
Fragment
H -5.703100 -33.638500 1.702300
H -5.418200 -35.752800 0.623100
C -5.391600 -33.761500 0.732000
H -5.379500 -30.989000 -2.397600
N -5.301900 -34.968700 0.191500
N -5.179600 -32.787500 -0.127600
H -5.145300 -36.406400 -4.767700
C -4.985000 -34.760800 -1.143000
C -4.916700 -33.421500 -1.289200
O -4.839000 -36.916600 -2.128800
C -4.791600 -35.707100 -2.196300
N -4.633900 -32.845300 -2.514700
C -4.547000 -31.385200 -2.640200
N -4.536800 -35.032200 -3.416200
C -4.460500 -33.635200 -3.605900
C -4.354800 -35.889400 -4.618000
H -4.341600 -31.162500 -3.543200
O -4.295000 -33.177200 -4.724900
H -4.192100 -35.334500 -5.391100
H -3.845800 -31.058600 -2.069300
H -3.604800 -36.476200 -4.494300
36
Fragment
O -6.182200 -36.433300 -7.730200
H -6.128900 -37.122200 -7.149700
H -5.925100 -34.068600 -8.324700
C -5.815600 -36.656000 -8.899200
O -5.732500 -37.802900 -9.398200
C -5.715400 -34.200600 -9.279700
C -5.616800 -35.488200 -9.791300
H -5.608500 -32.195500 -9.761100
C -5.531500 -33.109700 -10.114900
C -5.319400 -35.678500 -11.137100
C -5.240700 -33.292700 -11.449800
H -5.234000 -36.600200 -11.486700
C -5.127300 -34.569500 -11.969700
H -5.091000 -32.500100 -12.031100
H -4.932200 -34.710600 -12.929500
H -5.703100 -33.638500 1.702300
H -5.418200 -35.752800 0.623100
C -5.391600 -33.761500 0.732000
H -5.379500 -30.989000 -2.397600
N -5.301900 -34.968700 0.191500
N -5.179600 -32.787500 -0.127600
H -5.145300 -36.406400 -4.767700
C -4.985000 -34.760800 -1.143000
C -4.916700 -33.421500 -1.289200
O -4.839000 -36.916600 -2.128800
C -4.791600 -35.707100 -2.196300
N -4.633900 -32.845300 -2.514700
C -4.547000 -31.385200 -2.640200
N -4.536800 -35.032200 -3.416200
C -4.460500 -33.635200 -3.605900
C -4.354800 -35.889400 -4.618000
H -4.341600 -31.162500 -3.543200
O -4.295000 -33.177200 -4.724900
H -4.192100 -35.334500 -5.391100
H -3.845800 -31.058600 -2.069300
H -3.604800 -36.476200 -4.494300
