15
Fragment
O -6.182200 -36.433300 -7.730200
H -6.128900 -37.122200 -7.149700
H -5.925100 -34.068600 -8.324700
C -5.815600 -36.656000 -8.899200
O -5.732500 -37.802900 -9.398200
C -5.715400 -34.200600 -9.279700
C -5.616800 -35.488200 -9.791300
H -5.608500 -32.195500 -9.761100
C -5.531500 -33.109700 -10.114900
C -5.319400 -35.678500 -11.137100
C -5.240700 -33.292700 -11.449800
H -5.234000 -36.600200 -11.486700
C -5.127300 -34.569500 -11.969700
H -5.091000 -32.500100 -12.031100
H -4.932200 -34.710600 -12.929500
21
Fragment
H -7.210800 -33.638500 -14.619200
H -6.925900 -35.752800 -15.698400
C -6.899400 -33.761500 -15.589500
H -6.887200 -30.989000 -18.719100
N -6.809600 -34.968700 -16.130000
N -6.687300 -32.787500 -16.449000
H -6.653000 -36.406400 -21.089200
C -6.492700 -34.760800 -17.464500
C -6.424400 -33.421500 -17.610700
O -6.346800 -36.916600 -18.450300
C -6.299400 -35.707100 -18.517800
N -6.141600 -32.845300 -18.836200
C -6.054700 -31.385200 -18.961600
N -6.044500 -35.032200 -19.737700
C -5.968200 -33.635200 -19.927400
C -5.862600 -35.889400 -20.939500
H -5.849400 -31.162500 -19.864700
O -5.802700 -33.177200 -21.046400
H -5.699800 -35.334500 -21.712600
H -5.353500 -31.058600 -18.390800
H -5.112500 -36.476200 -20.815800
36
Fragment
O -6.182200 -36.433300 -7.730200
H -6.128900 -37.122200 -7.149700
H -5.925100 -34.068600 -8.324700
C -5.815600 -36.656000 -8.899200
O -5.732500 -37.802900 -9.398200
C -5.715400 -34.200600 -9.279700
C -5.616800 -35.488200 -9.791300
H -5.608500 -32.195500 -9.761100
C -5.531500 -33.109700 -10.114900
C -5.319400 -35.678500 -11.137100
C -5.240700 -33.292700 -11.449800
H -5.234000 -36.600200 -11.486700
C -5.127300 -34.569500 -11.969700
H -5.091000 -32.500100 -12.031100
H -4.932200 -34.710600 -12.929500
H -7.210800 -33.638500 -14.619200
H -6.925900 -35.752800 -15.698400
C -6.899400 -33.761500 -15.589500
H -6.887200 -30.989000 -18.719100
N -6.809600 -34.968700 -16.130000
N -6.687300 -32.787500 -16.449000
H -6.653000 -36.406400 -21.089200
C -6.492700 -34.760800 -17.464500
C -6.424400 -33.421500 -17.610700
O -6.346800 -36.916600 -18.450300
C -6.299400 -35.707100 -18.517800
N -6.141600 -32.845300 -18.836200
C -6.054700 -31.385200 -18.961600
N -6.044500 -35.032200 -19.737700
C -5.968200 -33.635200 -19.927400
C -5.862600 -35.889400 -20.939500
H -5.849400 -31.162500 -19.864700
O -5.802700 -33.177200 -21.046400
H -5.699800 -35.334500 -21.712600
H -5.353500 -31.058600 -18.390800
H -5.112500 -36.476200 -20.815800
