11
Fragment
H -23.944600 -13.714700 -12.277800
N -23.194600 -15.165300 -13.254000
N -23.171800 -14.024300 -12.532700
N -21.981100 -15.483500 -13.500300
C -21.921400 -13.625100 -12.311600
N -21.671700 -12.521000 -11.584300
N -21.184100 -14.545200 -12.934400
N -20.372400 -12.199100 -11.457600
H -20.285100 -14.643000 -12.954200
O -20.175000 -11.145900 -10.813000
O -19.452400 -12.871700 -11.933400
11
Fragment
H -23.892900 -8.430100 -15.728600
N -23.142900 -6.979400 -16.704800
N -23.120100 -8.120500 -15.983400
N -21.929400 -6.661200 -16.951000
C -21.869600 -8.519600 -15.762400
N -21.620000 -9.623800 -15.035000
N -21.132400 -7.599500 -16.385100
N -20.320700 -9.945700 -14.908400
H -20.233300 -7.501800 -16.404900
O -20.123300 -10.998900 -14.263800
O -19.400700 -9.273100 -15.384200
22
Fragment
H -23.944600 -13.714700 -12.277800
N -23.194600 -15.165300 -13.254000
N -23.171800 -14.024300 -12.532700
N -21.981100 -15.483500 -13.500300
C -21.921400 -13.625100 -12.311600
N -21.671700 -12.521000 -11.584300
N -21.184100 -14.545200 -12.934400
N -20.372400 -12.199100 -11.457600
H -20.285100 -14.643000 -12.954200
O -20.175000 -11.145900 -10.813000
O -19.452400 -12.871700 -11.933400
H -23.892900 -8.430100 -15.728600
N -23.142900 -6.979400 -16.704800
N -23.120100 -8.120500 -15.983400
N -21.929400 -6.661200 -16.951000
C -21.869600 -8.519600 -15.762400
N -21.620000 -9.623800 -15.035000
N -21.132400 -7.599500 -16.385100
N -20.320700 -9.945700 -14.908400
H -20.233300 -7.501800 -16.404900
O -20.123300 -10.998900 -14.263800
O -19.400700 -9.273100 -15.384200
