11
Fragment
H -23.944600 -13.714700 -12.277800
N -23.194600 -15.165300 -13.254000
N -23.171800 -14.024300 -12.532700
N -21.981100 -15.483500 -13.500300
C -21.921400 -13.625100 -12.311600
N -21.671700 -12.521000 -11.584300
N -21.184100 -14.545200 -12.934400
N -20.372400 -12.199100 -11.457600
H -20.285100 -14.643000 -12.954200
O -20.175000 -11.145900 -10.813000
O -19.452400 -12.871700 -11.933400
11
Fragment
H -23.996300 -17.288000 -8.827000
N -23.246300 -15.837300 -9.803300
N -23.223600 -16.978400 -9.081900
N -22.032900 -15.519100 -10.049500
C -21.973100 -17.377500 -8.860900
N -21.723400 -18.481700 -8.133500
N -21.235900 -16.457400 -9.483600
N -20.424100 -18.803600 -8.006900
H -20.336800 -16.359700 -9.503400
O -20.226800 -19.856800 -7.362300
O -19.504100 -18.131000 -8.482700
22
Fragment
H -23.944600 -13.714700 -12.277800
N -23.194600 -15.165300 -13.254000
N -23.171800 -14.024300 -12.532700
N -21.981100 -15.483500 -13.500300
C -21.921400 -13.625100 -12.311600
N -21.671700 -12.521000 -11.584300
N -21.184100 -14.545200 -12.934400
N -20.372400 -12.199100 -11.457600
H -20.285100 -14.643000 -12.954200
O -20.175000 -11.145900 -10.813000
O -19.452400 -12.871700 -11.933400
H -23.996300 -17.288000 -8.827000
N -23.246300 -15.837300 -9.803300
N -23.223600 -16.978400 -9.081900
N -22.032900 -15.519100 -10.049500
C -21.973100 -17.377500 -8.860900
N -21.723400 -18.481700 -8.133500
N -21.235900 -16.457400 -9.483600
N -20.424100 -18.803600 -8.006900
H -20.336800 -16.359700 -9.503400
O -20.226800 -19.856800 -7.362300
O -19.504100 -18.131000 -8.482700
