11
Fragment
H -23.944600 -13.714700 -12.277800
N -23.194600 -15.165300 -13.254000
N -23.171800 -14.024300 -12.532700
N -21.981100 -15.483500 -13.500300
C -21.921400 -13.625100 -12.311600
N -21.671700 -12.521000 -11.584300
N -21.184100 -14.545200 -12.934400
N -20.372400 -12.199100 -11.457600
H -20.285100 -14.643000 -12.954200
O -20.175000 -11.145900 -10.813000
O -19.452400 -12.871700 -11.933400
11
Fragment
O -19.318500 -13.702000 -15.672700
O -18.595800 -15.427800 -16.793100
H -18.485800 -11.930700 -14.651900
N -18.398500 -14.374600 -16.148500
N -17.586800 -12.028500 -14.671700
N -17.099200 -14.052700 -16.021800
C -16.849500 -12.948600 -15.294500
N -16.789700 -11.090200 -14.105800
N -15.599000 -12.549400 -15.073400
N -15.576300 -11.408400 -14.352100
H -14.826300 -12.859000 -15.328300
22
Fragment
H -23.944600 -13.714700 -12.277800
N -23.194600 -15.165300 -13.254000
N -23.171800 -14.024300 -12.532700
N -21.981100 -15.483500 -13.500300
C -21.921400 -13.625100 -12.311600
N -21.671700 -12.521000 -11.584300
N -21.184100 -14.545200 -12.934400
N -20.372400 -12.199100 -11.457600
H -20.285100 -14.643000 -12.954200
O -20.175000 -11.145900 -10.813000
O -19.452400 -12.871700 -11.933400
O -19.318500 -13.702000 -15.672700
O -18.595800 -15.427800 -16.793100
H -18.485800 -11.930700 -14.651900
N -18.398500 -14.374600 -16.148500
N -17.586800 -12.028500 -14.671700
N -17.099200 -14.052700 -16.021800
C -16.849500 -12.948600 -15.294500
N -16.789700 -11.090200 -14.105800
N -15.599000 -12.549400 -15.073400
N -15.576300 -11.408400 -14.352100
H -14.826300 -12.859000 -15.328300
