11
Fragment
H -23.944600 -13.714700 -12.277800
N -23.194600 -15.165300 -13.254000
N -23.171800 -14.024300 -12.532700
N -21.981100 -15.483500 -13.500300
C -21.921400 -13.625100 -12.311600
N -21.671700 -12.521000 -11.584300
N -21.184100 -14.545200 -12.934400
N -20.372400 -12.199100 -11.457600
H -20.285100 -14.643000 -12.954200
O -20.175000 -11.145900 -10.813000
O -19.452400 -12.871700 -11.933400
9
Fragment
H -29.750300 -13.761600 -11.594600
H -29.641900 -14.695300 -12.636700
N -29.296300 -13.925400 -12.306100
N -27.986900 -14.168800 -11.919600
N -27.589500 -15.181700 -11.156700
N -27.022300 -13.404000 -12.367500
C -26.287000 -14.988600 -11.150100
N -25.906600 -13.917800 -11.870300
H -25.681600 -15.509300 -10.725000
20
Fragment
H -23.944600 -13.714700 -12.277800
N -23.194600 -15.165300 -13.254000
N -23.171800 -14.024300 -12.532700
N -21.981100 -15.483500 -13.500300
C -21.921400 -13.625100 -12.311600
N -21.671700 -12.521000 -11.584300
N -21.184100 -14.545200 -12.934400
N -20.372400 -12.199100 -11.457600
H -20.285100 -14.643000 -12.954200
O -20.175000 -11.145900 -10.813000
O -19.452400 -12.871700 -11.933400
H -29.750300 -13.761600 -11.594600
H -29.641900 -14.695300 -12.636700
N -29.296300 -13.925400 -12.306100
N -27.986900 -14.168800 -11.919600
N -27.589500 -15.181700 -11.156700
N -27.022300 -13.404000 -12.367500
C -26.287000 -14.988600 -11.150100
N -25.906600 -13.917800 -11.870300
H -25.681600 -15.509300 -10.725000
