11
Fragment
H -23.944600 -13.714700 -12.277800
N -23.194600 -15.165300 -13.254000
N -23.171800 -14.024300 -12.532700
N -21.981100 -15.483500 -13.500300
C -21.921400 -13.625100 -12.311600
N -21.671700 -12.521000 -11.584300
N -21.184100 -14.545200 -12.934400
N -20.372400 -12.199100 -11.457600
H -20.285100 -14.643000 -12.954200
O -20.175000 -11.145900 -10.813000
O -19.452400 -12.871700 -11.933400
11
Fragment
O -19.370200 -17.300600 -12.221900
O -18.647600 -15.574800 -13.342300
H -18.537600 -19.071900 -11.201200
N -18.450200 -16.628000 -12.697700
N -17.638500 -18.974200 -11.221000
N -17.150900 -16.949900 -12.571100
C -16.901200 -18.054100 -11.843700
N -16.841500 -19.912500 -10.655100
N -15.650800 -18.453200 -11.622700
N -15.628000 -19.594300 -10.901300
H -14.878000 -18.143600 -11.877500
22
Fragment
H -23.944600 -13.714700 -12.277800
N -23.194600 -15.165300 -13.254000
N -23.171800 -14.024300 -12.532700
N -21.981100 -15.483500 -13.500300
C -21.921400 -13.625100 -12.311600
N -21.671700 -12.521000 -11.584300
N -21.184100 -14.545200 -12.934400
N -20.372400 -12.199100 -11.457600
H -20.285100 -14.643000 -12.954200
O -20.175000 -11.145900 -10.813000
O -19.452400 -12.871700 -11.933400
O -19.370200 -17.300600 -12.221900
O -18.647600 -15.574800 -13.342300
H -18.537600 -19.071900 -11.201200
N -18.450200 -16.628000 -12.697700
N -17.638500 -18.974200 -11.221000
N -17.150900 -16.949900 -12.571100
C -16.901200 -18.054100 -11.843700
N -16.841500 -19.912500 -10.655100
N -15.650800 -18.453200 -11.622700
N -15.628000 -19.594300 -10.901300
H -14.878000 -18.143600 -11.877500
