24
Fragment
H -13.124900 -13.816600 -32.094800
N -13.124800 -15.600800 -31.248200
H -12.919700 -17.224200 -30.145900
C -12.785400 -14.312300 -31.358000
C -12.667500 -16.310800 -30.213400
C -11.955000 -13.658700 -30.441700
H -11.892400 -11.758100 -31.270100
C -11.838900 -15.777500 -29.227400
H -11.596200 -17.443300 -28.014600
C -11.561700 -12.281900 -30.550400
C -11.469800 -14.419300 -29.353500
C -11.354500 -16.528800 -28.104200
C -10.725800 -11.715500 -29.643000
C -10.620300 -13.822800 -28.389000
C -10.561600 -15.958900 -27.173600
H -10.452200 -10.812900 -29.755200
H -10.260300 -16.474800 -26.434600
C -10.249700 -12.466000 -28.513800
C -10.168000 -14.583700 -27.283400
C -9.451900 -11.932200 -27.491800
C -9.371000 -13.930700 -26.341700
H -9.198500 -11.018400 -27.550200
H -9.056700 -14.427600 -25.594700
N -9.027300 -12.641700 -26.436800
24
Fragment
H -13.124900 -21.813700 -32.094800
N -13.124800 -23.597900 -31.248200
H -12.919700 -25.221300 -30.145900
C -12.785400 -22.309400 -31.358000
C -12.667500 -24.307900 -30.213400
C -11.955000 -21.655800 -30.441700
H -11.892400 -19.755200 -31.270100
C -11.838900 -23.774600 -29.227400
H -11.596200 -25.440400 -28.014600
C -11.561700 -20.279000 -30.550400
C -11.469800 -22.416400 -29.353500
C -11.354500 -24.525900 -28.104200
C -10.725800 -19.712600 -29.643000
C -10.620300 -21.819900 -28.389000
C -10.561600 -23.956000 -27.173600
H -10.452200 -18.810000 -29.755200
H -10.260300 -24.471900 -26.434600
C -10.249700 -20.463100 -28.513800
C -10.168000 -22.580800 -27.283400
C -9.451900 -19.929300 -27.491800
C -9.371000 -21.927800 -26.341700
H -9.198500 -19.015500 -27.550200
H -9.056700 -22.424700 -25.594700
N -9.027300 -20.638800 -26.436800
48
Fragment
H -13.124900 -13.816600 -32.094800
N -13.124800 -15.600800 -31.248200
H -12.919700 -17.224200 -30.145900
C -12.785400 -14.312300 -31.358000
C -12.667500 -16.310800 -30.213400
C -11.955000 -13.658700 -30.441700
H -11.892400 -11.758100 -31.270100
C -11.838900 -15.777500 -29.227400
H -11.596200 -17.443300 -28.014600
C -11.561700 -12.281900 -30.550400
C -11.469800 -14.419300 -29.353500
C -11.354500 -16.528800 -28.104200
C -10.725800 -11.715500 -29.643000
C -10.620300 -13.822800 -28.389000
C -10.561600 -15.958900 -27.173600
H -10.452200 -10.812900 -29.755200
H -10.260300 -16.474800 -26.434600
C -10.249700 -12.466000 -28.513800
C -10.168000 -14.583700 -27.283400
C -9.451900 -11.932200 -27.491800
C -9.371000 -13.930700 -26.341700
H -9.198500 -11.018400 -27.550200
H -9.056700 -14.427600 -25.594700
N -9.027300 -12.641700 -26.436800
H -13.124900 -21.813700 -32.094800
N -13.124800 -23.597900 -31.248200
H -12.919700 -25.221300 -30.145900
C -12.785400 -22.309400 -31.358000
C -12.667500 -24.307900 -30.213400
C -11.955000 -21.655800 -30.441700
H -11.892400 -19.755200 -31.270100
C -11.838900 -23.774600 -29.227400
H -11.596200 -25.440400 -28.014600
C -11.561700 -20.279000 -30.550400
C -11.469800 -22.416400 -29.353500
C -11.354500 -24.525900 -28.104200
C -10.725800 -19.712600 -29.643000
C -10.620300 -21.819900 -28.389000
C -10.561600 -23.956000 -27.173600
H -10.452200 -18.810000 -29.755200
H -10.260300 -24.471900 -26.434600
C -10.249700 -20.463100 -28.513800
C -10.168000 -22.580800 -27.283400
C -9.451900 -19.929300 -27.491800
C -9.371000 -21.927800 -26.341700
H -9.198500 -19.015500 -27.550200
H -9.056700 -22.424700 -25.594700
N -9.027300 -20.638800 -26.436800
