24
Fragment
H -13.124900 -13.816600 -32.094800
N -13.124800 -15.600800 -31.248200
H -12.919700 -17.224200 -30.145900
C -12.785400 -14.312300 -31.358000
C -12.667500 -16.310800 -30.213400
C -11.955000 -13.658700 -30.441700
H -11.892400 -11.758100 -31.270100
C -11.838900 -15.777500 -29.227400
H -11.596200 -17.443300 -28.014600
C -11.561700 -12.281900 -30.550400
C -11.469800 -14.419300 -29.353500
C -11.354500 -16.528800 -28.104200
C -10.725800 -11.715500 -29.643000
C -10.620300 -13.822800 -28.389000
C -10.561600 -15.958900 -27.173600
H -10.452200 -10.812900 -29.755200
H -10.260300 -16.474800 -26.434600
C -10.249700 -12.466000 -28.513800
C -10.168000 -14.583700 -27.283400
C -9.451900 -11.932200 -27.491800
C -9.371000 -13.930700 -26.341700
H -9.198500 -11.018400 -27.550200
H -9.056700 -14.427600 -25.594700
N -9.027300 -12.641700 -26.436800
12
Fragment
O -17.168900 -18.465200 -35.804400
C -16.467100 -17.964000 -34.951200
H -16.437800 -19.472900 -33.716100
H -16.270800 -16.186100 -35.788700
N -16.089400 -18.654800 -33.818900
N -16.006800 -16.678000 -35.039100
C -15.244300 -18.160800 -32.853100
C -15.206300 -16.071100 -34.106500
O -14.892000 -18.830100 -31.890200
O -14.843800 -14.914000 -34.195100
N -14.826100 -16.874800 -33.050000
H -14.219700 -16.490000 -32.413900
36
Fragment
H -13.124900 -13.816600 -32.094800
N -13.124800 -15.600800 -31.248200
H -12.919700 -17.224200 -30.145900
C -12.785400 -14.312300 -31.358000
C -12.667500 -16.310800 -30.213400
C -11.955000 -13.658700 -30.441700
H -11.892400 -11.758100 -31.270100
C -11.838900 -15.777500 -29.227400
H -11.596200 -17.443300 -28.014600
C -11.561700 -12.281900 -30.550400
C -11.469800 -14.419300 -29.353500
C -11.354500 -16.528800 -28.104200
C -10.725800 -11.715500 -29.643000
C -10.620300 -13.822800 -28.389000
C -10.561600 -15.958900 -27.173600
H -10.452200 -10.812900 -29.755200
H -10.260300 -16.474800 -26.434600
C -10.249700 -12.466000 -28.513800
C -10.168000 -14.583700 -27.283400
C -9.451900 -11.932200 -27.491800
C -9.371000 -13.930700 -26.341700
H -9.198500 -11.018400 -27.550200
H -9.056700 -14.427600 -25.594700
N -9.027300 -12.641700 -26.436800
O -17.168900 -18.465200 -35.804400
C -16.467100 -17.964000 -34.951200
H -16.437800 -19.472900 -33.716100
H -16.270800 -16.186100 -35.788700
N -16.089400 -18.654800 -33.818900
N -16.006800 -16.678000 -35.039100
C -15.244300 -18.160800 -32.853100
C -15.206300 -16.071100 -34.106500
O -14.892000 -18.830100 -31.890200
O -14.843800 -14.914000 -34.195100
N -14.826100 -16.874800 -33.050000
H -14.219700 -16.490000 -32.413900
