24
Fragment
H -13.124900 -13.816600 -32.094800
N -13.124800 -15.600800 -31.248200
H -12.919700 -17.224200 -30.145900
C -12.785400 -14.312300 -31.358000
C -12.667500 -16.310800 -30.213400
C -11.955000 -13.658700 -30.441700
H -11.892400 -11.758100 -31.270100
C -11.838900 -15.777500 -29.227400
H -11.596200 -17.443300 -28.014600
C -11.561700 -12.281900 -30.550400
C -11.469800 -14.419300 -29.353500
C -11.354500 -16.528800 -28.104200
C -10.725800 -11.715500 -29.643000
C -10.620300 -13.822800 -28.389000
C -10.561600 -15.958900 -27.173600
H -10.452200 -10.812900 -29.755200
H -10.260300 -16.474800 -26.434600
C -10.249700 -12.466000 -28.513800
C -10.168000 -14.583700 -27.283400
C -9.451900 -11.932200 -27.491800
C -9.371000 -13.930700 -26.341700
H -9.198500 -11.018400 -27.550200
H -9.056700 -14.427600 -25.594700
N -9.027300 -12.641700 -26.436800
12
Fragment
H -18.101100 -15.498400 -32.696000
N -17.494800 -15.113600 -32.059900
O -17.477000 -17.074400 -30.914800
O -17.428800 -13.158300 -33.219700
C -17.114600 -15.917300 -31.003400
C -17.076500 -13.827600 -32.256700
N -16.314000 -15.310400 -30.070800
N -16.231500 -13.333600 -31.290900
H -16.050100 -15.802300 -29.321200
H -15.883000 -12.515500 -31.393800
C -15.853700 -14.024400 -30.158700
O -15.151900 -13.523200 -29.305500
36
Fragment
H -13.124900 -13.816600 -32.094800
N -13.124800 -15.600800 -31.248200
H -12.919700 -17.224200 -30.145900
C -12.785400 -14.312300 -31.358000
C -12.667500 -16.310800 -30.213400
C -11.955000 -13.658700 -30.441700
H -11.892400 -11.758100 -31.270100
C -11.838900 -15.777500 -29.227400
H -11.596200 -17.443300 -28.014600
C -11.561700 -12.281900 -30.550400
C -11.469800 -14.419300 -29.353500
C -11.354500 -16.528800 -28.104200
C -10.725800 -11.715500 -29.643000
C -10.620300 -13.822800 -28.389000
C -10.561600 -15.958900 -27.173600
H -10.452200 -10.812900 -29.755200
H -10.260300 -16.474800 -26.434600
C -10.249700 -12.466000 -28.513800
C -10.168000 -14.583700 -27.283400
C -9.451900 -11.932200 -27.491800
C -9.371000 -13.930700 -26.341700
H -9.198500 -11.018400 -27.550200
H -9.056700 -14.427600 -25.594700
N -9.027300 -12.641700 -26.436800
H -18.101100 -15.498400 -32.696000
N -17.494800 -15.113600 -32.059900
O -17.477000 -17.074400 -30.914800
O -17.428800 -13.158300 -33.219700
C -17.114600 -15.917300 -31.003400
C -17.076500 -13.827600 -32.256700
N -16.314000 -15.310400 -30.070800
N -16.231500 -13.333600 -31.290900
H -16.050100 -15.802300 -29.321200
H -15.883000 -12.515500 -31.393800
C -15.853700 -14.024400 -30.158700
O -15.151900 -13.523200 -29.305500
