24
Fragment
H -13.124900 -13.816600 -32.094800
N -13.124800 -15.600800 -31.248200
H -12.919700 -17.224200 -30.145900
C -12.785400 -14.312300 -31.358000
C -12.667500 -16.310800 -30.213400
C -11.955000 -13.658700 -30.441700
H -11.892400 -11.758100 -31.270100
C -11.838900 -15.777500 -29.227400
H -11.596200 -17.443300 -28.014600
C -11.561700 -12.281900 -30.550400
C -11.469800 -14.419300 -29.353500
C -11.354500 -16.528800 -28.104200
C -10.725800 -11.715500 -29.643000
C -10.620300 -13.822800 -28.389000
C -10.561600 -15.958900 -27.173600
H -10.452200 -10.812900 -29.755200
H -10.260300 -16.474800 -26.434600
C -10.249700 -12.466000 -28.513800
C -10.168000 -14.583700 -27.283400
C -9.451900 -11.932200 -27.491800
C -9.371000 -13.930700 -26.341700
H -9.198500 -11.018400 -27.550200
H -9.056700 -14.427600 -25.594700
N -9.027300 -12.641700 -26.436800
24
Fragment
N -6.935000 -16.640200 -27.821500
H -6.905600 -18.426100 -28.663500
H -6.763800 -15.017000 -26.708100
C -6.591300 -17.929300 -27.916500
C -6.510400 -15.930800 -26.766500
C -5.794400 -18.582200 -26.974800
C -5.712600 -16.464500 -25.744400
H -5.702000 -20.473400 -27.823600
H -5.510200 -14.811400 -24.503000
C -5.400700 -19.957500 -27.084600
C -5.342000 -17.821400 -25.869200
C -5.236500 -15.714100 -24.615200
C -4.607900 -20.527400 -26.154000
C -4.492500 -18.417900 -24.904700
C -4.400600 -16.280500 -23.707800
H -4.366100 -21.441800 -26.243600
C -4.123400 -19.776000 -25.030800
H -4.070000 -15.756700 -22.988100
C -4.007300 -17.657300 -23.816500
C -3.294800 -20.309400 -24.044900
C -3.176900 -18.310900 -22.900200
H -3.042600 -21.222700 -24.112400
N -2.837500 -19.599400 -23.010100
H -2.837400 -17.815100 -22.163400
48
Fragment
H -13.124900 -13.816600 -32.094800
N -13.124800 -15.600800 -31.248200
H -12.919700 -17.224200 -30.145900
C -12.785400 -14.312300 -31.358000
C -12.667500 -16.310800 -30.213400
C -11.955000 -13.658700 -30.441700
H -11.892400 -11.758100 -31.270100
C -11.838900 -15.777500 -29.227400
H -11.596200 -17.443300 -28.014600
C -11.561700 -12.281900 -30.550400
C -11.469800 -14.419300 -29.353500
C -11.354500 -16.528800 -28.104200
C -10.725800 -11.715500 -29.643000
C -10.620300 -13.822800 -28.389000
C -10.561600 -15.958900 -27.173600
H -10.452200 -10.812900 -29.755200
H -10.260300 -16.474800 -26.434600
C -10.249700 -12.466000 -28.513800
C -10.168000 -14.583700 -27.283400
C -9.451900 -11.932200 -27.491800
C -9.371000 -13.930700 -26.341700
H -9.198500 -11.018400 -27.550200
H -9.056700 -14.427600 -25.594700
N -9.027300 -12.641700 -26.436800
N -6.935000 -16.640200 -27.821500
H -6.905600 -18.426100 -28.663500
H -6.763800 -15.017000 -26.708100
C -6.591300 -17.929300 -27.916500
C -6.510400 -15.930800 -26.766500
C -5.794400 -18.582200 -26.974800
C -5.712600 -16.464500 -25.744400
H -5.702000 -20.473400 -27.823600
H -5.510200 -14.811400 -24.503000
C -5.400700 -19.957500 -27.084600
C -5.342000 -17.821400 -25.869200
C -5.236500 -15.714100 -24.615200
C -4.607900 -20.527400 -26.154000
C -4.492500 -18.417900 -24.904700
C -4.400600 -16.280500 -23.707800
H -4.366100 -21.441800 -26.243600
C -4.123400 -19.776000 -25.030800
H -4.070000 -15.756700 -22.988100
C -4.007300 -17.657300 -23.816500
C -3.294800 -20.309400 -24.044900
C -3.176900 -18.310900 -22.900200
H -3.042600 -21.222700 -24.112400
N -2.837500 -19.599400 -23.010100
H -2.837400 -17.815100 -22.163400
