24
Fragment
H -13.124900 -13.816600 -32.094800
N -13.124800 -15.600800 -31.248200
H -12.919700 -17.224200 -30.145900
C -12.785400 -14.312300 -31.358000
C -12.667500 -16.310800 -30.213400
C -11.955000 -13.658700 -30.441700
H -11.892400 -11.758100 -31.270100
C -11.838900 -15.777500 -29.227400
H -11.596200 -17.443300 -28.014600
C -11.561700 -12.281900 -30.550400
C -11.469800 -14.419300 -29.353500
C -11.354500 -16.528800 -28.104200
C -10.725800 -11.715500 -29.643000
C -10.620300 -13.822800 -28.389000
C -10.561600 -15.958900 -27.173600
H -10.452200 -10.812900 -29.755200
H -10.260300 -16.474800 -26.434600
C -10.249700 -12.466000 -28.513800
C -10.168000 -14.583700 -27.283400
C -9.451900 -11.932200 -27.491800
C -9.371000 -13.930700 -26.341700
H -9.198500 -11.018400 -27.550200
H -9.056700 -14.427600 -25.594700
N -9.027300 -12.641700 -26.436800
12
Fragment
H -9.971400 -12.491500 -21.844400
N -9.365100 -12.876300 -21.208200
O -9.347300 -10.915500 -20.063200
O -9.299100 -14.831600 -22.368100
C -8.984800 -12.072600 -20.151700
C -8.946800 -14.162200 -21.405100
N -8.184300 -12.679500 -19.219100
N -8.101700 -14.656300 -20.439300
H -7.920300 -12.187600 -18.469500
H -7.753300 -15.474400 -20.542200
C -7.724000 -13.965500 -19.307000
O -7.022200 -14.466700 -18.453900
36
Fragment
H -13.124900 -13.816600 -32.094800
N -13.124800 -15.600800 -31.248200
H -12.919700 -17.224200 -30.145900
C -12.785400 -14.312300 -31.358000
C -12.667500 -16.310800 -30.213400
C -11.955000 -13.658700 -30.441700
H -11.892400 -11.758100 -31.270100
C -11.838900 -15.777500 -29.227400
H -11.596200 -17.443300 -28.014600
C -11.561700 -12.281900 -30.550400
C -11.469800 -14.419300 -29.353500
C -11.354500 -16.528800 -28.104200
C -10.725800 -11.715500 -29.643000
C -10.620300 -13.822800 -28.389000
C -10.561600 -15.958900 -27.173600
H -10.452200 -10.812900 -29.755200
H -10.260300 -16.474800 -26.434600
C -10.249700 -12.466000 -28.513800
C -10.168000 -14.583700 -27.283400
C -9.451900 -11.932200 -27.491800
C -9.371000 -13.930700 -26.341700
H -9.198500 -11.018400 -27.550200
H -9.056700 -14.427600 -25.594700
N -9.027300 -12.641700 -26.436800
H -9.971400 -12.491500 -21.844400
N -9.365100 -12.876300 -21.208200
O -9.347300 -10.915500 -20.063200
O -9.299100 -14.831600 -22.368100
C -8.984800 -12.072600 -20.151700
C -8.946800 -14.162200 -21.405100
N -8.184300 -12.679500 -19.219100
N -8.101700 -14.656300 -20.439300
H -7.920300 -12.187600 -18.469500
H -7.753300 -15.474400 -20.542200
C -7.724000 -13.965500 -19.307000
O -7.022200 -14.466700 -18.453900
