24
Fragment
H -13.124900 -13.816600 -32.094800
N -13.124800 -15.600800 -31.248200
H -12.919700 -17.224200 -30.145900
C -12.785400 -14.312300 -31.358000
C -12.667500 -16.310800 -30.213400
C -11.955000 -13.658700 -30.441700
H -11.892400 -11.758100 -31.270100
C -11.838900 -15.777500 -29.227400
H -11.596200 -17.443300 -28.014600
C -11.561700 -12.281900 -30.550400
C -11.469800 -14.419300 -29.353500
C -11.354500 -16.528800 -28.104200
C -10.725800 -11.715500 -29.643000
C -10.620300 -13.822800 -28.389000
C -10.561600 -15.958900 -27.173600
H -10.452200 -10.812900 -29.755200
H -10.260300 -16.474800 -26.434600
C -10.249700 -12.466000 -28.513800
C -10.168000 -14.583700 -27.283400
C -9.451900 -11.932200 -27.491800
C -9.371000 -13.930700 -26.341700
H -9.198500 -11.018400 -27.550200
H -9.056700 -14.427600 -25.594700
N -9.027300 -12.641700 -26.436800
24
Fragment
N -15.163800 -8.643100 -27.821500
H -15.134400 -10.429000 -28.663500
H -14.992600 -7.019900 -26.708100
C -14.820100 -9.932200 -27.916500
C -14.739200 -7.933700 -26.766500
C -14.023200 -10.585100 -26.974800
C -13.941400 -8.467400 -25.744400
H -13.930800 -12.476300 -27.823600
H -13.739000 -6.814300 -24.503000
C -13.629500 -11.960400 -27.084600
C -13.570800 -9.824300 -25.869200
C -13.465300 -7.717000 -24.615200
C -12.836700 -12.530300 -26.154000
C -12.721300 -10.420800 -24.904700
C -12.629400 -8.283400 -23.707800
H -12.594900 -13.444700 -26.243600
C -12.352200 -11.778900 -25.030800
H -12.298800 -7.759600 -22.988100
C -12.236100 -9.660200 -23.816500
C -11.523600 -12.312300 -24.044900
C -11.405700 -10.313800 -22.900200
H -11.271400 -13.225600 -24.112400
N -11.066300 -11.602300 -23.010100
H -11.066200 -9.818000 -22.163400
48
Fragment
H -13.124900 -13.816600 -32.094800
N -13.124800 -15.600800 -31.248200
H -12.919700 -17.224200 -30.145900
C -12.785400 -14.312300 -31.358000
C -12.667500 -16.310800 -30.213400
C -11.955000 -13.658700 -30.441700
H -11.892400 -11.758100 -31.270100
C -11.838900 -15.777500 -29.227400
H -11.596200 -17.443300 -28.014600
C -11.561700 -12.281900 -30.550400
C -11.469800 -14.419300 -29.353500
C -11.354500 -16.528800 -28.104200
C -10.725800 -11.715500 -29.643000
C -10.620300 -13.822800 -28.389000
C -10.561600 -15.958900 -27.173600
H -10.452200 -10.812900 -29.755200
H -10.260300 -16.474800 -26.434600
C -10.249700 -12.466000 -28.513800
C -10.168000 -14.583700 -27.283400
C -9.451900 -11.932200 -27.491800
C -9.371000 -13.930700 -26.341700
H -9.198500 -11.018400 -27.550200
H -9.056700 -14.427600 -25.594700
N -9.027300 -12.641700 -26.436800
N -15.163800 -8.643100 -27.821500
H -15.134400 -10.429000 -28.663500
H -14.992600 -7.019900 -26.708100
C -14.820100 -9.932200 -27.916500
C -14.739200 -7.933700 -26.766500
C -14.023200 -10.585100 -26.974800
C -13.941400 -8.467400 -25.744400
H -13.930800 -12.476300 -27.823600
H -13.739000 -6.814300 -24.503000
C -13.629500 -11.960400 -27.084600
C -13.570800 -9.824300 -25.869200
C -13.465300 -7.717000 -24.615200
C -12.836700 -12.530300 -26.154000
C -12.721300 -10.420800 -24.904700
C -12.629400 -8.283400 -23.707800
H -12.594900 -13.444700 -26.243600
C -12.352200 -11.778900 -25.030800
H -12.298800 -7.759600 -22.988100
C -12.236100 -9.660200 -23.816500
C -11.523600 -12.312300 -24.044900
C -11.405700 -10.313800 -22.900200
H -11.271400 -13.225600 -24.112400
N -11.066300 -11.602300 -23.010100
H -11.066200 -9.818000 -22.163400
