14
Fragment
H -8.080700 -10.121200 -9.981700
H -7.924900 -14.278500 -11.224000
N -7.902400 -11.914700 -10.728400
C -7.764200 -10.585000 -10.723400
N -7.569200 -13.855400 -11.883000
C -7.447600 -12.524200 -11.835600
H -7.291800 -14.288500 -12.572400
C -7.193900 -9.858500 -11.726900
H -7.115700 -8.932800 -11.680600
N -6.876200 -11.915800 -12.897400
C -6.732900 -10.585400 -12.831500
N -6.151700 -9.973300 -13.869300
H -6.044200 -9.120100 -13.859600
H -5.886300 -10.432600 -14.545500
14
Fragment
H -4.429600 -8.360900 -16.029400
H -4.271800 -9.673400 -16.715300
N -4.164300 -8.820300 -16.705600
C -3.583100 -8.208100 -17.743400
N -3.439800 -6.877700 -17.677500
H -3.200300 -9.860700 -18.894200
C -3.122100 -8.935000 -18.848000
H -3.024200 -4.505100 -18.002500
C -2.868400 -6.269400 -18.739200
N -2.746800 -4.938100 -18.691800
C -2.551800 -8.208600 -19.851400
N -2.413600 -6.878800 -19.846400
H -2.391100 -4.515100 -19.350800
H -2.235300 -8.672300 -20.593200
28
Fragment
H -8.080700 -10.121200 -9.981700
H -7.924900 -14.278500 -11.224000
N -7.902400 -11.914700 -10.728400
C -7.764200 -10.585000 -10.723400
N -7.569200 -13.855400 -11.883000
C -7.447600 -12.524200 -11.835600
H -7.291800 -14.288500 -12.572400
C -7.193900 -9.858500 -11.726900
H -7.115700 -8.932800 -11.680600
N -6.876200 -11.915800 -12.897400
C -6.732900 -10.585400 -12.831500
N -6.151700 -9.973300 -13.869300
H -6.044200 -9.120100 -13.859600
H -5.886300 -10.432600 -14.545500
H -4.429600 -8.360900 -16.029400
H -4.271800 -9.673400 -16.715300
N -4.164300 -8.820300 -16.705600
C -3.583100 -8.208100 -17.743400
N -3.439800 -6.877700 -17.677500
H -3.200300 -9.860700 -18.894200
C -3.122100 -8.935000 -18.848000
H -3.024200 -4.505100 -18.002500
C -2.868400 -6.269400 -18.739200
N -2.746800 -4.938100 -18.691800
C -2.551800 -8.208600 -19.851400
N -2.413600 -6.878800 -19.846400
H -2.391100 -4.515100 -19.350800
H -2.235300 -8.672300 -20.593200
