14
Fragment
H -8.080700 -10.121200 -9.981700
H -7.924900 -14.278500 -11.224000
N -7.902400 -11.914700 -10.728400
C -7.764200 -10.585000 -10.723400
N -7.569200 -13.855400 -11.883000
C -7.447600 -12.524200 -11.835600
H -7.291800 -14.288500 -12.572400
C -7.193900 -9.858500 -11.726900
H -7.115700 -8.932800 -11.680600
N -6.876200 -11.915800 -12.897400
C -6.732900 -10.585400 -12.831500
N -6.151700 -9.973300 -13.869300
H -6.044200 -9.120100 -13.859600
H -5.886300 -10.432600 -14.545500
15
Fragment
O -8.286100 -16.393000 -4.096400
H -7.783700 -14.043500 -4.416000
C -7.693000 -15.856800 -5.035300
N -7.486000 -14.507300 -5.076400
H -7.285400 -17.411900 -6.085400
N -7.201200 -16.556200 -6.080200
C -6.837800 -13.823300 -6.090600
O -6.678900 -12.609300 -5.986000
C -6.571300 -15.946100 -7.133900
C -6.375500 -14.621300 -7.201400
H -6.337000 -13.318900 -8.754600
H -6.265700 -16.475700 -7.834300
C -5.721200 -13.940200 -8.359300
H -5.463300 -14.595600 -9.012500
H -4.942600 -13.469000 -8.054400
29
Fragment
H -8.080700 -10.121200 -9.981700
H -7.924900 -14.278500 -11.224000
N -7.902400 -11.914700 -10.728400
C -7.764200 -10.585000 -10.723400
N -7.569200 -13.855400 -11.883000
C -7.447600 -12.524200 -11.835600
H -7.291800 -14.288500 -12.572400
C -7.193900 -9.858500 -11.726900
H -7.115700 -8.932800 -11.680600
N -6.876200 -11.915800 -12.897400
C -6.732900 -10.585400 -12.831500
N -6.151700 -9.973300 -13.869300
H -6.044200 -9.120100 -13.859600
H -5.886300 -10.432600 -14.545500
O -8.286100 -16.393000 -4.096400
H -7.783700 -14.043500 -4.416000
C -7.693000 -15.856800 -5.035300
N -7.486000 -14.507300 -5.076400
H -7.285400 -17.411900 -6.085400
N -7.201200 -16.556200 -6.080200
C -6.837800 -13.823300 -6.090600
O -6.678900 -12.609300 -5.986000
C -6.571300 -15.946100 -7.133900
C -6.375500 -14.621300 -7.201400
H -6.337000 -13.318900 -8.754600
H -6.265700 -16.475700 -7.834300
C -5.721200 -13.940200 -8.359300
H -5.463300 -14.595600 -9.012500
H -4.942600 -13.469000 -8.054400
