14
Fragment
H -8.080700 -10.121200 -9.981700
H -7.924900 -14.278500 -11.224000
N -7.902400 -11.914700 -10.728400
C -7.764200 -10.585000 -10.723400
N -7.569200 -13.855400 -11.883000
C -7.447600 -12.524200 -11.835600
H -7.291800 -14.288500 -12.572400
C -7.193900 -9.858500 -11.726900
H -7.115700 -8.932800 -11.680600
N -6.876200 -11.915800 -12.897400
C -6.732900 -10.585400 -12.831500
N -6.151700 -9.973300 -13.869300
H -6.044200 -9.120100 -13.859600
H -5.886300 -10.432600 -14.545500
15
Fragment
H -6.933400 -6.416600 -12.328800
H -6.412800 -5.289900 -11.370800
C -6.154800 -5.945300 -12.024000
H -5.610300 -3.409900 -12.548900
H -5.539100 -6.566600 -11.628600
C -5.500500 -5.264200 -13.181800
C -5.304700 -3.939400 -13.249300
O -5.197200 -7.276300 -14.397200
C -5.038200 -6.062300 -14.292600
N -4.674800 -3.329400 -14.303000
H -4.590600 -2.473600 -14.297800
N -4.390100 -5.378300 -15.306800
C -4.183100 -4.028800 -15.348000
H -4.092400 -5.842100 -15.967200
O -3.590000 -3.492600 -16.286800
29
Fragment
H -8.080700 -10.121200 -9.981700
H -7.924900 -14.278500 -11.224000
N -7.902400 -11.914700 -10.728400
C -7.764200 -10.585000 -10.723400
N -7.569200 -13.855400 -11.883000
C -7.447600 -12.524200 -11.835600
H -7.291800 -14.288500 -12.572400
C -7.193900 -9.858500 -11.726900
H -7.115700 -8.932800 -11.680600
N -6.876200 -11.915800 -12.897400
C -6.732900 -10.585400 -12.831500
N -6.151700 -9.973300 -13.869300
H -6.044200 -9.120100 -13.859600
H -5.886300 -10.432600 -14.545500
H -6.933400 -6.416600 -12.328800
H -6.412800 -5.289900 -11.370800
C -6.154800 -5.945300 -12.024000
H -5.610300 -3.409900 -12.548900
H -5.539100 -6.566600 -11.628600
C -5.500500 -5.264200 -13.181800
C -5.304700 -3.939400 -13.249300
O -5.197200 -7.276300 -14.397200
C -5.038200 -6.062300 -14.292600
N -4.674800 -3.329400 -14.303000
H -4.590600 -2.473600 -14.297800
N -4.390100 -5.378300 -15.306800
C -4.183100 -4.028800 -15.348000
H -4.092400 -5.842100 -15.967200
O -3.590000 -3.492600 -16.286800
