14
Fragment
H -8.080700 -10.121200 -9.981700
H -7.924900 -14.278500 -11.224000
N -7.902400 -11.914700 -10.728400
C -7.764200 -10.585000 -10.723400
N -7.569200 -13.855400 -11.883000
C -7.447600 -12.524200 -11.835600
H -7.291800 -14.288500 -12.572400
C -7.193900 -9.858500 -11.726900
H -7.115700 -8.932800 -11.680600
N -6.876200 -11.915800 -12.897400
C -6.732900 -10.585400 -12.831500
N -6.151700 -9.973300 -13.869300
H -6.044200 -9.120100 -13.859600
H -5.886300 -10.432600 -14.545500
14
Fragment
H -10.988400 -16.809500 -5.837800
H -10.830500 -18.122000 -6.523700
N -10.723000 -17.268800 -6.514000
C -10.141900 -16.656700 -7.551800
N -9.998500 -15.326300 -7.485800
H -9.759100 -18.309300 -8.702600
C -9.680800 -17.383600 -8.656400
H -9.582900 -12.953600 -7.810900
C -9.427100 -14.718000 -8.547600
N -9.305600 -13.386700 -8.500200
C -9.110600 -16.657100 -9.659800
N -8.972400 -15.327400 -9.654800
H -8.949900 -12.963700 -9.159200
H -8.794000 -17.120900 -10.401600
28
Fragment
H -8.080700 -10.121200 -9.981700
H -7.924900 -14.278500 -11.224000
N -7.902400 -11.914700 -10.728400
C -7.764200 -10.585000 -10.723400
N -7.569200 -13.855400 -11.883000
C -7.447600 -12.524200 -11.835600
H -7.291800 -14.288500 -12.572400
C -7.193900 -9.858500 -11.726900
H -7.115700 -8.932800 -11.680600
N -6.876200 -11.915800 -12.897400
C -6.732900 -10.585400 -12.831500
N -6.151700 -9.973300 -13.869300
H -6.044200 -9.120100 -13.859600
H -5.886300 -10.432600 -14.545500
H -10.988400 -16.809500 -5.837800
H -10.830500 -18.122000 -6.523700
N -10.723000 -17.268800 -6.514000
C -10.141900 -16.656700 -7.551800
N -9.998500 -15.326300 -7.485800
H -9.759100 -18.309300 -8.702600
C -9.680800 -17.383600 -8.656400
H -9.582900 -12.953600 -7.810900
C -9.427100 -14.718000 -8.547600
N -9.305600 -13.386700 -8.500200
C -9.110600 -16.657100 -9.659800
N -8.972400 -15.327400 -9.654800
H -8.949900 -12.963700 -9.159200
H -8.794000 -17.120900 -10.401600
