8
Fragment
H -11.514500 -14.267800 -20.905500
N -11.121000 -13.394100 -20.848300
H -10.877100 -13.095700 -21.727400
O -10.450300 -13.444300 -18.703900
C -10.268000 -13.025600 -19.887500
H -9.284900 -11.875700 -21.054000
N -9.256000 -12.236700 -20.165100
H -8.597200 -12.934100 -20.124900
14
Fragment
H -12.205300 -18.640700 -18.326400
O -11.489100 -18.222000 -18.809800
O -10.764300 -17.655700 -16.789700
C -10.659000 -17.611200 -18.012200
H -9.918800 -16.111800 -19.275000
C -9.587500 -16.837200 -18.740400
H -9.230200 -17.519700 -19.311500
H -8.994100 -15.452300 -17.219500
C -8.636800 -16.134800 -17.790600
H -8.305500 -16.860200 -17.256000
C -7.565200 -15.360800 -18.518800
O -7.460000 -15.316300 -19.741400
O -6.735200 -14.750000 -17.721200
H -6.019000 -14.331300 -18.204600
22
Fragment
H -11.514500 -14.267800 -20.905500
N -11.121000 -13.394100 -20.848300
H -10.877100 -13.095700 -21.727400
O -10.450300 -13.444300 -18.703900
C -10.268000 -13.025600 -19.887500
H -9.284900 -11.875700 -21.054000
N -9.256000 -12.236700 -20.165100
H -8.597200 -12.934100 -20.124900
H -12.205300 -18.640700 -18.326400
O -11.489100 -18.222000 -18.809800
O -10.764300 -17.655700 -16.789700
C -10.659000 -17.611200 -18.012200
H -9.918800 -16.111800 -19.275000
C -9.587500 -16.837200 -18.740400
H -9.230200 -17.519700 -19.311500
H -8.994100 -15.452300 -17.219500
C -8.636800 -16.134800 -17.790600
H -8.305500 -16.860200 -17.256000
C -7.565200 -15.360800 -18.518800
O -7.460000 -15.316300 -19.741400
O -6.735200 -14.750000 -17.721200
H -6.019000 -14.331300 -18.204600
