8
Fragment
H -8.704000 -12.034800 -23.065500
H -8.242300 -11.935900 -21.690100
N -8.225200 -12.252400 -22.428900
C -7.202200 -13.037100 -22.730800
O -7.033800 -13.443500 -23.906600
H -6.481600 -13.180600 -21.045000
N -6.373900 -13.402300 -21.763100
H -5.709000 -13.980100 -21.945700
8
Fragment
H -11.033400 -10.748900 -26.741400
N -10.368500 -11.326700 -26.924000
H -10.260900 -11.548400 -27.642100
O -9.708600 -11.285500 -24.780500
C -9.540200 -11.691900 -25.956300
N -8.517200 -12.476600 -26.258200
H -8.500100 -12.793100 -26.997000
H -8.038400 -12.694200 -25.621600
16
Fragment
H -8.704000 -12.034800 -23.065500
H -8.242300 -11.935900 -21.690100
N -8.225200 -12.252400 -22.428900
C -7.202200 -13.037100 -22.730800
O -7.033800 -13.443500 -23.906600
H -6.481600 -13.180600 -21.045000
N -6.373900 -13.402300 -21.763100
H -5.709000 -13.980100 -21.945700
H -11.033400 -10.748900 -26.741400
N -10.368500 -11.326700 -26.924000
H -10.260900 -11.548400 -27.642100
O -9.708600 -11.285500 -24.780500
C -9.540200 -11.691900 -25.956300
N -8.517200 -12.476600 -26.258200
H -8.500100 -12.793100 -26.997000
H -8.038400 -12.694200 -25.621600
