8
Fragment
H -11.514500 -14.267800 -20.905500
N -11.121000 -13.394100 -20.848300
H -10.877100 -13.095700 -21.727400
O -10.450300 -13.444300 -18.703900
C -10.268000 -13.025600 -19.887500
H -9.284900 -11.875700 -21.054000
N -9.256000 -12.236700 -20.165100
H -8.597200 -12.934100 -20.124900
8
Fragment
H -17.151500 -14.267800 -20.905500
N -16.758000 -13.394100 -20.848300
H -16.514100 -13.095700 -21.727400
O -16.087300 -13.444300 -18.703900
C -15.905000 -13.025600 -19.887500
H -14.921900 -11.875700 -21.054000
N -14.893000 -12.236700 -20.165100
H -14.234200 -12.934100 -20.124900
16
Fragment
H -11.514500 -14.267800 -20.905500
N -11.121000 -13.394100 -20.848300
H -10.877100 -13.095700 -21.727400
O -10.450300 -13.444300 -18.703900
C -10.268000 -13.025600 -19.887500
H -9.284900 -11.875700 -21.054000
N -9.256000 -12.236700 -20.165100
H -8.597200 -12.934100 -20.124900
H -17.151500 -14.267800 -20.905500
N -16.758000 -13.394100 -20.848300
H -16.514100 -13.095700 -21.727400
O -16.087300 -13.444300 -18.703900
C -15.905000 -13.025600 -19.887500
H -14.921900 -11.875700 -21.054000
N -14.893000 -12.236700 -20.165100
H -14.234200 -12.934100 -20.124900
