36
Fragment
Cl -15.230000 -28.106500 -23.691100
H -14.759600 -30.773600 -23.168200
C -14.300500 -28.933600 -22.470600
C -14.181500 -30.310400 -22.512200
H -13.775800 -27.213700 -21.491500
C -13.671800 -28.185200 -21.481700
C -13.448500 -30.962300 -21.535600
H -13.376100 -31.910200 -21.589400
C -12.943600 -28.839200 -20.529500
C -12.834400 -30.222400 -20.538100
H -12.562100 -28.397500 -19.827000
N -12.083700 -30.771900 -19.468400
N -11.964500 -32.053200 -19.525900
H -11.811100 -35.770300 -19.056000
H -11.782800 -34.633700 -20.181900
H -11.654500 -29.315300 -17.611800
C -11.349600 -35.004700 -19.451300
C -11.269300 -32.613600 -18.511300
H -11.157800 -27.578300 -16.008500
C -11.133800 -29.519000 -16.846800
C -10.934500 -33.962400 -18.459900
C -10.855000 -28.562600 -15.876300
N -10.706600 -31.995300 -17.375600
C -10.652500 -30.792900 -16.635100
H -10.629400 -35.470000 -19.937200
C -10.140100 -28.873500 -14.725800
C -10.134100 -34.179000 -17.324200
C -10.035400 -32.950200 -16.668100
H -9.961300 -28.221600 -14.123700
C -9.919600 -31.095200 -15.489500
C -9.648400 -30.138800 -14.519000
C -9.538500 -35.386400 -16.910500
N -9.538300 -32.427400 -15.532400
H -9.199300 -30.387600 -13.719800
N -9.054900 -36.375000 -16.538400
H -8.971500 -32.810800 -14.992600
36
Fragment
H -17.353800 -31.524200 -21.724000
N -17.270400 -27.960000 -20.178300
H -17.125900 -33.947400 -22.996900
N -16.786900 -31.907600 -21.184300
C -16.786700 -28.948600 -19.806200
C -16.676800 -34.196200 -22.197700
C -16.405700 -33.239800 -21.227100
H -16.363900 -36.113400 -22.593000
C -16.289900 -31.384800 -20.048500
C -16.191100 -30.156000 -19.392500
C -16.185100 -35.461500 -21.990800
H -15.695800 -28.865000 -16.779500
C -15.672700 -33.542100 -20.081600
N -15.618600 -32.339700 -19.341100
C -15.470300 -35.772400 -20.840400
C -15.390800 -30.372600 -18.256800
C -15.191500 -34.816000 -19.869800
H -15.167500 -36.756700 -20.708200
C -15.056000 -31.721400 -18.205400
C -14.975600 -29.330300 -17.265400
H -14.670700 -35.019700 -19.104900
H -14.542400 -29.701300 -16.534700
H -14.514100 -28.564700 -17.660700
N -14.360800 -32.281800 -17.190700
N -14.241500 -33.563100 -17.248300
H -13.763100 -35.937500 -16.889700
C -13.490800 -34.112600 -16.178600
C -13.381600 -35.495800 -16.187200
H -12.949100 -32.424800 -15.127300
C -12.876700 -33.372700 -15.181100
C -12.653500 -36.149800 -15.235000
H -12.549400 -37.121300 -15.225200
C -12.143700 -34.024600 -14.204500
C -12.024700 -35.401400 -14.246100
H -11.565700 -33.561400 -13.548500
Cl -11.095200 -36.228500 -13.025600
72
Fragment
Cl -15.230000 -28.106500 -23.691100
H -14.759600 -30.773600 -23.168200
C -14.300500 -28.933600 -22.470600
C -14.181500 -30.310400 -22.512200
H -13.775800 -27.213700 -21.491500
C -13.671800 -28.185200 -21.481700
C -13.448500 -30.962300 -21.535600
H -13.376100 -31.910200 -21.589400
C -12.943600 -28.839200 -20.529500
C -12.834400 -30.222400 -20.538100
H -12.562100 -28.397500 -19.827000
N -12.083700 -30.771900 -19.468400
N -11.964500 -32.053200 -19.525900
H -11.811100 -35.770300 -19.056000
H -11.782800 -34.633700 -20.181900
H -11.654500 -29.315300 -17.611800
C -11.349600 -35.004700 -19.451300
C -11.269300 -32.613600 -18.511300
H -11.157800 -27.578300 -16.008500
C -11.133800 -29.519000 -16.846800
C -10.934500 -33.962400 -18.459900
C -10.855000 -28.562600 -15.876300
N -10.706600 -31.995300 -17.375600
C -10.652500 -30.792900 -16.635100
H -10.629400 -35.470000 -19.937200
C -10.140100 -28.873500 -14.725800
C -10.134100 -34.179000 -17.324200
C -10.035400 -32.950200 -16.668100
H -9.961300 -28.221600 -14.123700
C -9.919600 -31.095200 -15.489500
C -9.648400 -30.138800 -14.519000
C -9.538500 -35.386400 -16.910500
N -9.538300 -32.427400 -15.532400
H -9.199300 -30.387600 -13.719800
N -9.054900 -36.375000 -16.538400
H -8.971500 -32.810800 -14.992600
H -17.353800 -31.524200 -21.724000
N -17.270400 -27.960000 -20.178300
H -17.125900 -33.947400 -22.996900
N -16.786900 -31.907600 -21.184300
C -16.786700 -28.948600 -19.806200
C -16.676800 -34.196200 -22.197700
C -16.405700 -33.239800 -21.227100
H -16.363900 -36.113400 -22.593000
C -16.289900 -31.384800 -20.048500
C -16.191100 -30.156000 -19.392500
C -16.185100 -35.461500 -21.990800
H -15.695800 -28.865000 -16.779500
C -15.672700 -33.542100 -20.081600
N -15.618600 -32.339700 -19.341100
C -15.470300 -35.772400 -20.840400
C -15.390800 -30.372600 -18.256800
C -15.191500 -34.816000 -19.869800
H -15.167500 -36.756700 -20.708200
C -15.056000 -31.721400 -18.205400
C -14.975600 -29.330300 -17.265400
H -14.670700 -35.019700 -19.104900
H -14.542400 -29.701300 -16.534700
H -14.514100 -28.564700 -17.660700
N -14.360800 -32.281800 -17.190700
N -14.241500 -33.563100 -17.248300
H -13.763100 -35.937500 -16.889700
C -13.490800 -34.112600 -16.178600
C -13.381600 -35.495800 -16.187200
H -12.949100 -32.424800 -15.127300
C -12.876700 -33.372700 -15.181100
C -12.653500 -36.149800 -15.235000
H -12.549400 -37.121300 -15.225200
C -12.143700 -34.024600 -14.204500
C -12.024700 -35.401400 -14.246100
H -11.565700 -33.561400 -13.548500
Cl -11.095200 -36.228500 -13.025600
