36
Fragment
Cl -15.230000 -28.106500 -23.691100
H -14.759600 -30.773600 -23.168200
C -14.300500 -28.933600 -22.470600
C -14.181500 -30.310400 -22.512200
H -13.775800 -27.213700 -21.491500
C -13.671800 -28.185200 -21.481700
C -13.448500 -30.962300 -21.535600
H -13.376100 -31.910200 -21.589400
C -12.943600 -28.839200 -20.529500
C -12.834400 -30.222400 -20.538100
H -12.562100 -28.397500 -19.827000
N -12.083700 -30.771900 -19.468400
N -11.964500 -32.053200 -19.525900
H -11.811100 -35.770300 -19.056000
H -11.782800 -34.633700 -20.181900
H -11.654500 -29.315300 -17.611800
C -11.349600 -35.004700 -19.451300
C -11.269300 -32.613600 -18.511300
H -11.157800 -27.578300 -16.008500
C -11.133800 -29.519000 -16.846800
C -10.934500 -33.962400 -18.459900
C -10.855000 -28.562600 -15.876300
N -10.706600 -31.995300 -17.375600
C -10.652500 -30.792900 -16.635100
H -10.629400 -35.470000 -19.937200
C -10.140100 -28.873500 -14.725800
C -10.134100 -34.179000 -17.324200
C -10.035400 -32.950200 -16.668100
H -9.961300 -28.221600 -14.123700
C -9.919600 -31.095200 -15.489500
C -9.648400 -30.138800 -14.519000
C -9.538500 -35.386400 -16.910500
N -9.538300 -32.427400 -15.532400
H -9.199300 -30.387600 -13.719800
N -9.054900 -36.375000 -16.538400
H -8.971500 -32.810800 -14.992600
12
Fragment
H -14.594800 -35.298500 -26.105600
O -14.413600 -33.382100 -25.660100
C -14.184500 -34.573600 -25.455700
H -13.951100 -36.799600 -23.241700
H -13.772500 -37.035500 -24.955100
N -13.548400 -35.055300 -24.410500
H -13.508500 -34.290600 -22.507300
C -13.400300 -36.473700 -24.211000
C -13.039000 -34.146900 -23.389700
H -12.984800 -33.175400 -23.767900
H -12.444500 -36.735300 -24.098400
H -12.196500 -34.483600 -23.192700
48
Fragment
Cl -15.230000 -28.106500 -23.691100
H -14.759600 -30.773600 -23.168200
C -14.300500 -28.933600 -22.470600
C -14.181500 -30.310400 -22.512200
H -13.775800 -27.213700 -21.491500
C -13.671800 -28.185200 -21.481700
C -13.448500 -30.962300 -21.535600
H -13.376100 -31.910200 -21.589400
C -12.943600 -28.839200 -20.529500
C -12.834400 -30.222400 -20.538100
H -12.562100 -28.397500 -19.827000
N -12.083700 -30.771900 -19.468400
N -11.964500 -32.053200 -19.525900
H -11.811100 -35.770300 -19.056000
H -11.782800 -34.633700 -20.181900
H -11.654500 -29.315300 -17.611800
C -11.349600 -35.004700 -19.451300
C -11.269300 -32.613600 -18.511300
H -11.157800 -27.578300 -16.008500
C -11.133800 -29.519000 -16.846800
C -10.934500 -33.962400 -18.459900
C -10.855000 -28.562600 -15.876300
N -10.706600 -31.995300 -17.375600
C -10.652500 -30.792900 -16.635100
H -10.629400 -35.470000 -19.937200
C -10.140100 -28.873500 -14.725800
C -10.134100 -34.179000 -17.324200
C -10.035400 -32.950200 -16.668100
H -9.961300 -28.221600 -14.123700
C -9.919600 -31.095200 -15.489500
C -9.648400 -30.138800 -14.519000
C -9.538500 -35.386400 -16.910500
N -9.538300 -32.427400 -15.532400
H -9.199300 -30.387600 -13.719800
N -9.054900 -36.375000 -16.538400
H -8.971500 -32.810800 -14.992600
H -14.594800 -35.298500 -26.105600
O -14.413600 -33.382100 -25.660100
C -14.184500 -34.573600 -25.455700
H -13.951100 -36.799600 -23.241700
H -13.772500 -37.035500 -24.955100
N -13.548400 -35.055300 -24.410500
H -13.508500 -34.290600 -22.507300
C -13.400300 -36.473700 -24.211000
C -13.039000 -34.146900 -23.389700
H -12.984800 -33.175400 -23.767900
H -12.444500 -36.735300 -24.098400
H -12.196500 -34.483600 -23.192700
