36
Fragment
Cl -15.230000 -28.106500 -23.691100
H -14.759600 -30.773600 -23.168200
C -14.300500 -28.933600 -22.470600
C -14.181500 -30.310400 -22.512200
H -13.775800 -27.213700 -21.491500
C -13.671800 -28.185200 -21.481700
C -13.448500 -30.962300 -21.535600
H -13.376100 -31.910200 -21.589400
C -12.943600 -28.839200 -20.529500
C -12.834400 -30.222400 -20.538100
H -12.562100 -28.397500 -19.827000
N -12.083700 -30.771900 -19.468400
N -11.964500 -32.053200 -19.525900
H -11.811100 -35.770300 -19.056000
H -11.782800 -34.633700 -20.181900
H -11.654500 -29.315300 -17.611800
C -11.349600 -35.004700 -19.451300
C -11.269300 -32.613600 -18.511300
H -11.157800 -27.578300 -16.008500
C -11.133800 -29.519000 -16.846800
C -10.934500 -33.962400 -18.459900
C -10.855000 -28.562600 -15.876300
N -10.706600 -31.995300 -17.375600
C -10.652500 -30.792900 -16.635100
H -10.629400 -35.470000 -19.937200
C -10.140100 -28.873500 -14.725800
C -10.134100 -34.179000 -17.324200
C -10.035400 -32.950200 -16.668100
H -9.961300 -28.221600 -14.123700
C -9.919600 -31.095200 -15.489500
C -9.648400 -30.138800 -14.519000
C -9.538500 -35.386400 -16.910500
N -9.538300 -32.427400 -15.532400
H -9.199300 -30.387600 -13.719800
N -9.054900 -36.375000 -16.538400
H -8.971500 -32.810800 -14.992600
36
Fragment
H -16.661300 -22.088400 -27.843500
N -16.577900 -25.652500 -26.297700
H -16.433400 -19.665100 -29.116300
N -16.094500 -21.704900 -27.303700
C -16.094200 -24.663900 -25.925600
C -15.984400 -19.416300 -28.317100
C -15.713200 -20.372800 -27.346600
H -15.671400 -17.499100 -28.712400
C -15.597400 -22.227700 -26.168000
C -15.498700 -23.456500 -25.512000
C -15.492700 -18.151000 -28.110300
H -15.003400 -24.747500 -22.899000
C -14.980300 -20.070400 -26.201000
N -14.926100 -21.272800 -25.460600
C -14.777800 -17.840100 -26.959800
C -14.698300 -23.239900 -24.376200
C -14.499000 -18.796500 -25.989300
H -14.475000 -16.855800 -26.827700
C -14.363500 -21.891100 -24.324800
C -14.283200 -24.282200 -23.384900
H -13.978200 -18.592800 -25.224400
H -13.850000 -23.911200 -22.654200
H -13.821600 -25.047800 -23.780200
N -13.668300 -21.330700 -23.310200
N -13.549000 -20.049400 -23.367700
H -13.070700 -17.675000 -23.009100
C -12.798300 -19.499900 -22.298000
C -12.689200 -18.116700 -22.306600
H -12.256600 -21.187700 -21.246700
C -12.184300 -20.239800 -21.300600
C -11.961000 -17.462700 -21.354400
H -11.856900 -16.491200 -21.344600
C -11.451200 -19.587900 -20.323900
C -11.332200 -18.211100 -20.365500
H -10.873200 -20.051100 -19.667900
Cl -10.402800 -17.384000 -19.145100
72
Fragment
Cl -15.230000 -28.106500 -23.691100
H -14.759600 -30.773600 -23.168200
C -14.300500 -28.933600 -22.470600
C -14.181500 -30.310400 -22.512200
H -13.775800 -27.213700 -21.491500
C -13.671800 -28.185200 -21.481700
C -13.448500 -30.962300 -21.535600
H -13.376100 -31.910200 -21.589400
C -12.943600 -28.839200 -20.529500
C -12.834400 -30.222400 -20.538100
H -12.562100 -28.397500 -19.827000
N -12.083700 -30.771900 -19.468400
N -11.964500 -32.053200 -19.525900
H -11.811100 -35.770300 -19.056000
H -11.782800 -34.633700 -20.181900
H -11.654500 -29.315300 -17.611800
C -11.349600 -35.004700 -19.451300
C -11.269300 -32.613600 -18.511300
H -11.157800 -27.578300 -16.008500
C -11.133800 -29.519000 -16.846800
C -10.934500 -33.962400 -18.459900
C -10.855000 -28.562600 -15.876300
N -10.706600 -31.995300 -17.375600
C -10.652500 -30.792900 -16.635100
H -10.629400 -35.470000 -19.937200
C -10.140100 -28.873500 -14.725800
C -10.134100 -34.179000 -17.324200
C -10.035400 -32.950200 -16.668100
H -9.961300 -28.221600 -14.123700
C -9.919600 -31.095200 -15.489500
C -9.648400 -30.138800 -14.519000
C -9.538500 -35.386400 -16.910500
N -9.538300 -32.427400 -15.532400
H -9.199300 -30.387600 -13.719800
N -9.054900 -36.375000 -16.538400
H -8.971500 -32.810800 -14.992600
H -16.661300 -22.088400 -27.843500
N -16.577900 -25.652500 -26.297700
H -16.433400 -19.665100 -29.116300
N -16.094500 -21.704900 -27.303700
C -16.094200 -24.663900 -25.925600
C -15.984400 -19.416300 -28.317100
C -15.713200 -20.372800 -27.346600
H -15.671400 -17.499100 -28.712400
C -15.597400 -22.227700 -26.168000
C -15.498700 -23.456500 -25.512000
C -15.492700 -18.151000 -28.110300
H -15.003400 -24.747500 -22.899000
C -14.980300 -20.070400 -26.201000
N -14.926100 -21.272800 -25.460600
C -14.777800 -17.840100 -26.959800
C -14.698300 -23.239900 -24.376200
C -14.499000 -18.796500 -25.989300
H -14.475000 -16.855800 -26.827700
C -14.363500 -21.891100 -24.324800
C -14.283200 -24.282200 -23.384900
H -13.978200 -18.592800 -25.224400
H -13.850000 -23.911200 -22.654200
H -13.821600 -25.047800 -23.780200
N -13.668300 -21.330700 -23.310200
N -13.549000 -20.049400 -23.367700
H -13.070700 -17.675000 -23.009100
C -12.798300 -19.499900 -22.298000
C -12.689200 -18.116700 -22.306600
H -12.256600 -21.187700 -21.246700
C -12.184300 -20.239800 -21.300600
C -11.961000 -17.462700 -21.354400
H -11.856900 -16.491200 -21.344600
C -11.451200 -19.587900 -20.323900
C -11.332200 -18.211100 -20.365500
H -10.873200 -20.051100 -19.667900
Cl -10.402800 -17.384000 -19.145100
