25
Fragment
O -3.716900 -22.653800 -13.064200
H -3.610500 -27.486200 -20.137700
C -3.575500 -23.492800 -13.963800
C -3.551600 -27.738300 -19.244500
H -3.542600 -29.721700 -19.530700
N -3.532800 -25.402900 -18.257600
H -3.528000 -20.891800 -15.036500
C -3.519500 -22.980500 -15.366400
N -3.518500 -21.637400 -15.611800
C -3.509300 -29.063700 -18.875300
C -3.504000 -26.793900 -18.229000
C -3.496400 -23.562000 -16.619900
O -3.492000 -24.746000 -13.799400
C -3.485100 -24.961400 -16.993500
C -3.479700 -21.462500 -16.943000
N -3.476400 -22.598100 -17.598000
H -3.458400 -20.629500 -17.354800
C -3.431900 -27.167800 -16.884700
C -3.417800 -29.438700 -17.520900
H -3.416100 -25.112100 -14.529300
N -3.414900 -25.994100 -16.163100
H -3.397000 -30.342000 -17.303200
C -3.358600 -28.514000 -16.514400
H -3.353500 -25.943600 -15.440500
H -3.274300 -28.769700 -15.624500
25
Fragment
H -7.088200 -20.725200 -18.039300
H -7.009000 -23.551300 -18.223400
C -7.003800 -20.980900 -17.149500
H -6.965500 -19.152900 -16.360600
N -6.947500 -23.500800 -17.500700
H -6.946400 -24.382800 -19.134500
C -6.944700 -20.056200 -16.142900
C -6.930600 -22.327100 -16.779200
H -6.904100 -28.865400 -16.309000
N -6.886100 -26.896800 -16.065900
C -6.882800 -28.032400 -16.720800
C -6.877400 -24.533500 -16.670300
O -6.870500 -24.748900 -19.864500
C -6.866100 -25.932900 -17.044000
C -6.858500 -22.701000 -15.434900
C -6.853200 -20.431200 -14.788500
N -6.844000 -27.857500 -18.052000
C -6.842900 -26.514400 -18.297400
H -6.834400 -28.603100 -18.627300
N -6.829700 -24.092000 -15.406300
H -6.819900 -19.773200 -14.133200
C -6.810800 -21.756600 -14.419400
C -6.786900 -26.002100 -19.700100
H -6.751900 -22.008700 -13.526100
O -6.645600 -26.841100 -20.599700
50
Fragment
O -3.716900 -22.653800 -13.064200
H -3.610500 -27.486200 -20.137700
C -3.575500 -23.492800 -13.963800
C -3.551600 -27.738300 -19.244500
H -3.542600 -29.721700 -19.530700
N -3.532800 -25.402900 -18.257600
H -3.528000 -20.891800 -15.036500
C -3.519500 -22.980500 -15.366400
N -3.518500 -21.637400 -15.611800
C -3.509300 -29.063700 -18.875300
C -3.504000 -26.793900 -18.229000
C -3.496400 -23.562000 -16.619900
O -3.492000 -24.746000 -13.799400
C -3.485100 -24.961400 -16.993500
C -3.479700 -21.462500 -16.943000
N -3.476400 -22.598100 -17.598000
H -3.458400 -20.629500 -17.354800
C -3.431900 -27.167800 -16.884700
C -3.417800 -29.438700 -17.520900
H -3.416100 -25.112100 -14.529300
N -3.414900 -25.994100 -16.163100
H -3.397000 -30.342000 -17.303200
C -3.358600 -28.514000 -16.514400
H -3.353500 -25.943600 -15.440500
H -3.274300 -28.769700 -15.624500
H -7.088200 -20.725200 -18.039300
H -7.009000 -23.551300 -18.223400
C -7.003800 -20.980900 -17.149500
H -6.965500 -19.152900 -16.360600
N -6.947500 -23.500800 -17.500700
H -6.946400 -24.382800 -19.134500
C -6.944700 -20.056200 -16.142900
C -6.930600 -22.327100 -16.779200
H -6.904100 -28.865400 -16.309000
N -6.886100 -26.896800 -16.065900
C -6.882800 -28.032400 -16.720800
C -6.877400 -24.533500 -16.670300
O -6.870500 -24.748900 -19.864500
C -6.866100 -25.932900 -17.044000
C -6.858500 -22.701000 -15.434900
C -6.853200 -20.431200 -14.788500
N -6.844000 -27.857500 -18.052000
C -6.842900 -26.514400 -18.297400
H -6.834400 -28.603100 -18.627300
N -6.829700 -24.092000 -15.406300
H -6.819900 -19.773200 -14.133200
C -6.810800 -21.756600 -14.419400
C -6.786900 -26.002100 -19.700100
H -6.751900 -22.008700 -13.526100
O -6.645600 -26.841100 -20.599700
