25
Fragment
O -3.716900 -22.653800 -13.064200
H -3.610500 -27.486200 -20.137700
C -3.575500 -23.492800 -13.963800
C -3.551600 -27.738300 -19.244500
H -3.542600 -29.721700 -19.530700
N -3.532800 -25.402900 -18.257600
H -3.528000 -20.891800 -15.036500
C -3.519500 -22.980500 -15.366400
N -3.518500 -21.637400 -15.611800
C -3.509300 -29.063700 -18.875300
C -3.504000 -26.793900 -18.229000
C -3.496400 -23.562000 -16.619900
O -3.492000 -24.746000 -13.799400
C -3.485100 -24.961400 -16.993500
C -3.479700 -21.462500 -16.943000
N -3.476400 -22.598100 -17.598000
H -3.458400 -20.629500 -17.354800
C -3.431900 -27.167800 -16.884700
C -3.417800 -29.438700 -17.520900
H -3.416100 -25.112100 -14.529300
N -3.414900 -25.994100 -16.163100
H -3.397000 -30.342000 -17.303200
C -3.358600 -28.514000 -16.514400
H -3.353500 -25.943600 -15.440500
H -3.274300 -28.769700 -15.624500
3
Fragment
H -1.888200 -26.923600 -13.196200
O -1.819000 -27.520300 -13.835200
H -1.129600 -27.238700 -14.307100
28
Fragment
O -3.716900 -22.653800 -13.064200
H -3.610500 -27.486200 -20.137700
C -3.575500 -23.492800 -13.963800
C -3.551600 -27.738300 -19.244500
H -3.542600 -29.721700 -19.530700
N -3.532800 -25.402900 -18.257600
H -3.528000 -20.891800 -15.036500
C -3.519500 -22.980500 -15.366400
N -3.518500 -21.637400 -15.611800
C -3.509300 -29.063700 -18.875300
C -3.504000 -26.793900 -18.229000
C -3.496400 -23.562000 -16.619900
O -3.492000 -24.746000 -13.799400
C -3.485100 -24.961400 -16.993500
C -3.479700 -21.462500 -16.943000
N -3.476400 -22.598100 -17.598000
H -3.458400 -20.629500 -17.354800
C -3.431900 -27.167800 -16.884700
C -3.417800 -29.438700 -17.520900
H -3.416100 -25.112100 -14.529300
N -3.414900 -25.994100 -16.163100
H -3.397000 -30.342000 -17.303200
C -3.358600 -28.514000 -16.514400
H -3.353500 -25.943600 -15.440500
H -3.274300 -28.769700 -15.624500
H -1.888200 -26.923600 -13.196200
O -1.819000 -27.520300 -13.835200
H -1.129600 -27.238700 -14.307100
