25
Fragment
O -3.716900 -22.653800 -13.064200
H -3.610500 -27.486200 -20.137700
C -3.575500 -23.492800 -13.963800
C -3.551600 -27.738300 -19.244500
H -3.542600 -29.721700 -19.530700
N -3.532800 -25.402900 -18.257600
H -3.528000 -20.891800 -15.036500
C -3.519500 -22.980500 -15.366400
N -3.518500 -21.637400 -15.611800
C -3.509300 -29.063700 -18.875300
C -3.504000 -26.793900 -18.229000
C -3.496400 -23.562000 -16.619900
O -3.492000 -24.746000 -13.799400
C -3.485100 -24.961400 -16.993500
C -3.479700 -21.462500 -16.943000
N -3.476400 -22.598100 -17.598000
H -3.458400 -20.629500 -17.354800
C -3.431900 -27.167800 -16.884700
C -3.417800 -29.438700 -17.520900
H -3.416100 -25.112100 -14.529300
N -3.414900 -25.994100 -16.163100
H -3.397000 -30.342000 -17.303200
C -3.358600 -28.514000 -16.514400
H -3.353500 -25.943600 -15.440500
H -3.274300 -28.769700 -15.624500
25
Fragment
O -2.047300 -18.591900 -18.674800
H -1.940900 -13.759600 -25.748400
C -1.905900 -17.753000 -19.574400
C -1.882000 -13.507500 -24.855200
H -1.872900 -11.524100 -25.141300
N -1.863200 -15.842800 -23.868200
H -1.858400 -20.354000 -20.647200
C -1.849900 -18.265300 -20.977100
N -1.848900 -19.608400 -21.222500
C -1.839700 -12.182000 -24.486000
C -1.834300 -14.451900 -23.839600
C -1.826800 -17.683700 -22.230500
O -1.822400 -16.499800 -19.410000
C -1.815500 -16.284300 -22.604200
C -1.810100 -19.783300 -22.553700
N -1.806800 -18.647700 -23.208700
H -1.788800 -20.616300 -22.965500
C -1.762200 -14.078000 -22.495300
C -1.748200 -11.807000 -23.131600
H -1.746400 -16.133700 -20.140000
N -1.745300 -15.251700 -21.773800
H -1.727400 -10.903700 -22.913900
C -1.689000 -12.731700 -22.125000
H -1.683900 -15.302200 -21.051100
H -1.604600 -12.476000 -21.235200
50
Fragment
O -3.716900 -22.653800 -13.064200
H -3.610500 -27.486200 -20.137700
C -3.575500 -23.492800 -13.963800
C -3.551600 -27.738300 -19.244500
H -3.542600 -29.721700 -19.530700
N -3.532800 -25.402900 -18.257600
H -3.528000 -20.891800 -15.036500
C -3.519500 -22.980500 -15.366400
N -3.518500 -21.637400 -15.611800
C -3.509300 -29.063700 -18.875300
C -3.504000 -26.793900 -18.229000
C -3.496400 -23.562000 -16.619900
O -3.492000 -24.746000 -13.799400
C -3.485100 -24.961400 -16.993500
C -3.479700 -21.462500 -16.943000
N -3.476400 -22.598100 -17.598000
H -3.458400 -20.629500 -17.354800
C -3.431900 -27.167800 -16.884700
C -3.417800 -29.438700 -17.520900
H -3.416100 -25.112100 -14.529300
N -3.414900 -25.994100 -16.163100
H -3.397000 -30.342000 -17.303200
C -3.358600 -28.514000 -16.514400
H -3.353500 -25.943600 -15.440500
H -3.274300 -28.769700 -15.624500
O -2.047300 -18.591900 -18.674800
H -1.940900 -13.759600 -25.748400
C -1.905900 -17.753000 -19.574400
C -1.882000 -13.507500 -24.855200
H -1.872900 -11.524100 -25.141300
N -1.863200 -15.842800 -23.868200
H -1.858400 -20.354000 -20.647200
C -1.849900 -18.265300 -20.977100
N -1.848900 -19.608400 -21.222500
C -1.839700 -12.182000 -24.486000
C -1.834300 -14.451900 -23.839600
C -1.826800 -17.683700 -22.230500
O -1.822400 -16.499800 -19.410000
C -1.815500 -16.284300 -22.604200
C -1.810100 -19.783300 -22.553700
N -1.806800 -18.647700 -23.208700
H -1.788800 -20.616300 -22.965500
C -1.762200 -14.078000 -22.495300
C -1.748200 -11.807000 -23.131600
H -1.746400 -16.133700 -20.140000
N -1.745300 -15.251700 -21.773800
H -1.727400 -10.903700 -22.913900
C -1.689000 -12.731700 -22.125000
H -1.683900 -15.302200 -21.051100
H -1.604600 -12.476000 -21.235200
