25
Fragment
O -15.119500 -29.918600 -23.704800
Br -14.880200 -23.209500 -20.010200
N -14.270600 -27.627300 -22.504200
N -13.913300 -29.795200 -23.577000
N -13.810000 -25.561500 -21.398500
C -13.433600 -28.587100 -22.919500
C -13.403400 -26.761200 -21.991100
C -13.102600 -23.639200 -20.489900
O -13.077000 -30.602000 -23.946400
H -12.946700 -21.558800 -19.118600
N -12.812500 -24.816800 -21.150700
N -12.239400 -21.775200 -19.543900
N -12.140500 -28.418900 -22.706800
N -12.140300 -27.213700 -22.099500
N -12.077500 -22.900600 -20.237100
H -11.393800 -26.872500 -21.785000
N -11.142900 -19.785200 -18.855000
C -11.112300 -21.021700 -19.331000
O -10.210800 -17.382700 -18.067300
N -9.858200 -21.403800 -19.629300
C -9.829800 -19.477400 -18.891700
H -9.550400 -22.206700 -19.855100
N -9.364300 -18.167500 -18.465000
N -9.000000 -20.383600 -19.341400
O -8.162800 -17.937900 -18.531200
25
Fragment
O -10.909900 -22.455700 -16.427700
Br -10.670700 -29.164900 -12.733000
N -10.061100 -24.747000 -15.227100
N -9.703800 -22.579200 -16.299900
N -9.600400 -26.812800 -14.121400
C -9.224100 -23.787200 -15.642300
C -9.193800 -25.613200 -14.713900
C -8.893000 -28.735100 -13.212700
O -8.867500 -21.772300 -16.669300
H -8.737200 -30.815600 -11.841400
N -8.603000 -27.557600 -13.873500
N -8.029800 -30.599200 -12.266700
N -7.930900 -23.955400 -15.429700
N -7.930700 -25.160600 -14.822300
N -7.867900 -29.473700 -12.959900
H -7.184300 -25.501800 -14.507800
N -6.933400 -32.589100 -11.577800
C -6.902800 -31.352600 -12.053800
O -6.001200 -34.991600 -10.790200
N -5.648600 -30.970600 -12.352100
C -5.620200 -32.896900 -11.614500
H -5.340900 -30.167600 -12.577900
N -5.154700 -34.206900 -11.187800
N -4.790400 -31.990700 -12.064300
O -3.953300 -34.436400 -11.254000
50
Fragment
O -15.119500 -29.918600 -23.704800
Br -14.880200 -23.209500 -20.010200
N -14.270600 -27.627300 -22.504200
N -13.913300 -29.795200 -23.577000
N -13.810000 -25.561500 -21.398500
C -13.433600 -28.587100 -22.919500
C -13.403400 -26.761200 -21.991100
C -13.102600 -23.639200 -20.489900
O -13.077000 -30.602000 -23.946400
H -12.946700 -21.558800 -19.118600
N -12.812500 -24.816800 -21.150700
N -12.239400 -21.775200 -19.543900
N -12.140500 -28.418900 -22.706800
N -12.140300 -27.213700 -22.099500
N -12.077500 -22.900600 -20.237100
H -11.393800 -26.872500 -21.785000
N -11.142900 -19.785200 -18.855000
C -11.112300 -21.021700 -19.331000
O -10.210800 -17.382700 -18.067300
N -9.858200 -21.403800 -19.629300
C -9.829800 -19.477400 -18.891700
H -9.550400 -22.206700 -19.855100
N -9.364300 -18.167500 -18.465000
N -9.000000 -20.383600 -19.341400
O -8.162800 -17.937900 -18.531200
O -10.909900 -22.455700 -16.427700
Br -10.670700 -29.164900 -12.733000
N -10.061100 -24.747000 -15.227100
N -9.703800 -22.579200 -16.299900
N -9.600400 -26.812800 -14.121400
C -9.224100 -23.787200 -15.642300
C -9.193800 -25.613200 -14.713900
C -8.893000 -28.735100 -13.212700
O -8.867500 -21.772300 -16.669300
H -8.737200 -30.815600 -11.841400
N -8.603000 -27.557600 -13.873500
N -8.029800 -30.599200 -12.266700
N -7.930900 -23.955400 -15.429700
N -7.930700 -25.160600 -14.822300
N -7.867900 -29.473700 -12.959900
H -7.184300 -25.501800 -14.507800
N -6.933400 -32.589100 -11.577800
C -6.902800 -31.352600 -12.053800
O -6.001200 -34.991600 -10.790200
N -5.648600 -30.970600 -12.352100
C -5.620200 -32.896900 -11.614500
H -5.340900 -30.167600 -12.577900
N -5.154700 -34.206900 -11.187800
N -4.790400 -31.990700 -12.064300
O -3.953300 -34.436400 -11.254000
