25
Fragment
O -15.119500 -29.918600 -23.704800
Br -14.880200 -23.209500 -20.010200
N -14.270600 -27.627300 -22.504200
N -13.913300 -29.795200 -23.577000
N -13.810000 -25.561500 -21.398500
C -13.433600 -28.587100 -22.919500
C -13.403400 -26.761200 -21.991100
C -13.102600 -23.639200 -20.489900
O -13.077000 -30.602000 -23.946400
H -12.946700 -21.558800 -19.118600
N -12.812500 -24.816800 -21.150700
N -12.239400 -21.775200 -19.543900
N -12.140500 -28.418900 -22.706800
N -12.140300 -27.213700 -22.099500
N -12.077500 -22.900600 -20.237100
H -11.393800 -26.872500 -21.785000
N -11.142900 -19.785200 -18.855000
C -11.112300 -21.021700 -19.331000
O -10.210800 -17.382700 -18.067300
N -9.858200 -21.403800 -19.629300
C -9.829800 -19.477400 -18.891700
H -9.550400 -22.206700 -19.855100
N -9.364300 -18.167500 -18.465000
N -9.000000 -20.383600 -19.341400
O -8.162800 -17.937900 -18.531200
25
Fragment
O -19.329000 -22.455700 -30.982000
Br -19.089800 -29.164900 -27.287400
N -18.480200 -24.747000 -29.781400
N -18.122900 -22.579200 -30.854200
N -18.019600 -26.812800 -28.675700
C -17.643200 -23.787200 -30.196700
C -17.612900 -25.613200 -29.268200
C -17.312200 -28.735100 -27.767100
O -17.286600 -21.772300 -31.223600
H -17.156300 -30.815600 -26.395800
N -17.022100 -27.557600 -28.427900
N -16.448900 -30.599200 -26.821100
N -16.350000 -23.955400 -29.984000
N -16.349800 -25.160600 -29.376700
N -16.287000 -29.473700 -27.514300
H -15.603400 -25.501800 -29.062100
N -15.352500 -32.589100 -26.132200
C -15.321900 -31.352600 -26.608100
O -14.420400 -34.991600 -25.344500
N -14.067700 -30.970600 -26.906500
C -14.039300 -32.896900 -26.168900
H -13.760000 -30.167600 -27.132200
N -13.573800 -34.206900 -25.742100
N -13.209500 -31.990700 -26.618600
O -12.372400 -34.436400 -25.808400
50
Fragment
O -15.119500 -29.918600 -23.704800
Br -14.880200 -23.209500 -20.010200
N -14.270600 -27.627300 -22.504200
N -13.913300 -29.795200 -23.577000
N -13.810000 -25.561500 -21.398500
C -13.433600 -28.587100 -22.919500
C -13.403400 -26.761200 -21.991100
C -13.102600 -23.639200 -20.489900
O -13.077000 -30.602000 -23.946400
H -12.946700 -21.558800 -19.118600
N -12.812500 -24.816800 -21.150700
N -12.239400 -21.775200 -19.543900
N -12.140500 -28.418900 -22.706800
N -12.140300 -27.213700 -22.099500
N -12.077500 -22.900600 -20.237100
H -11.393800 -26.872500 -21.785000
N -11.142900 -19.785200 -18.855000
C -11.112300 -21.021700 -19.331000
O -10.210800 -17.382700 -18.067300
N -9.858200 -21.403800 -19.629300
C -9.829800 -19.477400 -18.891700
H -9.550400 -22.206700 -19.855100
N -9.364300 -18.167500 -18.465000
N -9.000000 -20.383600 -19.341400
O -8.162800 -17.937900 -18.531200
O -19.329000 -22.455700 -30.982000
Br -19.089800 -29.164900 -27.287400
N -18.480200 -24.747000 -29.781400
N -18.122900 -22.579200 -30.854200
N -18.019600 -26.812800 -28.675700
C -17.643200 -23.787200 -30.196700
C -17.612900 -25.613200 -29.268200
C -17.312200 -28.735100 -27.767100
O -17.286600 -21.772300 -31.223600
H -17.156300 -30.815600 -26.395800
N -17.022100 -27.557600 -28.427900
N -16.448900 -30.599200 -26.821100
N -16.350000 -23.955400 -29.984000
N -16.349800 -25.160600 -29.376700
N -16.287000 -29.473700 -27.514300
H -15.603400 -25.501800 -29.062100
N -15.352500 -32.589100 -26.132200
C -15.321900 -31.352600 -26.608100
O -14.420400 -34.991600 -25.344500
N -14.067700 -30.970600 -26.906500
C -14.039300 -32.896900 -26.168900
H -13.760000 -30.167600 -27.132200
N -13.573800 -34.206900 -25.742100
N -13.209500 -31.990700 -26.618600
O -12.372400 -34.436400 -25.808400
