25
Fragment
O -15.119500 -29.918600 -23.704800
Br -14.880200 -23.209500 -20.010200
N -14.270600 -27.627300 -22.504200
N -13.913300 -29.795200 -23.577000
N -13.810000 -25.561500 -21.398500
C -13.433600 -28.587100 -22.919500
C -13.403400 -26.761200 -21.991100
C -13.102600 -23.639200 -20.489900
O -13.077000 -30.602000 -23.946400
H -12.946700 -21.558800 -19.118600
N -12.812500 -24.816800 -21.150700
N -12.239400 -21.775200 -19.543900
N -12.140500 -28.418900 -22.706800
N -12.140300 -27.213700 -22.099500
N -12.077500 -22.900600 -20.237100
H -11.393800 -26.872500 -21.785000
N -11.142900 -19.785200 -18.855000
C -11.112300 -21.021700 -19.331000
O -10.210800 -17.382700 -18.067300
N -9.858200 -21.403800 -19.629300
C -9.829800 -19.477400 -18.891700
H -9.550400 -22.206700 -19.855100
N -9.364300 -18.167500 -18.465000
N -9.000000 -20.383600 -19.341400
O -8.162800 -17.937900 -18.531200
13
Fragment
H -18.017600 -26.067500 -18.369100
O -17.365800 -25.631100 -18.576600
H -16.714500 -30.187400 -19.655500
O -16.504000 -28.407700 -18.809900
H -16.444400 -26.550200 -17.085900
C -16.206400 -26.195700 -17.979100
C -16.080400 -29.441300 -19.696900
H -16.045600 -29.092600 -20.612000
C -15.603000 -27.300700 -18.798400
H -15.530600 -25.483600 -17.851500
H -15.442600 -26.986300 -19.723500
H -15.190100 -29.754200 -19.432400
H -14.735600 -27.575400 -18.408200
38
Fragment
O -15.119500 -29.918600 -23.704800
Br -14.880200 -23.209500 -20.010200
N -14.270600 -27.627300 -22.504200
N -13.913300 -29.795200 -23.577000
N -13.810000 -25.561500 -21.398500
C -13.433600 -28.587100 -22.919500
C -13.403400 -26.761200 -21.991100
C -13.102600 -23.639200 -20.489900
O -13.077000 -30.602000 -23.946400
H -12.946700 -21.558800 -19.118600
N -12.812500 -24.816800 -21.150700
N -12.239400 -21.775200 -19.543900
N -12.140500 -28.418900 -22.706800
N -12.140300 -27.213700 -22.099500
N -12.077500 -22.900600 -20.237100
H -11.393800 -26.872500 -21.785000
N -11.142900 -19.785200 -18.855000
C -11.112300 -21.021700 -19.331000
O -10.210800 -17.382700 -18.067300
N -9.858200 -21.403800 -19.629300
C -9.829800 -19.477400 -18.891700
H -9.550400 -22.206700 -19.855100
N -9.364300 -18.167500 -18.465000
N -9.000000 -20.383600 -19.341400
O -8.162800 -17.937900 -18.531200
H -18.017600 -26.067500 -18.369100
O -17.365800 -25.631100 -18.576600
H -16.714500 -30.187400 -19.655500
O -16.504000 -28.407700 -18.809900
H -16.444400 -26.550200 -17.085900
C -16.206400 -26.195700 -17.979100
C -16.080400 -29.441300 -19.696900
H -16.045600 -29.092600 -20.612000
C -15.603000 -27.300700 -18.798400
H -15.530600 -25.483600 -17.851500
H -15.442600 -26.986300 -19.723500
H -15.190100 -29.754200 -19.432400
H -14.735600 -27.575400 -18.408200
