25
Fragment
O -15.119500 -29.918600 -23.704800
Br -14.880200 -23.209500 -20.010200
N -14.270600 -27.627300 -22.504200
N -13.913300 -29.795200 -23.577000
N -13.810000 -25.561500 -21.398500
C -13.433600 -28.587100 -22.919500
C -13.403400 -26.761200 -21.991100
C -13.102600 -23.639200 -20.489900
O -13.077000 -30.602000 -23.946400
H -12.946700 -21.558800 -19.118600
N -12.812500 -24.816800 -21.150700
N -12.239400 -21.775200 -19.543900
N -12.140500 -28.418900 -22.706800
N -12.140300 -27.213700 -22.099500
N -12.077500 -22.900600 -20.237100
H -11.393800 -26.872500 -21.785000
N -11.142900 -19.785200 -18.855000
C -11.112300 -21.021700 -19.331000
O -10.210800 -17.382700 -18.067300
N -9.858200 -21.403800 -19.629300
C -9.829800 -19.477400 -18.891700
H -9.550400 -22.206700 -19.855100
N -9.364300 -18.167500 -18.465000
N -9.000000 -20.383600 -19.341400
O -8.162800 -17.937900 -18.531200
13
Fragment
H -12.723600 -26.306900 -25.646200
O -12.071800 -26.743200 -25.853800
H -11.420600 -22.187000 -26.932700
O -11.210100 -23.966700 -26.087100
H -11.150400 -25.824100 -24.363100
C -10.912400 -26.178600 -25.256300
C -10.786500 -22.933100 -26.974000
H -10.751600 -23.281700 -27.889200
C -10.309000 -25.073700 -26.075600
H -10.236600 -26.890800 -25.128700
H -10.148700 -25.388100 -27.000700
H -9.896200 -22.620200 -26.709600
H -9.441600 -24.799000 -25.685400
38
Fragment
O -15.119500 -29.918600 -23.704800
Br -14.880200 -23.209500 -20.010200
N -14.270600 -27.627300 -22.504200
N -13.913300 -29.795200 -23.577000
N -13.810000 -25.561500 -21.398500
C -13.433600 -28.587100 -22.919500
C -13.403400 -26.761200 -21.991100
C -13.102600 -23.639200 -20.489900
O -13.077000 -30.602000 -23.946400
H -12.946700 -21.558800 -19.118600
N -12.812500 -24.816800 -21.150700
N -12.239400 -21.775200 -19.543900
N -12.140500 -28.418900 -22.706800
N -12.140300 -27.213700 -22.099500
N -12.077500 -22.900600 -20.237100
H -11.393800 -26.872500 -21.785000
N -11.142900 -19.785200 -18.855000
C -11.112300 -21.021700 -19.331000
O -10.210800 -17.382700 -18.067300
N -9.858200 -21.403800 -19.629300
C -9.829800 -19.477400 -18.891700
H -9.550400 -22.206700 -19.855100
N -9.364300 -18.167500 -18.465000
N -9.000000 -20.383600 -19.341400
O -8.162800 -17.937900 -18.531200
H -12.723600 -26.306900 -25.646200
O -12.071800 -26.743200 -25.853800
H -11.420600 -22.187000 -26.932700
O -11.210100 -23.966700 -26.087100
H -11.150400 -25.824100 -24.363100
C -10.912400 -26.178600 -25.256300
C -10.786500 -22.933100 -26.974000
H -10.751600 -23.281700 -27.889200
C -10.309000 -25.073700 -26.075600
H -10.236600 -26.890800 -25.128700
H -10.148700 -25.388100 -27.000700
H -9.896200 -22.620200 -26.709600
H -9.441600 -24.799000 -25.685400
