25
Fragment
O -15.119500 -29.918600 -23.704800
Br -14.880200 -23.209500 -20.010200
N -14.270600 -27.627300 -22.504200
N -13.913300 -29.795200 -23.577000
N -13.810000 -25.561500 -21.398500
C -13.433600 -28.587100 -22.919500
C -13.403400 -26.761200 -21.991100
C -13.102600 -23.639200 -20.489900
O -13.077000 -30.602000 -23.946400
H -12.946700 -21.558800 -19.118600
N -12.812500 -24.816800 -21.150700
N -12.239400 -21.775200 -19.543900
N -12.140500 -28.418900 -22.706800
N -12.140300 -27.213700 -22.099500
N -12.077500 -22.900600 -20.237100
H -11.393800 -26.872500 -21.785000
N -11.142900 -19.785200 -18.855000
C -11.112300 -21.021700 -19.331000
O -10.210800 -17.382700 -18.067300
N -9.858200 -21.403800 -19.629300
C -9.829800 -19.477400 -18.891700
H -9.550400 -22.206700 -19.855100
N -9.364300 -18.167500 -18.465000
N -9.000000 -20.383600 -19.341400
O -8.162800 -17.937900 -18.531200
25
Fragment
O -17.094500 -26.954400 -25.131900
N -16.257400 -24.508700 -24.321600
N -15.893100 -26.724800 -25.198100
H -15.706900 -22.685600 -23.808000
C -15.427600 -25.414900 -24.771400
N -15.399200 -23.488500 -24.033800
O -15.046500 -27.509600 -25.595700
C -14.145000 -23.870600 -24.332100
N -14.114400 -25.107100 -24.808100
H -13.863500 -18.019800 -21.878100
N -13.179900 -21.991700 -23.426000
N -13.117100 -17.678600 -21.563600
N -13.116900 -16.473400 -20.956200
N -13.018000 -23.117100 -24.119200
N -12.444800 -20.075500 -22.512400
H -12.310600 -23.333500 -24.544500
O -12.180300 -14.290300 -19.716600
C -12.154800 -21.253100 -23.173200
C -11.854000 -18.131100 -21.672000
C -11.823700 -16.305200 -20.743600
N -11.447300 -19.330800 -22.264500
N -11.344000 -15.097100 -20.086000
N -10.986700 -17.265000 -21.158800
Br -10.377100 -21.682800 -23.652900
O -10.137900 -14.973700 -19.958200
50
Fragment
O -15.119500 -29.918600 -23.704800
Br -14.880200 -23.209500 -20.010200
N -14.270600 -27.627300 -22.504200
N -13.913300 -29.795200 -23.577000
N -13.810000 -25.561500 -21.398500
C -13.433600 -28.587100 -22.919500
C -13.403400 -26.761200 -21.991100
C -13.102600 -23.639200 -20.489900
O -13.077000 -30.602000 -23.946400
H -12.946700 -21.558800 -19.118600
N -12.812500 -24.816800 -21.150700
N -12.239400 -21.775200 -19.543900
N -12.140500 -28.418900 -22.706800
N -12.140300 -27.213700 -22.099500
N -12.077500 -22.900600 -20.237100
H -11.393800 -26.872500 -21.785000
N -11.142900 -19.785200 -18.855000
C -11.112300 -21.021700 -19.331000
O -10.210800 -17.382700 -18.067300
N -9.858200 -21.403800 -19.629300
C -9.829800 -19.477400 -18.891700
H -9.550400 -22.206700 -19.855100
N -9.364300 -18.167500 -18.465000
N -9.000000 -20.383600 -19.341400
O -8.162800 -17.937900 -18.531200
O -17.094500 -26.954400 -25.131900
N -16.257400 -24.508700 -24.321600
N -15.893100 -26.724800 -25.198100
H -15.706900 -22.685600 -23.808000
C -15.427600 -25.414900 -24.771400
N -15.399200 -23.488500 -24.033800
O -15.046500 -27.509600 -25.595700
C -14.145000 -23.870600 -24.332100
N -14.114400 -25.107100 -24.808100
H -13.863500 -18.019800 -21.878100
N -13.179900 -21.991700 -23.426000
N -13.117100 -17.678600 -21.563600
N -13.116900 -16.473400 -20.956200
N -13.018000 -23.117100 -24.119200
N -12.444800 -20.075500 -22.512400
H -12.310600 -23.333500 -24.544500
O -12.180300 -14.290300 -19.716600
C -12.154800 -21.253100 -23.173200
C -11.854000 -18.131100 -21.672000
C -11.823700 -16.305200 -20.743600
N -11.447300 -19.330800 -22.264500
N -11.344000 -15.097100 -20.086000
N -10.986700 -17.265000 -21.158800
Br -10.377100 -21.682800 -23.652900
O -10.137900 -14.973700 -19.958200
