25
Fragment
O -15.119500 -29.918600 -23.704800
Br -14.880200 -23.209500 -20.010200
N -14.270600 -27.627300 -22.504200
N -13.913300 -29.795200 -23.577000
N -13.810000 -25.561500 -21.398500
C -13.433600 -28.587100 -22.919500
C -13.403400 -26.761200 -21.991100
C -13.102600 -23.639200 -20.489900
O -13.077000 -30.602000 -23.946400
H -12.946700 -21.558800 -19.118600
N -12.812500 -24.816800 -21.150700
N -12.239400 -21.775200 -19.543900
N -12.140500 -28.418900 -22.706800
N -12.140300 -27.213700 -22.099500
N -12.077500 -22.900600 -20.237100
H -11.393800 -26.872500 -21.785000
N -11.142900 -19.785200 -18.855000
C -11.112300 -21.021700 -19.331000
O -10.210800 -17.382700 -18.067300
N -9.858200 -21.403800 -19.629300
C -9.829800 -19.477400 -18.891700
H -9.550400 -22.206700 -19.855100
N -9.364300 -18.167500 -18.465000
N -9.000000 -20.383600 -19.341400
O -8.162800 -17.937900 -18.531200
13
Fragment
H -13.548900 -17.333400 -14.898000
H -13.178400 -19.469200 -15.052400
H -12.976000 -16.008600 -14.209600
C -12.756100 -16.743800 -14.835100
H -12.652500 -16.770300 -16.715700
O -12.488700 -16.191500 -16.120100
H -12.346700 -19.959400 -13.776000
C -12.301500 -19.772200 -14.736900
H -12.045500 -20.587500 -15.216900
H -11.798900 -17.752400 -13.327700
C -11.603600 -17.534000 -14.273500
O -11.328100 -18.750600 -14.978600
H -10.792200 -16.967000 -14.288900
38
Fragment
O -15.119500 -29.918600 -23.704800
Br -14.880200 -23.209500 -20.010200
N -14.270600 -27.627300 -22.504200
N -13.913300 -29.795200 -23.577000
N -13.810000 -25.561500 -21.398500
C -13.433600 -28.587100 -22.919500
C -13.403400 -26.761200 -21.991100
C -13.102600 -23.639200 -20.489900
O -13.077000 -30.602000 -23.946400
H -12.946700 -21.558800 -19.118600
N -12.812500 -24.816800 -21.150700
N -12.239400 -21.775200 -19.543900
N -12.140500 -28.418900 -22.706800
N -12.140300 -27.213700 -22.099500
N -12.077500 -22.900600 -20.237100
H -11.393800 -26.872500 -21.785000
N -11.142900 -19.785200 -18.855000
C -11.112300 -21.021700 -19.331000
O -10.210800 -17.382700 -18.067300
N -9.858200 -21.403800 -19.629300
C -9.829800 -19.477400 -18.891700
H -9.550400 -22.206700 -19.855100
N -9.364300 -18.167500 -18.465000
N -9.000000 -20.383600 -19.341400
O -8.162800 -17.937900 -18.531200
H -13.548900 -17.333400 -14.898000
H -13.178400 -19.469200 -15.052400
H -12.976000 -16.008600 -14.209600
C -12.756100 -16.743800 -14.835100
H -12.652500 -16.770300 -16.715700
O -12.488700 -16.191500 -16.120100
H -12.346700 -19.959400 -13.776000
C -12.301500 -19.772200 -14.736900
H -12.045500 -20.587500 -15.216900
H -11.798900 -17.752400 -13.327700
C -11.603600 -17.534000 -14.273500
O -11.328100 -18.750600 -14.978600
H -10.792200 -16.967000 -14.288900
