22
Fragment
H -31.078500 -8.912800 -37.839500
H -30.832500 -8.619700 -35.483100
H -30.296800 -10.091300 -38.590100
C -30.236000 -9.432700 -37.853500
N -30.087200 -10.142600 -36.584000
C -29.995200 -9.147300 -35.509800
H -29.902200 -9.613800 -34.641600
H -29.843700 -7.008400 -36.967600
N -29.097500 -8.513200 -38.111800
C -29.016800 -7.552400 -36.990100
H -28.866400 -11.568500 -37.349100
N -28.846700 -8.228600 -35.693800
C -28.822200 -10.898300 -36.621700
H -28.709500 -11.384900 -35.766900
H -28.253800 -6.939800 -37.140400
H -27.894200 -9.988200 -38.844400
C -27.851700 -9.325200 -38.110400
N -27.653700 -10.026000 -36.838800
C -27.611300 -9.036300 -35.755200
H -27.484800 -9.503800 -34.891700
H -27.076600 -8.732900 -38.280000
H -26.836200 -8.435900 -35.892700
20
Fragment
H -30.794300 -4.139200 -33.161500
H -30.681700 -3.438000 -30.937400
C -30.316700 -4.659200 -32.525900
C -30.260700 -4.247700 -31.201400
O -29.721800 -3.273100 -28.708900
O -29.706000 -6.150700 -34.239500
C -29.681000 -5.822500 -32.927800
C -29.588900 -5.020100 -30.261300
H -29.470600 -2.909100 -27.819400
C -29.425700 -4.552600 -28.861600
H -29.254200 -6.854100 -34.437600
C -29.038300 -6.631600 -31.970000
O -29.027200 -5.255700 -27.951300
C -29.002700 -6.231800 -30.645400
H -28.579700 -6.780800 -29.995800
H -28.565400 -8.931100 -30.881200
O -28.473200 -7.768500 -32.484700
C -27.896700 -8.684800 -31.554100
H -27.599500 -9.488900 -32.028800
H -27.129600 -8.263300 -31.113300
42
Fragment
H -31.078500 -8.912800 -37.839500
H -30.832500 -8.619700 -35.483100
H -30.296800 -10.091300 -38.590100
C -30.236000 -9.432700 -37.853500
N -30.087200 -10.142600 -36.584000
C -29.995200 -9.147300 -35.509800
H -29.902200 -9.613800 -34.641600
H -29.843700 -7.008400 -36.967600
N -29.097500 -8.513200 -38.111800
C -29.016800 -7.552400 -36.990100
H -28.866400 -11.568500 -37.349100
N -28.846700 -8.228600 -35.693800
C -28.822200 -10.898300 -36.621700
H -28.709500 -11.384900 -35.766900
H -28.253800 -6.939800 -37.140400
H -27.894200 -9.988200 -38.844400
C -27.851700 -9.325200 -38.110400
N -27.653700 -10.026000 -36.838800
C -27.611300 -9.036300 -35.755200
H -27.484800 -9.503800 -34.891700
H -27.076600 -8.732900 -38.280000
H -26.836200 -8.435900 -35.892700
H -30.794300 -4.139200 -33.161500
H -30.681700 -3.438000 -30.937400
C -30.316700 -4.659200 -32.525900
C -30.260700 -4.247700 -31.201400
O -29.721800 -3.273100 -28.708900
O -29.706000 -6.150700 -34.239500
C -29.681000 -5.822500 -32.927800
C -29.588900 -5.020100 -30.261300
H -29.470600 -2.909100 -27.819400
C -29.425700 -4.552600 -28.861600
H -29.254200 -6.854100 -34.437600
C -29.038300 -6.631600 -31.970000
O -29.027200 -5.255700 -27.951300
C -29.002700 -6.231800 -30.645400
H -28.579700 -6.780800 -29.995800
H -28.565400 -8.931100 -30.881200
O -28.473200 -7.768500 -32.484700
C -27.896700 -8.684800 -31.554100
H -27.599500 -9.488900 -32.028800
H -27.129600 -8.263300 -31.113300
