22
Fragment
H -31.078500 -8.912800 -37.839500
H -30.832500 -8.619700 -35.483100
H -30.296800 -10.091300 -38.590100
C -30.236000 -9.432700 -37.853500
N -30.087200 -10.142600 -36.584000
C -29.995200 -9.147300 -35.509800
H -29.902200 -9.613800 -34.641600
H -29.843700 -7.008400 -36.967600
N -29.097500 -8.513200 -38.111800
C -29.016800 -7.552400 -36.990100
H -28.866400 -11.568500 -37.349100
N -28.846700 -8.228600 -35.693800
C -28.822200 -10.898300 -36.621700
H -28.709500 -11.384900 -35.766900
H -28.253800 -6.939800 -37.140400
H -27.894200 -9.988200 -38.844400
C -27.851700 -9.325200 -38.110400
N -27.653700 -10.026000 -36.838800
C -27.611300 -9.036300 -35.755200
H -27.484800 -9.503800 -34.891700
H -27.076600 -8.732900 -38.280000
H -26.836200 -8.435900 -35.892700
20
Fragment
H -35.474900 -5.927300 -42.822800
H -35.005000 -4.701700 -43.738300
C -34.707800 -5.505800 -43.263600
O -34.131300 -6.422100 -44.194200
H -34.039100 -5.259500 -42.590700
H -34.024800 -7.409800 -41.705300
C -33.601800 -7.958800 -42.354900
O -33.577300 -8.934900 -39.660800
C -33.566200 -7.559000 -43.679500
H -33.350300 -7.336500 -46.147100
C -33.178800 -9.638000 -40.571100
H -33.133900 -11.281500 -39.528900
C -33.015600 -9.170500 -41.970800
C -32.923500 -8.368100 -44.637300
O -32.898500 -8.039900 -45.949000
O -32.882700 -10.917500 -40.418400
C -32.343800 -9.942900 -42.910900
C -32.287800 -9.531400 -44.235400
H -31.922800 -10.752600 -42.646900
H -31.810200 -10.051400 -44.871000
42
Fragment
H -31.078500 -8.912800 -37.839500
H -30.832500 -8.619700 -35.483100
H -30.296800 -10.091300 -38.590100
C -30.236000 -9.432700 -37.853500
N -30.087200 -10.142600 -36.584000
C -29.995200 -9.147300 -35.509800
H -29.902200 -9.613800 -34.641600
H -29.843700 -7.008400 -36.967600
N -29.097500 -8.513200 -38.111800
C -29.016800 -7.552400 -36.990100
H -28.866400 -11.568500 -37.349100
N -28.846700 -8.228600 -35.693800
C -28.822200 -10.898300 -36.621700
H -28.709500 -11.384900 -35.766900
H -28.253800 -6.939800 -37.140400
H -27.894200 -9.988200 -38.844400
C -27.851700 -9.325200 -38.110400
N -27.653700 -10.026000 -36.838800
C -27.611300 -9.036300 -35.755200
H -27.484800 -9.503800 -34.891700
H -27.076600 -8.732900 -38.280000
H -26.836200 -8.435900 -35.892700
H -35.474900 -5.927300 -42.822800
H -35.005000 -4.701700 -43.738300
C -34.707800 -5.505800 -43.263600
O -34.131300 -6.422100 -44.194200
H -34.039100 -5.259500 -42.590700
H -34.024800 -7.409800 -41.705300
C -33.601800 -7.958800 -42.354900
O -33.577300 -8.934900 -39.660800
C -33.566200 -7.559000 -43.679500
H -33.350300 -7.336500 -46.147100
C -33.178800 -9.638000 -40.571100
H -33.133900 -11.281500 -39.528900
C -33.015600 -9.170500 -41.970800
C -32.923500 -8.368100 -44.637300
O -32.898500 -8.039900 -45.949000
O -32.882700 -10.917500 -40.418400
C -32.343800 -9.942900 -42.910900
C -32.287800 -9.531400 -44.235400
H -31.922800 -10.752600 -42.646900
H -31.810200 -10.051400 -44.871000
