22
Fragment
H -31.078500 -8.912800 -37.839500
H -30.832500 -8.619700 -35.483100
H -30.296800 -10.091300 -38.590100
C -30.236000 -9.432700 -37.853500
N -30.087200 -10.142600 -36.584000
C -29.995200 -9.147300 -35.509800
H -29.902200 -9.613800 -34.641600
H -29.843700 -7.008400 -36.967600
N -29.097500 -8.513200 -38.111800
C -29.016800 -7.552400 -36.990100
H -28.866400 -11.568500 -37.349100
N -28.846700 -8.228600 -35.693800
C -28.822200 -10.898300 -36.621700
H -28.709500 -11.384900 -35.766900
H -28.253800 -6.939800 -37.140400
H -27.894200 -9.988200 -38.844400
C -27.851700 -9.325200 -38.110400
N -27.653700 -10.026000 -36.838800
C -27.611300 -9.036300 -35.755200
H -27.484800 -9.503800 -34.891700
H -27.076600 -8.732900 -38.280000
H -26.836200 -8.435900 -35.892700
20
Fragment
H -26.531400 -13.022600 -39.143700
H -26.061500 -11.797000 -38.228200
C -25.764300 -12.601100 -38.702900
O -25.187800 -13.517400 -37.772300
H -25.095600 -12.354800 -39.375800
H -25.081300 -14.505100 -40.261200
C -24.658300 -15.054100 -39.611600
O -24.633800 -16.030200 -42.305700
C -24.622700 -14.654300 -38.287000
H -24.406800 -14.431800 -35.819400
C -24.235300 -16.733300 -41.395400
H -24.190400 -18.376800 -42.437600
C -24.072100 -16.265800 -39.995700
C -23.980000 -15.463400 -37.329200
O -23.955000 -15.135200 -36.017500
O -23.939200 -18.012800 -41.548100
C -23.400300 -17.038200 -39.055600
C -23.344300 -16.626700 -37.731100
H -22.979300 -17.847900 -39.319600
H -22.866700 -17.146700 -37.095500
42
Fragment
H -31.078500 -8.912800 -37.839500
H -30.832500 -8.619700 -35.483100
H -30.296800 -10.091300 -38.590100
C -30.236000 -9.432700 -37.853500
N -30.087200 -10.142600 -36.584000
C -29.995200 -9.147300 -35.509800
H -29.902200 -9.613800 -34.641600
H -29.843700 -7.008400 -36.967600
N -29.097500 -8.513200 -38.111800
C -29.016800 -7.552400 -36.990100
H -28.866400 -11.568500 -37.349100
N -28.846700 -8.228600 -35.693800
C -28.822200 -10.898300 -36.621700
H -28.709500 -11.384900 -35.766900
H -28.253800 -6.939800 -37.140400
H -27.894200 -9.988200 -38.844400
C -27.851700 -9.325200 -38.110400
N -27.653700 -10.026000 -36.838800
C -27.611300 -9.036300 -35.755200
H -27.484800 -9.503800 -34.891700
H -27.076600 -8.732900 -38.280000
H -26.836200 -8.435900 -35.892700
H -26.531400 -13.022600 -39.143700
H -26.061500 -11.797000 -38.228200
C -25.764300 -12.601100 -38.702900
O -25.187800 -13.517400 -37.772300
H -25.095600 -12.354800 -39.375800
H -25.081300 -14.505100 -40.261200
C -24.658300 -15.054100 -39.611600
O -24.633800 -16.030200 -42.305700
C -24.622700 -14.654300 -38.287000
H -24.406800 -14.431800 -35.819400
C -24.235300 -16.733300 -41.395400
H -24.190400 -18.376800 -42.437600
C -24.072100 -16.265800 -39.995700
C -23.980000 -15.463400 -37.329200
O -23.955000 -15.135200 -36.017500
O -23.939200 -18.012800 -41.548100
C -23.400300 -17.038200 -39.055600
C -23.344300 -16.626700 -37.731100
H -22.979300 -17.847900 -39.319600
H -22.866700 -17.146700 -37.095500
