3
Fragment
H -12.821400 -25.144300 -9.365000
H -12.534200 -23.730700 -8.883000
O -12.507200 -24.620200 -8.630900
24
Fragment
H -15.274300 -20.307200 -13.147100
N -14.531700 -20.635500 -13.126000
H -14.416700 -21.380500 -12.819100
N -13.609200 -18.441800 -12.895800
C -13.533400 -19.745400 -12.873300
H -12.807800 -23.476200 -12.049300
H -12.629400 -25.060000 -11.761400
N -12.304700 -17.927100 -12.632200
N -12.287100 -24.224900 -12.064000
N -12.224300 -20.125600 -12.616100
N -11.887900 -21.452000 -12.459100
C -11.502000 -18.932700 -12.452300
C -10.957100 -24.078600 -11.932100
N -10.648500 -21.584300 -12.331800
N -10.266100 -22.876100 -12.133000
N -10.210900 -18.875400 -12.064000
N -10.094800 -25.009700 -11.659700
H -9.836400 -17.995200 -12.042600
H -9.658600 -19.505800 -12.337100
C -8.924500 -23.178100 -11.939500
N -8.791200 -24.436700 -11.668400
H -8.023000 -21.661900 -12.558000
N -7.949900 -22.220400 -11.979000
H -7.171500 -22.530100 -11.835100
27
Fragment
H -12.821400 -25.144300 -9.365000
H -12.534200 -23.730700 -8.883000
O -12.507200 -24.620200 -8.630900
H -15.274300 -20.307200 -13.147100
N -14.531700 -20.635500 -13.126000
H -14.416700 -21.380500 -12.819100
N -13.609200 -18.441800 -12.895800
C -13.533400 -19.745400 -12.873300
H -12.807800 -23.476200 -12.049300
H -12.629400 -25.060000 -11.761400
N -12.304700 -17.927100 -12.632200
N -12.287100 -24.224900 -12.064000
N -12.224300 -20.125600 -12.616100
N -11.887900 -21.452000 -12.459100
C -11.502000 -18.932700 -12.452300
C -10.957100 -24.078600 -11.932100
N -10.648500 -21.584300 -12.331800
N -10.266100 -22.876100 -12.133000
N -10.210900 -18.875400 -12.064000
N -10.094800 -25.009700 -11.659700
H -9.836400 -17.995200 -12.042600
H -9.658600 -19.505800 -12.337100
C -8.924500 -23.178100 -11.939500
N -8.791200 -24.436700 -11.668400
H -8.023000 -21.661900 -12.558000
N -7.949900 -22.220400 -11.979000
H -7.171500 -22.530100 -11.835100
