24
Fragment
O -4.981000 -9.825200 -26.124000
N -3.999300 -10.543200 -25.965500
O -3.812400 -4.473000 -21.522600
H -3.741100 -8.401700 -24.416900
O -3.694400 -11.469900 -26.692500
N -3.224500 -9.034200 -24.252300
C -3.151900 -10.236300 -24.860500
N -2.727800 -6.784900 -22.444700
N -2.643100 -4.686600 -21.275700
O -2.449800 -13.107000 -24.826900
C -2.266300 -9.035000 -23.304300
C -2.173900 -6.041400 -21.486000
C -2.128000 -10.914600 -24.238600
C -2.035600 -7.921000 -22.420300
O -1.852100 -3.849000 -20.897700
N -1.658700 -12.269400 -24.448900
N -1.574100 -10.171100 -23.279900
C -1.149900 -6.719700 -20.864100
N -1.077300 -7.921800 -21.472300
O -0.607500 -5.486100 -19.032100
H -0.560800 -8.554300 -21.307700
O -0.489500 -12.483000 -24.202000
N -0.302600 -6.412800 -19.759100
O 0.679200 -7.130800 -19.600600
24
Fragment
O -3.425500 -2.891800 -18.503200
N -2.443800 -2.173800 -18.344700
O -2.256900 -8.244000 -13.901800
H -2.185600 -4.315300 -16.796200
O -2.138900 -1.247100 -19.071700
N -1.669000 -3.682800 -16.631600
C -1.596500 -2.480700 -17.239700
N -1.172300 -5.932100 -14.823900
N -1.087600 -8.030400 -13.654900
O -0.894300 0.390000 -17.206200
C -0.710800 -3.682000 -15.683500
C -0.618400 -6.675600 -13.865200
C -0.572500 -1.802400 -16.617800
C -0.480100 -4.796000 -14.799500
O -0.296600 -8.868000 -13.276900
N -0.103300 -0.447600 -16.828200
N -0.018600 -2.545900 -15.659200
C 0.405500 -5.997300 -13.243400
N 0.478100 -4.795200 -13.851500
O 0.948000 -7.230900 -11.411300
H 0.994700 -4.162700 -13.686900
O 1.066000 -0.234000 -16.581300
N 1.252900 -6.304200 -12.138400
O 2.234600 -5.586200 -11.979800
48
Fragment
O -4.981000 -9.825200 -26.124000
N -3.999300 -10.543200 -25.965500
O -3.812400 -4.473000 -21.522600
H -3.741100 -8.401700 -24.416900
O -3.694400 -11.469900 -26.692500
N -3.224500 -9.034200 -24.252300
C -3.151900 -10.236300 -24.860500
N -2.727800 -6.784900 -22.444700
N -2.643100 -4.686600 -21.275700
O -2.449800 -13.107000 -24.826900
C -2.266300 -9.035000 -23.304300
C -2.173900 -6.041400 -21.486000
C -2.128000 -10.914600 -24.238600
C -2.035600 -7.921000 -22.420300
O -1.852100 -3.849000 -20.897700
N -1.658700 -12.269400 -24.448900
N -1.574100 -10.171100 -23.279900
C -1.149900 -6.719700 -20.864100
N -1.077300 -7.921800 -21.472300
O -0.607500 -5.486100 -19.032100
H -0.560800 -8.554300 -21.307700
O -0.489500 -12.483000 -24.202000
N -0.302600 -6.412800 -19.759100
O 0.679200 -7.130800 -19.600600
O -3.425500 -2.891800 -18.503200
N -2.443800 -2.173800 -18.344700
O -2.256900 -8.244000 -13.901800
H -2.185600 -4.315300 -16.796200
O -2.138900 -1.247100 -19.071700
N -1.669000 -3.682800 -16.631600
C -1.596500 -2.480700 -17.239700
N -1.172300 -5.932100 -14.823900
N -1.087600 -8.030400 -13.654900
O -0.894300 0.390000 -17.206200
C -0.710800 -3.682000 -15.683500
C -0.618400 -6.675600 -13.865200
C -0.572500 -1.802400 -16.617800
C -0.480100 -4.796000 -14.799500
O -0.296600 -8.868000 -13.276900
N -0.103300 -0.447600 -16.828200
N -0.018600 -2.545900 -15.659200
C 0.405500 -5.997300 -13.243400
N 0.478100 -4.795200 -13.851500
O 0.948000 -7.230900 -11.411300
H 0.994700 -4.162700 -13.686900
O 1.066000 -0.234000 -16.581300
N 1.252900 -6.304200 -12.138400
O 2.234600 -5.586200 -11.979800
