24
Fragment
O -4.981000 -9.825200 -26.124000
N -3.999300 -10.543200 -25.965500
O -3.812400 -4.473000 -21.522600
H -3.741100 -8.401700 -24.416900
O -3.694400 -11.469900 -26.692500
N -3.224500 -9.034200 -24.252300
C -3.151900 -10.236300 -24.860500
N -2.727800 -6.784900 -22.444700
N -2.643100 -4.686600 -21.275700
O -2.449800 -13.107000 -24.826900
C -2.266300 -9.035000 -23.304300
C -2.173900 -6.041400 -21.486000
C -2.128000 -10.914600 -24.238600
C -2.035600 -7.921000 -22.420300
O -1.852100 -3.849000 -20.897700
N -1.658700 -12.269400 -24.448900
N -1.574100 -10.171100 -23.279900
C -1.149900 -6.719700 -20.864100
N -1.077300 -7.921800 -21.472300
O -0.607500 -5.486100 -19.032100
H -0.560800 -8.554300 -21.307700
O -0.489500 -12.483000 -24.202000
N -0.302600 -6.412800 -19.759100
O 0.679200 -7.130800 -19.600600
24
Fragment
O -11.567500 -11.369800 -33.744800
N -10.585800 -10.651800 -33.586300
O -10.398900 -16.722000 -29.143300
H -10.327600 -12.793300 -32.037700
O -10.280900 -9.725100 -34.313300
N -9.811000 -12.160800 -31.873100
C -9.738400 -10.958700 -32.481200
N -9.314200 -14.410100 -30.065500
N -9.229600 -16.508400 -28.896400
O -9.036300 -8.088000 -32.447700
C -8.852800 -12.160000 -30.925100
C -8.760400 -15.153600 -29.106800
C -8.714400 -10.280400 -31.859400
C -8.622000 -13.274000 -30.041100
O -8.438500 -17.346000 -28.518400
N -8.245200 -8.925600 -32.069700
N -8.160600 -11.023900 -30.900700
C -7.736400 -14.475300 -28.484900
N -7.663800 -13.273200 -29.093000
O -7.193900 -15.708900 -26.652900
H -7.147200 -12.640700 -28.928400
O -7.075900 -8.712000 -31.822800
N -6.889000 -14.782200 -27.379900
O -5.907300 -14.064200 -27.221400
48
Fragment
O -4.981000 -9.825200 -26.124000
N -3.999300 -10.543200 -25.965500
O -3.812400 -4.473000 -21.522600
H -3.741100 -8.401700 -24.416900
O -3.694400 -11.469900 -26.692500
N -3.224500 -9.034200 -24.252300
C -3.151900 -10.236300 -24.860500
N -2.727800 -6.784900 -22.444700
N -2.643100 -4.686600 -21.275700
O -2.449800 -13.107000 -24.826900
C -2.266300 -9.035000 -23.304300
C -2.173900 -6.041400 -21.486000
C -2.128000 -10.914600 -24.238600
C -2.035600 -7.921000 -22.420300
O -1.852100 -3.849000 -20.897700
N -1.658700 -12.269400 -24.448900
N -1.574100 -10.171100 -23.279900
C -1.149900 -6.719700 -20.864100
N -1.077300 -7.921800 -21.472300
O -0.607500 -5.486100 -19.032100
H -0.560800 -8.554300 -21.307700
O -0.489500 -12.483000 -24.202000
N -0.302600 -6.412800 -19.759100
O 0.679200 -7.130800 -19.600600
O -11.567500 -11.369800 -33.744800
N -10.585800 -10.651800 -33.586300
O -10.398900 -16.722000 -29.143300
H -10.327600 -12.793300 -32.037700
O -10.280900 -9.725100 -34.313300
N -9.811000 -12.160800 -31.873100
C -9.738400 -10.958700 -32.481200
N -9.314200 -14.410100 -30.065500
N -9.229600 -16.508400 -28.896400
O -9.036300 -8.088000 -32.447700
C -8.852800 -12.160000 -30.925100
C -8.760400 -15.153600 -29.106800
C -8.714400 -10.280400 -31.859400
C -8.622000 -13.274000 -30.041100
O -8.438500 -17.346000 -28.518400
N -8.245200 -8.925600 -32.069700
N -8.160600 -11.023900 -30.900700
C -7.736400 -14.475300 -28.484900
N -7.663800 -13.273200 -29.093000
O -7.193900 -15.708900 -26.652900
H -7.147200 -12.640700 -28.928400
O -7.075900 -8.712000 -31.822800
N -6.889000 -14.782200 -27.379900
O -5.907300 -14.064200 -27.221400
