24
Fragment
O -4.981000 -9.825200 -26.124000
N -3.999300 -10.543200 -25.965500
O -3.812400 -4.473000 -21.522600
H -3.741100 -8.401700 -24.416900
O -3.694400 -11.469900 -26.692500
N -3.224500 -9.034200 -24.252300
C -3.151900 -10.236300 -24.860500
N -2.727800 -6.784900 -22.444700
N -2.643100 -4.686600 -21.275700
O -2.449800 -13.107000 -24.826900
C -2.266300 -9.035000 -23.304300
C -2.173900 -6.041400 -21.486000
C -2.128000 -10.914600 -24.238600
C -2.035600 -7.921000 -22.420300
O -1.852100 -3.849000 -20.897700
N -1.658700 -12.269400 -24.448900
N -1.574100 -10.171100 -23.279900
C -1.149900 -6.719700 -20.864100
N -1.077300 -7.921800 -21.472300
O -0.607500 -5.486100 -19.032100
H -0.560800 -8.554300 -21.307700
O -0.489500 -12.483000 -24.202000
N -0.302600 -6.412800 -19.759100
O 0.679200 -7.130800 -19.600600
24
Fragment
O 0.050000 -9.825200 -26.124000
N 1.031700 -10.543200 -25.965500
O 1.218600 -4.473000 -21.522600
H 1.289900 -8.401700 -24.416900
O 1.336600 -11.469900 -26.692500
N 1.806500 -9.034200 -24.252300
C 1.879100 -10.236300 -24.860500
N 2.303200 -6.784900 -22.444700
N 2.387900 -4.686600 -21.275700
O 2.581200 -13.107000 -24.826900
C 2.764700 -9.035000 -23.304300
C 2.857100 -6.041400 -21.486000
C 2.903000 -10.914600 -24.238600
C 2.995400 -7.921000 -22.420300
O 3.178900 -3.849000 -20.897700
N 3.372300 -12.269400 -24.448900
N 3.456900 -10.171100 -23.279900
C 3.881100 -6.719700 -20.864100
N 3.953700 -7.921800 -21.472300
O 4.423500 -5.486100 -19.032100
H 4.470200 -8.554300 -21.307700
O 4.541500 -12.483000 -24.202000
N 4.728400 -6.412800 -19.759100
O 5.710200 -7.130800 -19.600600
48
Fragment
O -4.981000 -9.825200 -26.124000
N -3.999300 -10.543200 -25.965500
O -3.812400 -4.473000 -21.522600
H -3.741100 -8.401700 -24.416900
O -3.694400 -11.469900 -26.692500
N -3.224500 -9.034200 -24.252300
C -3.151900 -10.236300 -24.860500
N -2.727800 -6.784900 -22.444700
N -2.643100 -4.686600 -21.275700
O -2.449800 -13.107000 -24.826900
C -2.266300 -9.035000 -23.304300
C -2.173900 -6.041400 -21.486000
C -2.128000 -10.914600 -24.238600
C -2.035600 -7.921000 -22.420300
O -1.852100 -3.849000 -20.897700
N -1.658700 -12.269400 -24.448900
N -1.574100 -10.171100 -23.279900
C -1.149900 -6.719700 -20.864100
N -1.077300 -7.921800 -21.472300
O -0.607500 -5.486100 -19.032100
H -0.560800 -8.554300 -21.307700
O -0.489500 -12.483000 -24.202000
N -0.302600 -6.412800 -19.759100
O 0.679200 -7.130800 -19.600600
O 0.050000 -9.825200 -26.124000
N 1.031700 -10.543200 -25.965500
O 1.218600 -4.473000 -21.522600
H 1.289900 -8.401700 -24.416900
O 1.336600 -11.469900 -26.692500
N 1.806500 -9.034200 -24.252300
C 1.879100 -10.236300 -24.860500
N 2.303200 -6.784900 -22.444700
N 2.387900 -4.686600 -21.275700
O 2.581200 -13.107000 -24.826900
C 2.764700 -9.035000 -23.304300
C 2.857100 -6.041400 -21.486000
C 2.903000 -10.914600 -24.238600
C 2.995400 -7.921000 -22.420300
O 3.178900 -3.849000 -20.897700
N 3.372300 -12.269400 -24.448900
N 3.456900 -10.171100 -23.279900
C 3.881100 -6.719700 -20.864100
N 3.953700 -7.921800 -21.472300
O 4.423500 -5.486100 -19.032100
H 4.470200 -8.554300 -21.307700
O 4.541500 -12.483000 -24.202000
N 4.728400 -6.412800 -19.759100
O 5.710200 -7.130800 -19.600600
