24
Fragment
O -4.981000 -9.825200 -26.124000
N -3.999300 -10.543200 -25.965500
O -3.812400 -4.473000 -21.522600
H -3.741100 -8.401700 -24.416900
O -3.694400 -11.469900 -26.692500
N -3.224500 -9.034200 -24.252300
C -3.151900 -10.236300 -24.860500
N -2.727800 -6.784900 -22.444700
N -2.643100 -4.686600 -21.275700
O -2.449800 -13.107000 -24.826900
C -2.266300 -9.035000 -23.304300
C -2.173900 -6.041400 -21.486000
C -2.128000 -10.914600 -24.238600
C -2.035600 -7.921000 -22.420300
O -1.852100 -3.849000 -20.897700
N -1.658700 -12.269400 -24.448900
N -1.574100 -10.171100 -23.279900
C -1.149900 -6.719700 -20.864100
N -1.077300 -7.921800 -21.472300
O -0.607500 -5.486100 -19.032100
H -0.560800 -8.554300 -21.307700
O -0.489500 -12.483000 -24.202000
N -0.302600 -6.412800 -19.759100
O 0.679200 -7.130800 -19.600600
24
Fragment
O 1.605500 -11.369800 -18.503200
N 2.587200 -10.651800 -18.344700
O 2.774100 -16.722000 -13.901800
H 2.845400 -12.793300 -16.796200
O 2.892100 -9.725100 -19.071700
N 3.362000 -12.160800 -16.631600
C 3.434500 -10.958700 -17.239700
N 3.858700 -14.410100 -14.823900
N 3.943400 -16.508400 -13.654900
O 4.136700 -8.088000 -17.206200
C 4.320200 -12.160000 -15.683500
C 4.412600 -15.153600 -13.865200
C 4.458500 -10.280400 -16.617800
C 4.550900 -13.274000 -14.799500
O 4.734400 -17.346000 -13.276900
N 4.927700 -8.925600 -16.828200
N 5.012400 -11.023900 -15.659200
C 5.436500 -14.475300 -13.243400
N 5.509100 -13.273200 -13.851500
O 5.979000 -15.708900 -11.411300
H 6.025700 -12.640700 -13.686900
O 6.097000 -8.712000 -16.581300
N 6.283900 -14.782200 -12.138400
O 7.265600 -14.064200 -11.979800
48
Fragment
O -4.981000 -9.825200 -26.124000
N -3.999300 -10.543200 -25.965500
O -3.812400 -4.473000 -21.522600
H -3.741100 -8.401700 -24.416900
O -3.694400 -11.469900 -26.692500
N -3.224500 -9.034200 -24.252300
C -3.151900 -10.236300 -24.860500
N -2.727800 -6.784900 -22.444700
N -2.643100 -4.686600 -21.275700
O -2.449800 -13.107000 -24.826900
C -2.266300 -9.035000 -23.304300
C -2.173900 -6.041400 -21.486000
C -2.128000 -10.914600 -24.238600
C -2.035600 -7.921000 -22.420300
O -1.852100 -3.849000 -20.897700
N -1.658700 -12.269400 -24.448900
N -1.574100 -10.171100 -23.279900
C -1.149900 -6.719700 -20.864100
N -1.077300 -7.921800 -21.472300
O -0.607500 -5.486100 -19.032100
H -0.560800 -8.554300 -21.307700
O -0.489500 -12.483000 -24.202000
N -0.302600 -6.412800 -19.759100
O 0.679200 -7.130800 -19.600600
O 1.605500 -11.369800 -18.503200
N 2.587200 -10.651800 -18.344700
O 2.774100 -16.722000 -13.901800
H 2.845400 -12.793300 -16.796200
O 2.892100 -9.725100 -19.071700
N 3.362000 -12.160800 -16.631600
C 3.434500 -10.958700 -17.239700
N 3.858700 -14.410100 -14.823900
N 3.943400 -16.508400 -13.654900
O 4.136700 -8.088000 -17.206200
C 4.320200 -12.160000 -15.683500
C 4.412600 -15.153600 -13.865200
C 4.458500 -10.280400 -16.617800
C 4.550900 -13.274000 -14.799500
O 4.734400 -17.346000 -13.276900
N 4.927700 -8.925600 -16.828200
N 5.012400 -11.023900 -15.659200
C 5.436500 -14.475300 -13.243400
N 5.509100 -13.273200 -13.851500
O 5.979000 -15.708900 -11.411300
H 6.025700 -12.640700 -13.686900
O 6.097000 -8.712000 -16.581300
N 6.283900 -14.782200 -12.138400
O 7.265600 -14.064200 -11.979800
