28
Fragment
O -8.939700 -14.699400 -17.940000
H -8.509900 -16.502600 -18.905300
N -8.016500 -13.879700 -18.156800
O -7.956600 -12.806700 -17.536400
N -7.930400 -16.505400 -19.443800
N -7.690900 -17.632100 -20.151400
O -7.448300 -21.908100 -22.366300
H -7.187900 -19.941800 -21.680100
C -7.073200 -15.524100 -19.726100
C -7.056200 -14.216100 -19.123400
C -6.661700 -17.318600 -20.891100
O -6.649500 -23.414500 -23.692900
N -6.616000 -22.282400 -23.231900
N -6.464200 -19.518300 -22.061900
N -6.242100 -16.028500 -20.671600
N -6.090300 -13.264400 -19.501600
O -6.056800 -12.132300 -19.040600
C -6.044600 -18.228200 -21.842400
C -5.650100 -21.330700 -23.610100
C -5.633100 -20.022700 -23.007400
H -5.518400 -15.605000 -21.053400
O -5.257900 -13.638700 -20.367200
N -5.015400 -17.914700 -22.582100
N -4.775900 -19.041400 -23.289800
O -4.749700 -22.740100 -25.197100
N -4.689800 -21.667100 -24.576800
H -4.196400 -19.044200 -23.828200
O -3.766600 -20.847400 -24.793600
28
Fragment
O -3.825300 -5.812700 -17.940000
H -3.395500 -7.615900 -18.905300
N -2.902100 -4.993000 -18.156800
O -2.842200 -3.920000 -17.536400
N -2.816000 -7.618700 -19.443800
N -2.576500 -8.745400 -20.151400
O -2.333900 -13.021400 -22.366300
H -2.073500 -11.055100 -21.680100
C -1.958800 -6.637400 -19.726100
C -1.941800 -5.329400 -19.123400
C -1.547300 -8.431900 -20.891100
O -1.535100 -14.527800 -23.692900
N -1.501600 -13.395700 -23.231900
N -1.349800 -10.631600 -22.061900
N -1.127700 -7.141800 -20.671600
N -0.975900 -4.377700 -19.501600
O -0.942400 -3.245600 -19.040600
C -0.930200 -9.341500 -21.842400
C -0.535700 -12.444000 -23.610100
C -0.518700 -11.136000 -23.007400
H -0.404000 -6.718300 -21.053400
O -0.143500 -4.752000 -20.367200
N 0.099000 -9.028000 -22.582100
N 0.338500 -10.154700 -23.289800
O 0.364700 -13.853400 -25.197100
N 0.424600 -12.780400 -24.576800
H 0.918000 -10.157500 -23.828200
O 1.347800 -11.960700 -24.793600
56
Fragment
O -8.939700 -14.699400 -17.940000
H -8.509900 -16.502600 -18.905300
N -8.016500 -13.879700 -18.156800
O -7.956600 -12.806700 -17.536400
N -7.930400 -16.505400 -19.443800
N -7.690900 -17.632100 -20.151400
O -7.448300 -21.908100 -22.366300
H -7.187900 -19.941800 -21.680100
C -7.073200 -15.524100 -19.726100
C -7.056200 -14.216100 -19.123400
C -6.661700 -17.318600 -20.891100
O -6.649500 -23.414500 -23.692900
N -6.616000 -22.282400 -23.231900
N -6.464200 -19.518300 -22.061900
N -6.242100 -16.028500 -20.671600
N -6.090300 -13.264400 -19.501600
O -6.056800 -12.132300 -19.040600
C -6.044600 -18.228200 -21.842400
C -5.650100 -21.330700 -23.610100
C -5.633100 -20.022700 -23.007400
H -5.518400 -15.605000 -21.053400
O -5.257900 -13.638700 -20.367200
N -5.015400 -17.914700 -22.582100
N -4.775900 -19.041400 -23.289800
O -4.749700 -22.740100 -25.197100
N -4.689800 -21.667100 -24.576800
H -4.196400 -19.044200 -23.828200
O -3.766600 -20.847400 -24.793600
O -3.825300 -5.812700 -17.940000
H -3.395500 -7.615900 -18.905300
N -2.902100 -4.993000 -18.156800
O -2.842200 -3.920000 -17.536400
N -2.816000 -7.618700 -19.443800
N -2.576500 -8.745400 -20.151400
O -2.333900 -13.021400 -22.366300
H -2.073500 -11.055100 -21.680100
C -1.958800 -6.637400 -19.726100
C -1.941800 -5.329400 -19.123400
C -1.547300 -8.431900 -20.891100
O -1.535100 -14.527800 -23.692900
N -1.501600 -13.395700 -23.231900
N -1.349800 -10.631600 -22.061900
N -1.127700 -7.141800 -20.671600
N -0.975900 -4.377700 -19.501600
O -0.942400 -3.245600 -19.040600
C -0.930200 -9.341500 -21.842400
C -0.535700 -12.444000 -23.610100
C -0.518700 -11.136000 -23.007400
H -0.404000 -6.718300 -21.053400
O -0.143500 -4.752000 -20.367200
N 0.099000 -9.028000 -22.582100
N 0.338500 -10.154700 -23.289800
O 0.364700 -13.853400 -25.197100
N 0.424600 -12.780400 -24.576800
H 0.918000 -10.157500 -23.828200
O 1.347800 -11.960700 -24.793600
