35
Fragment
H -17.230900 -18.421300 -20.773100
H -16.898800 -16.494900 -15.859800
H -16.709800 -16.166100 -20.226500
H -16.590700 -16.146700 -14.361700
C -16.579600 -18.215400 -20.011600
C -16.324200 -16.902500 -19.667800
C -16.203300 -16.303300 -15.226400
H -16.163400 -20.158500 -19.525000
C -15.972600 -19.237400 -19.312100
H -15.601200 -17.049500 -15.176200
C -15.488900 -16.607200 -18.591600
C -15.455700 -15.090900 -15.661800
H -15.404400 -12.447400 -13.135200
C -15.156200 -15.191000 -18.306200
N -15.144300 -14.187600 -14.756000
C -15.131600 -18.956000 -18.250400
C -15.049900 -14.670300 -16.969100
H -14.953200 -10.470100 -11.900200
O -14.919600 -14.431800 -19.269300
C -14.894900 -17.641700 -17.880400
C -14.787400 -11.770300 -13.478000
H -14.699800 -19.679000 -17.754200
N -14.522800 -13.144900 -15.440300
C -14.508700 -10.618400 -12.766400
C -14.494100 -13.404300 -16.765200
H -14.266500 -17.418100 -17.152400
H -14.221300 -13.037300 -18.506300
C -14.214000 -11.952100 -14.732200
O -14.028300 -12.555400 -17.660700
C -13.692000 -9.646800 -13.297600
H -13.508800 -8.810200 -12.819200
C -13.369300 -10.992700 -15.268100
C -13.123100 -9.829600 -14.544700
H -12.951400 -11.135300 -16.166100
H -12.505400 -9.137900 -14.926300
20
Fragment
N -21.726800 -27.075200 -11.090200
C -21.332000 -26.305600 -11.837200
H -20.908100 -24.296500 -10.360100
C -20.823200 -25.365400 -12.789800
C -20.772600 -25.840100 -14.140100
N -20.760400 -26.253200 -15.206000
C -20.521100 -23.672300 -11.043300
C -20.401600 -24.106700 -12.417300
H -20.203900 -22.165800 -9.710200
C -20.105500 -22.449800 -10.656100
C -19.826600 -23.194800 -13.370200
H -19.728200 -23.478900 -14.316100
C -19.530500 -21.537900 -11.609000
C -19.410900 -21.972300 -12.983000
N -19.171700 -19.391400 -8.820300
C -19.159500 -19.804600 -9.886200
C -19.108900 -20.279200 -11.236500
H -19.024000 -21.348100 -13.666200
C -18.600100 -19.339100 -12.189100
N -18.205200 -18.569500 -12.936100
55
Fragment
H -17.230900 -18.421300 -20.773100
H -16.898800 -16.494900 -15.859800
H -16.709800 -16.166100 -20.226500
H -16.590700 -16.146700 -14.361700
C -16.579600 -18.215400 -20.011600
C -16.324200 -16.902500 -19.667800
C -16.203300 -16.303300 -15.226400
H -16.163400 -20.158500 -19.525000
C -15.972600 -19.237400 -19.312100
H -15.601200 -17.049500 -15.176200
C -15.488900 -16.607200 -18.591600
C -15.455700 -15.090900 -15.661800
H -15.404400 -12.447400 -13.135200
C -15.156200 -15.191000 -18.306200
N -15.144300 -14.187600 -14.756000
C -15.131600 -18.956000 -18.250400
C -15.049900 -14.670300 -16.969100
H -14.953200 -10.470100 -11.900200
O -14.919600 -14.431800 -19.269300
C -14.894900 -17.641700 -17.880400
C -14.787400 -11.770300 -13.478000
H -14.699800 -19.679000 -17.754200
N -14.522800 -13.144900 -15.440300
C -14.508700 -10.618400 -12.766400
C -14.494100 -13.404300 -16.765200
H -14.266500 -17.418100 -17.152400
H -14.221300 -13.037300 -18.506300
C -14.214000 -11.952100 -14.732200
O -14.028300 -12.555400 -17.660700
C -13.692000 -9.646800 -13.297600
H -13.508800 -8.810200 -12.819200
C -13.369300 -10.992700 -15.268100
C -13.123100 -9.829600 -14.544700
H -12.951400 -11.135300 -16.166100
H -12.505400 -9.137900 -14.926300
N -21.726800 -27.075200 -11.090200
C -21.332000 -26.305600 -11.837200
H -20.908100 -24.296500 -10.360100
C -20.823200 -25.365400 -12.789800
C -20.772600 -25.840100 -14.140100
N -20.760400 -26.253200 -15.206000
C -20.521100 -23.672300 -11.043300
C -20.401600 -24.106700 -12.417300
H -20.203900 -22.165800 -9.710200
C -20.105500 -22.449800 -10.656100
C -19.826600 -23.194800 -13.370200
H -19.728200 -23.478900 -14.316100
C -19.530500 -21.537900 -11.609000
C -19.410900 -21.972300 -12.983000
N -19.171700 -19.391400 -8.820300
C -19.159500 -19.804600 -9.886200
C -19.108900 -20.279200 -11.236500
H -19.024000 -21.348100 -13.666200
C -18.600100 -19.339100 -12.189100
N -18.205200 -18.569500 -12.936100
