35
Fragment
H -17.230900 -18.421300 -20.773100
H -16.898800 -16.494900 -15.859800
H -16.709800 -16.166100 -20.226500
H -16.590700 -16.146700 -14.361700
C -16.579600 -18.215400 -20.011600
C -16.324200 -16.902500 -19.667800
C -16.203300 -16.303300 -15.226400
H -16.163400 -20.158500 -19.525000
C -15.972600 -19.237400 -19.312100
H -15.601200 -17.049500 -15.176200
C -15.488900 -16.607200 -18.591600
C -15.455700 -15.090900 -15.661800
H -15.404400 -12.447400 -13.135200
C -15.156200 -15.191000 -18.306200
N -15.144300 -14.187600 -14.756000
C -15.131600 -18.956000 -18.250400
C -15.049900 -14.670300 -16.969100
H -14.953200 -10.470100 -11.900200
O -14.919600 -14.431800 -19.269300
C -14.894900 -17.641700 -17.880400
C -14.787400 -11.770300 -13.478000
H -14.699800 -19.679000 -17.754200
N -14.522800 -13.144900 -15.440300
C -14.508700 -10.618400 -12.766400
C -14.494100 -13.404300 -16.765200
H -14.266500 -17.418100 -17.152400
H -14.221300 -13.037300 -18.506300
C -14.214000 -11.952100 -14.732200
O -14.028300 -12.555400 -17.660700
C -13.692000 -9.646800 -13.297600
H -13.508800 -8.810200 -12.819200
C -13.369300 -10.992700 -15.268100
C -13.123100 -9.829600 -14.544700
H -12.951400 -11.135300 -16.166100
H -12.505400 -9.137900 -14.926300
20
Fragment
N -16.940000 -29.851800 -23.103300
C -16.545200 -29.082200 -23.850300
H -16.121200 -27.073100 -22.373300
C -16.036400 -28.142000 -24.803000
C -15.985800 -28.616600 -26.153200
N -15.973500 -29.029800 -27.219200
C -15.734300 -26.448900 -23.056500
C -15.614700 -26.883300 -24.430400
H -15.417100 -24.942300 -21.723400
C -15.318600 -25.226400 -22.669300
C -15.039800 -25.971400 -25.383300
H -14.941300 -26.255400 -26.329200
C -14.743700 -24.314500 -23.622200
C -14.624100 -24.748900 -24.996100
N -14.384900 -22.168000 -20.833500
C -14.372600 -22.581100 -21.899400
C -14.322100 -23.055800 -23.249700
H -14.237200 -24.124700 -25.679300
C -13.813300 -22.115600 -24.202300
N -13.418400 -21.346000 -24.949300
55
Fragment
H -17.230900 -18.421300 -20.773100
H -16.898800 -16.494900 -15.859800
H -16.709800 -16.166100 -20.226500
H -16.590700 -16.146700 -14.361700
C -16.579600 -18.215400 -20.011600
C -16.324200 -16.902500 -19.667800
C -16.203300 -16.303300 -15.226400
H -16.163400 -20.158500 -19.525000
C -15.972600 -19.237400 -19.312100
H -15.601200 -17.049500 -15.176200
C -15.488900 -16.607200 -18.591600
C -15.455700 -15.090900 -15.661800
H -15.404400 -12.447400 -13.135200
C -15.156200 -15.191000 -18.306200
N -15.144300 -14.187600 -14.756000
C -15.131600 -18.956000 -18.250400
C -15.049900 -14.670300 -16.969100
H -14.953200 -10.470100 -11.900200
O -14.919600 -14.431800 -19.269300
C -14.894900 -17.641700 -17.880400
C -14.787400 -11.770300 -13.478000
H -14.699800 -19.679000 -17.754200
N -14.522800 -13.144900 -15.440300
C -14.508700 -10.618400 -12.766400
C -14.494100 -13.404300 -16.765200
H -14.266500 -17.418100 -17.152400
H -14.221300 -13.037300 -18.506300
C -14.214000 -11.952100 -14.732200
O -14.028300 -12.555400 -17.660700
C -13.692000 -9.646800 -13.297600
H -13.508800 -8.810200 -12.819200
C -13.369300 -10.992700 -15.268100
C -13.123100 -9.829600 -14.544700
H -12.951400 -11.135300 -16.166100
H -12.505400 -9.137900 -14.926300
N -16.940000 -29.851800 -23.103300
C -16.545200 -29.082200 -23.850300
H -16.121200 -27.073100 -22.373300
C -16.036400 -28.142000 -24.803000
C -15.985800 -28.616600 -26.153200
N -15.973500 -29.029800 -27.219200
C -15.734300 -26.448900 -23.056500
C -15.614700 -26.883300 -24.430400
H -15.417100 -24.942300 -21.723400
C -15.318600 -25.226400 -22.669300
C -15.039800 -25.971400 -25.383300
H -14.941300 -26.255400 -26.329200
C -14.743700 -24.314500 -23.622200
C -14.624100 -24.748900 -24.996100
N -14.384900 -22.168000 -20.833500
C -14.372600 -22.581100 -21.899400
C -14.322100 -23.055800 -23.249700
H -14.237200 -24.124700 -25.679300
C -13.813300 -22.115600 -24.202300
N -13.418400 -21.346000 -24.949300
