35
Fragment
H -17.230900 -18.421300 -20.773100
H -16.898800 -16.494900 -15.859800
H -16.709800 -16.166100 -20.226500
H -16.590700 -16.146700 -14.361700
C -16.579600 -18.215400 -20.011600
C -16.324200 -16.902500 -19.667800
C -16.203300 -16.303300 -15.226400
H -16.163400 -20.158500 -19.525000
C -15.972600 -19.237400 -19.312100
H -15.601200 -17.049500 -15.176200
C -15.488900 -16.607200 -18.591600
C -15.455700 -15.090900 -15.661800
H -15.404400 -12.447400 -13.135200
C -15.156200 -15.191000 -18.306200
N -15.144300 -14.187600 -14.756000
C -15.131600 -18.956000 -18.250400
C -15.049900 -14.670300 -16.969100
H -14.953200 -10.470100 -11.900200
O -14.919600 -14.431800 -19.269300
C -14.894900 -17.641700 -17.880400
C -14.787400 -11.770300 -13.478000
H -14.699800 -19.679000 -17.754200
N -14.522800 -13.144900 -15.440300
C -14.508700 -10.618400 -12.766400
C -14.494100 -13.404300 -16.765200
H -14.266500 -17.418100 -17.152400
H -14.221300 -13.037300 -18.506300
C -14.214000 -11.952100 -14.732200
O -14.028300 -12.555400 -17.660700
C -13.692000 -9.646800 -13.297600
H -13.508800 -8.810200 -12.819200
C -13.369300 -10.992700 -15.268100
C -13.123100 -9.829600 -14.544700
H -12.951400 -11.135300 -16.166100
H -12.505400 -9.137900 -14.926300
35
Fragment
H -18.221400 -16.461000 -9.100000
H -17.775400 -14.463600 -7.860200
C -17.603700 -15.769300 -9.481600
C -17.357500 -14.606200 -8.758200
H -17.218000 -16.788700 -11.207100
C -17.034800 -15.952000 -10.728700
O -16.698500 -13.043500 -6.365700
C -16.512800 -13.646800 -9.294100
H -16.505500 -12.561600 -5.520000
H -16.460400 -8.180800 -6.873900
C -16.232700 -12.194500 -7.261100
C -16.218100 -14.980500 -11.259900
N -16.204000 -12.454000 -8.586000
H -16.027000 -5.919800 -6.272100
C -15.939400 -13.828600 -10.548300
C -15.831900 -7.957200 -6.145900
O -15.807200 -11.167000 -4.757000
H -15.773600 -15.128800 -12.126100
C -15.676900 -10.928500 -7.057200
C -15.595200 -6.642900 -5.775900
N -15.582500 -11.411300 -9.270300
C -15.570700 -10.407900 -5.720100
H -15.322400 -13.151500 -10.891100
C -15.271100 -10.507900 -8.364500
C -15.237900 -8.991700 -5.434800
H -15.125600 -8.549300 -8.850100
C -14.754200 -6.361500 -4.714200
H -14.563400 -5.440400 -4.501300
C -14.523500 -9.295600 -8.799900
C -14.402600 -8.696400 -4.358500
C -14.147200 -7.383500 -4.014700
H -14.136100 -9.452200 -9.664600
H -14.017100 -9.432800 -3.799800
H -13.828000 -9.104000 -8.166500
H -13.495900 -7.177600 -3.253200
70
Fragment
H -17.230900 -18.421300 -20.773100
H -16.898800 -16.494900 -15.859800
H -16.709800 -16.166100 -20.226500
H -16.590700 -16.146700 -14.361700
C -16.579600 -18.215400 -20.011600
C -16.324200 -16.902500 -19.667800
C -16.203300 -16.303300 -15.226400
H -16.163400 -20.158500 -19.525000
C -15.972600 -19.237400 -19.312100
H -15.601200 -17.049500 -15.176200
C -15.488900 -16.607200 -18.591600
C -15.455700 -15.090900 -15.661800
H -15.404400 -12.447400 -13.135200
C -15.156200 -15.191000 -18.306200
N -15.144300 -14.187600 -14.756000
C -15.131600 -18.956000 -18.250400
C -15.049900 -14.670300 -16.969100
H -14.953200 -10.470100 -11.900200
O -14.919600 -14.431800 -19.269300
C -14.894900 -17.641700 -17.880400
C -14.787400 -11.770300 -13.478000
H -14.699800 -19.679000 -17.754200
N -14.522800 -13.144900 -15.440300
C -14.508700 -10.618400 -12.766400
C -14.494100 -13.404300 -16.765200
H -14.266500 -17.418100 -17.152400
H -14.221300 -13.037300 -18.506300
C -14.214000 -11.952100 -14.732200
O -14.028300 -12.555400 -17.660700
C -13.692000 -9.646800 -13.297600
H -13.508800 -8.810200 -12.819200
C -13.369300 -10.992700 -15.268100
C -13.123100 -9.829600 -14.544700
H -12.951400 -11.135300 -16.166100
H -12.505400 -9.137900 -14.926300
H -18.221400 -16.461000 -9.100000
H -17.775400 -14.463600 -7.860200
C -17.603700 -15.769300 -9.481600
C -17.357500 -14.606200 -8.758200
H -17.218000 -16.788700 -11.207100
C -17.034800 -15.952000 -10.728700
O -16.698500 -13.043500 -6.365700
C -16.512800 -13.646800 -9.294100
H -16.505500 -12.561600 -5.520000
H -16.460400 -8.180800 -6.873900
C -16.232700 -12.194500 -7.261100
C -16.218100 -14.980500 -11.259900
N -16.204000 -12.454000 -8.586000
H -16.027000 -5.919800 -6.272100
C -15.939400 -13.828600 -10.548300
C -15.831900 -7.957200 -6.145900
O -15.807200 -11.167000 -4.757000
H -15.773600 -15.128800 -12.126100
C -15.676900 -10.928500 -7.057200
C -15.595200 -6.642900 -5.775900
N -15.582500 -11.411300 -9.270300
C -15.570700 -10.407900 -5.720100
H -15.322400 -13.151500 -10.891100
C -15.271100 -10.507900 -8.364500
C -15.237900 -8.991700 -5.434800
H -15.125600 -8.549300 -8.850100
C -14.754200 -6.361500 -4.714200
H -14.563400 -5.440400 -4.501300
C -14.523500 -9.295600 -8.799900
C -14.402600 -8.696400 -4.358500
C -14.147200 -7.383500 -4.014700
H -14.136100 -9.452200 -9.664600
H -14.017100 -9.432800 -3.799800
H -13.828000 -9.104000 -8.166500
H -13.495900 -7.177600 -3.253200
