35
Fragment
H -17.230900 -18.421300 -20.773100
H -16.898800 -16.494900 -15.859800
H -16.709800 -16.166100 -20.226500
H -16.590700 -16.146700 -14.361700
C -16.579600 -18.215400 -20.011600
C -16.324200 -16.902500 -19.667800
C -16.203300 -16.303300 -15.226400
H -16.163400 -20.158500 -19.525000
C -15.972600 -19.237400 -19.312100
H -15.601200 -17.049500 -15.176200
C -15.488900 -16.607200 -18.591600
C -15.455700 -15.090900 -15.661800
H -15.404400 -12.447400 -13.135200
C -15.156200 -15.191000 -18.306200
N -15.144300 -14.187600 -14.756000
C -15.131600 -18.956000 -18.250400
C -15.049900 -14.670300 -16.969100
H -14.953200 -10.470100 -11.900200
O -14.919600 -14.431800 -19.269300
C -14.894900 -17.641700 -17.880400
C -14.787400 -11.770300 -13.478000
H -14.699800 -19.679000 -17.754200
N -14.522800 -13.144900 -15.440300
C -14.508700 -10.618400 -12.766400
C -14.494100 -13.404300 -16.765200
H -14.266500 -17.418100 -17.152400
H -14.221300 -13.037300 -18.506300
C -14.214000 -11.952100 -14.732200
O -14.028300 -12.555400 -17.660700
C -13.692000 -9.646800 -13.297600
H -13.508800 -8.810200 -12.819200
C -13.369300 -10.992700 -15.268100
C -13.123100 -9.829600 -14.544700
H -12.951400 -11.135300 -16.166100
H -12.505400 -9.137900 -14.926300
35
Fragment
H -21.208400 -19.237600 -21.113100
H -20.762400 -17.240100 -19.873400
C -20.590700 -18.545800 -21.494800
C -20.344500 -17.382700 -20.771300
H -20.205000 -19.565200 -23.220200
C -20.021800 -18.728600 -22.741900
O -19.685400 -15.820100 -18.378800
C -19.499800 -16.423300 -21.307300
H -19.492500 -15.338200 -17.533200
H -19.447300 -10.957400 -18.887100
C -19.219700 -14.971100 -19.274300
C -19.205100 -17.757100 -23.273100
N -19.191000 -15.230500 -20.599200
H -19.014000 -8.696400 -18.285200
C -18.926300 -16.605200 -22.561400
C -18.818900 -10.733800 -18.159100
O -18.794100 -13.943600 -16.770100
H -18.760600 -17.905400 -24.139200
C -18.663900 -13.705100 -19.070400
C -18.582200 -9.419500 -17.789100
N -18.569500 -14.187800 -21.283500
C -18.557600 -13.184500 -17.733200
H -18.309400 -15.928100 -22.904300
C -18.258100 -13.284500 -20.377700
C -18.224900 -11.768200 -17.447900
H -18.112500 -11.325900 -20.863200
C -17.741200 -9.138100 -16.727400
H -17.550400 -8.217000 -16.514500
C -17.510500 -12.072100 -20.813000
C -17.389500 -11.473000 -16.371600
C -17.134200 -10.160100 -16.027800
H -17.123100 -12.228800 -21.677700
H -17.004000 -12.209300 -15.812900
H -16.815000 -11.880500 -20.179700
H -16.482900 -9.954100 -15.266300
70
Fragment
H -17.230900 -18.421300 -20.773100
H -16.898800 -16.494900 -15.859800
H -16.709800 -16.166100 -20.226500
H -16.590700 -16.146700 -14.361700
C -16.579600 -18.215400 -20.011600
C -16.324200 -16.902500 -19.667800
C -16.203300 -16.303300 -15.226400
H -16.163400 -20.158500 -19.525000
C -15.972600 -19.237400 -19.312100
H -15.601200 -17.049500 -15.176200
C -15.488900 -16.607200 -18.591600
C -15.455700 -15.090900 -15.661800
H -15.404400 -12.447400 -13.135200
C -15.156200 -15.191000 -18.306200
N -15.144300 -14.187600 -14.756000
C -15.131600 -18.956000 -18.250400
C -15.049900 -14.670300 -16.969100
H -14.953200 -10.470100 -11.900200
O -14.919600 -14.431800 -19.269300
C -14.894900 -17.641700 -17.880400
C -14.787400 -11.770300 -13.478000
H -14.699800 -19.679000 -17.754200
N -14.522800 -13.144900 -15.440300
C -14.508700 -10.618400 -12.766400
C -14.494100 -13.404300 -16.765200
H -14.266500 -17.418100 -17.152400
H -14.221300 -13.037300 -18.506300
C -14.214000 -11.952100 -14.732200
O -14.028300 -12.555400 -17.660700
C -13.692000 -9.646800 -13.297600
H -13.508800 -8.810200 -12.819200
C -13.369300 -10.992700 -15.268100
C -13.123100 -9.829600 -14.544700
H -12.951400 -11.135300 -16.166100
H -12.505400 -9.137900 -14.926300
H -21.208400 -19.237600 -21.113100
H -20.762400 -17.240100 -19.873400
C -20.590700 -18.545800 -21.494800
C -20.344500 -17.382700 -20.771300
H -20.205000 -19.565200 -23.220200
C -20.021800 -18.728600 -22.741900
O -19.685400 -15.820100 -18.378800
C -19.499800 -16.423300 -21.307300
H -19.492500 -15.338200 -17.533200
H -19.447300 -10.957400 -18.887100
C -19.219700 -14.971100 -19.274300
C -19.205100 -17.757100 -23.273100
N -19.191000 -15.230500 -20.599200
H -19.014000 -8.696400 -18.285200
C -18.926300 -16.605200 -22.561400
C -18.818900 -10.733800 -18.159100
O -18.794100 -13.943600 -16.770100
H -18.760600 -17.905400 -24.139200
C -18.663900 -13.705100 -19.070400
C -18.582200 -9.419500 -17.789100
N -18.569500 -14.187800 -21.283500
C -18.557600 -13.184500 -17.733200
H -18.309400 -15.928100 -22.904300
C -18.258100 -13.284500 -20.377700
C -18.224900 -11.768200 -17.447900
H -18.112500 -11.325900 -20.863200
C -17.741200 -9.138100 -16.727400
H -17.550400 -8.217000 -16.514500
C -17.510500 -12.072100 -20.813000
C -17.389500 -11.473000 -16.371600
C -17.134200 -10.160100 -16.027800
H -17.123100 -12.228800 -21.677700
H -17.004000 -12.209300 -15.812900
H -16.815000 -11.880500 -20.179700
H -16.482900 -9.954100 -15.266300
