35
Fragment
H -17.230900 -18.421300 -20.773100
H -16.898800 -16.494900 -15.859800
H -16.709800 -16.166100 -20.226500
H -16.590700 -16.146700 -14.361700
C -16.579600 -18.215400 -20.011600
C -16.324200 -16.902500 -19.667800
C -16.203300 -16.303300 -15.226400
H -16.163400 -20.158500 -19.525000
C -15.972600 -19.237400 -19.312100
H -15.601200 -17.049500 -15.176200
C -15.488900 -16.607200 -18.591600
C -15.455700 -15.090900 -15.661800
H -15.404400 -12.447400 -13.135200
C -15.156200 -15.191000 -18.306200
N -15.144300 -14.187600 -14.756000
C -15.131600 -18.956000 -18.250400
C -15.049900 -14.670300 -16.969100
H -14.953200 -10.470100 -11.900200
O -14.919600 -14.431800 -19.269300
C -14.894900 -17.641700 -17.880400
C -14.787400 -11.770300 -13.478000
H -14.699800 -19.679000 -17.754200
N -14.522800 -13.144900 -15.440300
C -14.508700 -10.618400 -12.766400
C -14.494100 -13.404300 -16.765200
H -14.266500 -17.418100 -17.152400
H -14.221300 -13.037300 -18.506300
C -14.214000 -11.952100 -14.732200
O -14.028300 -12.555400 -17.660700
C -13.692000 -9.646800 -13.297600
H -13.508800 -8.810200 -12.819200
C -13.369300 -10.992700 -15.268100
C -13.123100 -9.829600 -14.544700
H -12.951400 -11.135300 -16.166100
H -12.505400 -9.137900 -14.926300
35
Fragment
H -21.924100 -29.260500 -21.113100
H -21.478100 -27.263000 -19.873400
C -21.306400 -28.568700 -21.494800
C -21.060200 -27.405600 -20.771300
H -20.920700 -29.588100 -23.220200
C -20.737500 -28.751500 -22.741900
O -20.401200 -25.842900 -18.378800
C -20.215500 -26.446200 -21.307300
H -20.208200 -25.361000 -17.533200
H -20.163100 -20.980200 -18.887100
C -19.935500 -24.994000 -19.274300
C -19.920800 -27.780000 -23.273100
N -19.906800 -25.253400 -20.599200
H -19.729700 -18.719300 -18.285200
C -19.642100 -26.628000 -22.561400
C -19.534600 -20.756700 -18.159100
O -19.509900 -23.966500 -16.770100
H -19.476300 -27.928200 -24.139200
C -19.379700 -23.728000 -19.070400
C -19.298000 -19.442300 -17.789100
N -19.285200 -24.210700 -21.283500
C -19.273400 -23.207300 -17.733200
H -19.025100 -25.951000 -22.904300
C -18.973800 -23.307400 -20.377700
C -18.940600 -21.791100 -17.447900
H -18.828300 -21.348800 -20.863200
C -18.456900 -19.161000 -16.727400
H -18.266100 -18.239900 -16.514500
C -18.226200 -22.095000 -20.813000
C -18.105300 -21.495900 -16.371600
C -17.849900 -20.183000 -16.027800
H -17.838800 -22.251700 -21.677700
H -17.719800 -22.232200 -15.812900
H -17.530700 -21.903400 -20.179700
H -17.198600 -19.977000 -15.266300
70
Fragment
H -17.230900 -18.421300 -20.773100
H -16.898800 -16.494900 -15.859800
H -16.709800 -16.166100 -20.226500
H -16.590700 -16.146700 -14.361700
C -16.579600 -18.215400 -20.011600
C -16.324200 -16.902500 -19.667800
C -16.203300 -16.303300 -15.226400
H -16.163400 -20.158500 -19.525000
C -15.972600 -19.237400 -19.312100
H -15.601200 -17.049500 -15.176200
C -15.488900 -16.607200 -18.591600
C -15.455700 -15.090900 -15.661800
H -15.404400 -12.447400 -13.135200
C -15.156200 -15.191000 -18.306200
N -15.144300 -14.187600 -14.756000
C -15.131600 -18.956000 -18.250400
C -15.049900 -14.670300 -16.969100
H -14.953200 -10.470100 -11.900200
O -14.919600 -14.431800 -19.269300
C -14.894900 -17.641700 -17.880400
C -14.787400 -11.770300 -13.478000
H -14.699800 -19.679000 -17.754200
N -14.522800 -13.144900 -15.440300
C -14.508700 -10.618400 -12.766400
C -14.494100 -13.404300 -16.765200
H -14.266500 -17.418100 -17.152400
H -14.221300 -13.037300 -18.506300
C -14.214000 -11.952100 -14.732200
O -14.028300 -12.555400 -17.660700
C -13.692000 -9.646800 -13.297600
H -13.508800 -8.810200 -12.819200
C -13.369300 -10.992700 -15.268100
C -13.123100 -9.829600 -14.544700
H -12.951400 -11.135300 -16.166100
H -12.505400 -9.137900 -14.926300
H -21.924100 -29.260500 -21.113100
H -21.478100 -27.263000 -19.873400
C -21.306400 -28.568700 -21.494800
C -21.060200 -27.405600 -20.771300
H -20.920700 -29.588100 -23.220200
C -20.737500 -28.751500 -22.741900
O -20.401200 -25.842900 -18.378800
C -20.215500 -26.446200 -21.307300
H -20.208200 -25.361000 -17.533200
H -20.163100 -20.980200 -18.887100
C -19.935500 -24.994000 -19.274300
C -19.920800 -27.780000 -23.273100
N -19.906800 -25.253400 -20.599200
H -19.729700 -18.719300 -18.285200
C -19.642100 -26.628000 -22.561400
C -19.534600 -20.756700 -18.159100
O -19.509900 -23.966500 -16.770100
H -19.476300 -27.928200 -24.139200
C -19.379700 -23.728000 -19.070400
C -19.298000 -19.442300 -17.789100
N -19.285200 -24.210700 -21.283500
C -19.273400 -23.207300 -17.733200
H -19.025100 -25.951000 -22.904300
C -18.973800 -23.307400 -20.377700
C -18.940600 -21.791100 -17.447900
H -18.828300 -21.348800 -20.863200
C -18.456900 -19.161000 -16.727400
H -18.266100 -18.239900 -16.514500
C -18.226200 -22.095000 -20.813000
C -18.105300 -21.495900 -16.371600
C -17.849900 -20.183000 -16.027800
H -17.838800 -22.251700 -21.677700
H -17.719800 -22.232200 -15.812900
H -17.530700 -21.903400 -20.179700
H -17.198600 -19.977000 -15.266300
