35
Fragment
H -17.230900 -18.421300 -20.773100
H -16.898800 -16.494900 -15.859800
H -16.709800 -16.166100 -20.226500
H -16.590700 -16.146700 -14.361700
C -16.579600 -18.215400 -20.011600
C -16.324200 -16.902500 -19.667800
C -16.203300 -16.303300 -15.226400
H -16.163400 -20.158500 -19.525000
C -15.972600 -19.237400 -19.312100
H -15.601200 -17.049500 -15.176200
C -15.488900 -16.607200 -18.591600
C -15.455700 -15.090900 -15.661800
H -15.404400 -12.447400 -13.135200
C -15.156200 -15.191000 -18.306200
N -15.144300 -14.187600 -14.756000
C -15.131600 -18.956000 -18.250400
C -15.049900 -14.670300 -16.969100
H -14.953200 -10.470100 -11.900200
O -14.919600 -14.431800 -19.269300
C -14.894900 -17.641700 -17.880400
C -14.787400 -11.770300 -13.478000
H -14.699800 -19.679000 -17.754200
N -14.522800 -13.144900 -15.440300
C -14.508700 -10.618400 -12.766400
C -14.494100 -13.404300 -16.765200
H -14.266500 -17.418100 -17.152400
H -14.221300 -13.037300 -18.506300
C -14.214000 -11.952100 -14.732200
O -14.028300 -12.555400 -17.660700
C -13.692000 -9.646800 -13.297600
H -13.508800 -8.810200 -12.819200
C -13.369300 -10.992700 -15.268100
C -13.123100 -9.829600 -14.544700
H -12.951400 -11.135300 -16.166100
H -12.505400 -9.137900 -14.926300
35
Fragment
H -16.515200 -8.398400 -20.773100
H -16.183100 -6.472000 -15.859800
H -15.994000 -6.143300 -20.226500
H -15.875000 -6.123800 -14.361700
C -15.863900 -8.192500 -20.011600
C -15.608500 -6.879600 -19.667800
C -15.487600 -6.280400 -15.226400
H -15.447700 -10.135600 -19.525000
C -15.256900 -9.214500 -19.312100
H -14.885500 -7.026700 -15.176200
C -14.773100 -6.584300 -18.591600
C -14.740000 -5.068100 -15.661800
H -14.688700 -2.424500 -13.135200
C -14.440400 -5.168100 -18.306200
N -14.428600 -4.164700 -14.756000
C -14.415800 -8.933100 -18.250400
C -14.334100 -4.647500 -16.969100
H -14.237500 -0.447200 -11.900200
O -14.203900 -4.409000 -19.269300
C -14.179200 -7.618800 -17.880400
C -14.071700 -1.747400 -13.478000
H -13.984100 -9.656200 -17.754200
N -13.807000 -3.122000 -15.440300
C -13.793000 -0.595500 -12.766400
C -13.778300 -3.381500 -16.765200
H -13.550700 -7.395200 -17.152400
H -13.505600 -3.014400 -18.506300
C -13.498300 -1.929200 -14.732200
O -13.312600 -2.532500 -17.660700
C -12.976300 0.376000 -13.297600
H -12.793100 1.212700 -12.819200
C -12.653600 -0.969800 -15.268100
C -12.407400 0.193200 -14.544700
H -12.235700 -1.112400 -16.166100
H -11.789700 0.885000 -14.926300
70
Fragment
H -17.230900 -18.421300 -20.773100
H -16.898800 -16.494900 -15.859800
H -16.709800 -16.166100 -20.226500
H -16.590700 -16.146700 -14.361700
C -16.579600 -18.215400 -20.011600
C -16.324200 -16.902500 -19.667800
C -16.203300 -16.303300 -15.226400
H -16.163400 -20.158500 -19.525000
C -15.972600 -19.237400 -19.312100
H -15.601200 -17.049500 -15.176200
C -15.488900 -16.607200 -18.591600
C -15.455700 -15.090900 -15.661800
H -15.404400 -12.447400 -13.135200
C -15.156200 -15.191000 -18.306200
N -15.144300 -14.187600 -14.756000
C -15.131600 -18.956000 -18.250400
C -15.049900 -14.670300 -16.969100
H -14.953200 -10.470100 -11.900200
O -14.919600 -14.431800 -19.269300
C -14.894900 -17.641700 -17.880400
C -14.787400 -11.770300 -13.478000
H -14.699800 -19.679000 -17.754200
N -14.522800 -13.144900 -15.440300
C -14.508700 -10.618400 -12.766400
C -14.494100 -13.404300 -16.765200
H -14.266500 -17.418100 -17.152400
H -14.221300 -13.037300 -18.506300
C -14.214000 -11.952100 -14.732200
O -14.028300 -12.555400 -17.660700
C -13.692000 -9.646800 -13.297600
H -13.508800 -8.810200 -12.819200
C -13.369300 -10.992700 -15.268100
C -13.123100 -9.829600 -14.544700
H -12.951400 -11.135300 -16.166100
H -12.505400 -9.137900 -14.926300
H -16.515200 -8.398400 -20.773100
H -16.183100 -6.472000 -15.859800
H -15.994000 -6.143300 -20.226500
H -15.875000 -6.123800 -14.361700
C -15.863900 -8.192500 -20.011600
C -15.608500 -6.879600 -19.667800
C -15.487600 -6.280400 -15.226400
H -15.447700 -10.135600 -19.525000
C -15.256900 -9.214500 -19.312100
H -14.885500 -7.026700 -15.176200
C -14.773100 -6.584300 -18.591600
C -14.740000 -5.068100 -15.661800
H -14.688700 -2.424500 -13.135200
C -14.440400 -5.168100 -18.306200
N -14.428600 -4.164700 -14.756000
C -14.415800 -8.933100 -18.250400
C -14.334100 -4.647500 -16.969100
H -14.237500 -0.447200 -11.900200
O -14.203900 -4.409000 -19.269300
C -14.179200 -7.618800 -17.880400
C -14.071700 -1.747400 -13.478000
H -13.984100 -9.656200 -17.754200
N -13.807000 -3.122000 -15.440300
C -13.793000 -0.595500 -12.766400
C -13.778300 -3.381500 -16.765200
H -13.550700 -7.395200 -17.152400
H -13.505600 -3.014400 -18.506300
C -13.498300 -1.929200 -14.732200
O -13.312600 -2.532500 -17.660700
C -12.976300 0.376000 -13.297600
H -12.793100 1.212700 -12.819200
C -12.653600 -0.969800 -15.268100
C -12.407400 0.193200 -14.544700
H -12.235700 -1.112400 -16.166100
H -11.789700 0.885000 -14.926300
