20
Fragment
N -13.226600 -8.088200 -16.353100
C -12.861600 -8.598500 -17.304700
N -12.590300 -11.833000 -18.480600
C -12.520600 -10.689800 -18.485100
C -12.418100 -9.264900 -18.490600
H -12.044600 -6.681400 -18.731400
C -11.904300 -8.576100 -19.568800
C -11.765400 -7.140600 -19.538100
H -11.567500 -10.202800 -20.788400
C -11.470200 -9.268400 -20.754500
C -11.237500 -6.476600 -20.577000
H -11.140300 -5.542200 -20.543100
C -10.942400 -8.604400 -21.793400
C -10.803500 -7.168900 -21.762700
H -10.663200 -9.063600 -22.600100
C -10.289600 -6.480100 -22.840900
C -10.187100 -5.055200 -22.846400
N -10.117400 -3.912000 -22.851000
C -9.846200 -7.146500 -24.026800
N -9.481100 -7.656800 -24.978400
18
Fragment
H -16.251600 -16.784200 -18.286400
C -15.812700 -16.555100 -19.145600
H -15.751800 -18.484600 -19.931400
H -15.729100 -14.564100 -18.735600
C -15.535900 -15.243500 -19.388600
C -15.508500 -17.511600 -20.101700
C -14.943900 -14.835100 -20.599600
C -14.906500 -17.164000 -21.282400
H -14.876900 -12.792800 -20.310300
H -14.736500 -17.807600 -21.952500
C -14.662000 -13.478700 -20.940200
C -14.620600 -15.824400 -21.543600
C -14.088000 -13.153400 -22.111700
N -14.014200 -15.446900 -22.725300
H -13.893600 -12.257500 -22.354800
H -13.758100 -16.185900 -23.342700
C -13.719700 -14.165300 -23.071400
O -13.142900 -13.927800 -24.152200
38
Fragment
N -13.226600 -8.088200 -16.353100
C -12.861600 -8.598500 -17.304700
N -12.590300 -11.833000 -18.480600
C -12.520600 -10.689800 -18.485100
C -12.418100 -9.264900 -18.490600
H -12.044600 -6.681400 -18.731400
C -11.904300 -8.576100 -19.568800
C -11.765400 -7.140600 -19.538100
H -11.567500 -10.202800 -20.788400
C -11.470200 -9.268400 -20.754500
C -11.237500 -6.476600 -20.577000
H -11.140300 -5.542200 -20.543100
C -10.942400 -8.604400 -21.793400
C -10.803500 -7.168900 -21.762700
H -10.663200 -9.063600 -22.600100
C -10.289600 -6.480100 -22.840900
C -10.187100 -5.055200 -22.846400
N -10.117400 -3.912000 -22.851000
C -9.846200 -7.146500 -24.026800
N -9.481100 -7.656800 -24.978400
H -16.251600 -16.784200 -18.286400
C -15.812700 -16.555100 -19.145600
H -15.751800 -18.484600 -19.931400
H -15.729100 -14.564100 -18.735600
C -15.535900 -15.243500 -19.388600
C -15.508500 -17.511600 -20.101700
C -14.943900 -14.835100 -20.599600
C -14.906500 -17.164000 -21.282400
H -14.876900 -12.792800 -20.310300
H -14.736500 -17.807600 -21.952500
C -14.662000 -13.478700 -20.940200
C -14.620600 -15.824400 -21.543600
C -14.088000 -13.153400 -22.111700
N -14.014200 -15.446900 -22.725300
H -13.893600 -12.257500 -22.354800
H -13.758100 -16.185900 -23.342700
C -13.719700 -14.165300 -23.071400
O -13.142900 -13.927800 -24.152200
