20
Fragment
N -13.243700 -11.363900 -16.324000
C -12.304700 -10.746500 -16.505000
N -11.350400 -7.425400 -16.375200
C -11.262900 -8.552200 -16.530500
C -11.133200 -9.963200 -16.740400
H -10.598500 -12.511400 -17.147400
C -9.950600 -10.524400 -17.158700
C -9.830900 -11.946500 -17.345700
H -8.873200 -8.758000 -17.277500
C -8.789200 -9.710800 -17.402200
C -8.670100 -12.498800 -17.738400
H -8.586100 -13.451600 -17.863100
C -7.628400 -10.263100 -17.794800
C -7.508700 -11.685200 -17.981900
H -6.860800 -9.698200 -17.993200
C -6.326100 -12.246400 -18.400200
C -6.196300 -13.657400 -18.610100
N -6.108900 -14.784200 -18.765400
C -5.154500 -11.463100 -18.635600
N -4.215600 -10.845700 -18.816600
12
Fragment
H -3.328600 -15.487500 -18.952500
H -2.698700 -13.214700 -19.200800
C -2.454100 -15.281700 -19.227100
C -2.045100 -13.955800 -19.400700
H -1.777000 -17.168000 -19.402300
C -1.573800 -16.264800 -19.492300
C -0.790100 -13.655900 -19.811200
H -0.494800 -12.755700 -19.984500
N -0.310200 -15.969800 -19.904300
C 0.150900 -14.689400 -20.081000
H 0.289700 -16.664600 -20.150800
O 1.326900 -14.522300 -20.472000
32
Fragment
N -13.243700 -11.363900 -16.324000
C -12.304700 -10.746500 -16.505000
N -11.350400 -7.425400 -16.375200
C -11.262900 -8.552200 -16.530500
C -11.133200 -9.963200 -16.740400
H -10.598500 -12.511400 -17.147400
C -9.950600 -10.524400 -17.158700
C -9.830900 -11.946500 -17.345700
H -8.873200 -8.758000 -17.277500
C -8.789200 -9.710800 -17.402200
C -8.670100 -12.498800 -17.738400
H -8.586100 -13.451600 -17.863100
C -7.628400 -10.263100 -17.794800
C -7.508700 -11.685200 -17.981900
H -6.860800 -9.698200 -17.993200
C -6.326100 -12.246400 -18.400200
C -6.196300 -13.657400 -18.610100
N -6.108900 -14.784200 -18.765400
C -5.154500 -11.463100 -18.635600
N -4.215600 -10.845700 -18.816600
H -3.328600 -15.487500 -18.952500
H -2.698700 -13.214700 -19.200800
C -2.454100 -15.281700 -19.227100
C -2.045100 -13.955800 -19.400700
H -1.777000 -17.168000 -19.402300
C -1.573800 -16.264800 -19.492300
C -0.790100 -13.655900 -19.811200
H -0.494800 -12.755700 -19.984500
N -0.310200 -15.969800 -19.904300
C 0.150900 -14.689400 -20.081000
H 0.289700 -16.664600 -20.150800
O 1.326900 -14.522300 -20.472000
