20
Fragment
N -8.476900 -24.191800 -12.191400
H -7.913000 -26.424800 -10.183900
H -7.767100 -28.173800 -8.764700
N -7.743900 -30.563400 -6.853400
C -7.660700 -24.980800 -12.297000
C -7.355600 -27.118800 -10.392100
C -7.256900 -28.149400 -9.550600
C -7.076900 -30.431800 -7.771300
C -6.673600 -26.007800 -12.463800
C -6.563500 -27.055600 -11.592400
C -6.351000 -29.243300 -9.802300
C -6.240900 -30.291100 -8.930900
C -5.837600 -25.867100 -13.623400
C -5.657600 -28.149400 -11.844100
C -5.558900 -29.180100 -11.002600
C -5.253700 -31.318100 -9.097700
N -5.170600 -25.735500 -14.541300
H -5.147400 -28.125100 -12.630000
H -5.001500 -29.874100 -11.210800
N -4.437600 -32.107100 -9.203300
12
Fragment
H -9.129100 -22.016600 -7.538100
H -8.663700 -23.266500 -9.506400
C -8.605800 -21.633400 -8.234100
C -8.314800 -22.333400 -9.375900
N -8.168800 -20.399700 -7.996900
C -7.545500 -21.679600 -10.310100
C -7.426400 -19.846700 -8.974300
H -7.273700 -22.099200 -11.182300
H -7.257300 -18.128200 -7.994500
N -7.097800 -20.437400 -10.138400
N -6.966700 -18.598200 -8.768200
H -6.581500 -18.154500 -9.477800
32
Fragment
N -8.476900 -24.191800 -12.191400
H -7.913000 -26.424800 -10.183900
H -7.767100 -28.173800 -8.764700
N -7.743900 -30.563400 -6.853400
C -7.660700 -24.980800 -12.297000
C -7.355600 -27.118800 -10.392100
C -7.256900 -28.149400 -9.550600
C -7.076900 -30.431800 -7.771300
C -6.673600 -26.007800 -12.463800
C -6.563500 -27.055600 -11.592400
C -6.351000 -29.243300 -9.802300
C -6.240900 -30.291100 -8.930900
C -5.837600 -25.867100 -13.623400
C -5.657600 -28.149400 -11.844100
C -5.558900 -29.180100 -11.002600
C -5.253700 -31.318100 -9.097700
N -5.170600 -25.735500 -14.541300
H -5.147400 -28.125100 -12.630000
H -5.001500 -29.874100 -11.210800
N -4.437600 -32.107100 -9.203300
H -9.129100 -22.016600 -7.538100
H -8.663700 -23.266500 -9.506400
C -8.605800 -21.633400 -8.234100
C -8.314800 -22.333400 -9.375900
N -8.168800 -20.399700 -7.996900
C -7.545500 -21.679600 -10.310100
C -7.426400 -19.846700 -8.974300
H -7.273700 -22.099200 -11.182300
H -7.257300 -18.128200 -7.994500
N -7.097800 -20.437400 -10.138400
N -6.966700 -18.598200 -8.768200
H -6.581500 -18.154500 -9.477800
