20
Fragment
N -17.413400 -3.167000 -23.833200
C -16.953300 -4.205200 -23.682600
H -16.741900 -4.330100 -21.180700
C -16.367900 -5.500600 -23.498300
C -16.335500 -5.185800 -21.067100
H -16.233200 -5.126200 -19.051700
C -16.122200 -6.248600 -24.699300
C -16.071200 -5.979600 -22.245100
C -16.055400 -5.657700 -19.843100
N -15.927500 -6.805800 -25.672700
N -15.616100 -6.139200 -16.236000
C -15.488200 -7.287300 -22.065600
C -15.472400 -6.965400 -19.663600
C -15.421400 -6.696400 -17.209400
H -15.310400 -7.818800 -22.857000
C -15.208200 -7.759200 -20.841600
C -15.175800 -7.444400 -18.410300
H -14.801700 -8.614900 -20.728000
C -14.590400 -8.739800 -18.226100
N -14.130200 -9.778000 -18.075500
20
Fragment
N -17.413400 -9.639500 -23.833200
C -16.953300 -10.677700 -23.682600
H -16.741900 -10.802600 -21.180700
C -16.367900 -11.973100 -23.498300
C -16.335500 -11.658300 -21.067100
H -16.233200 -11.598700 -19.051700
C -16.122200 -12.721100 -24.699300
C -16.071200 -12.452100 -22.245100
C -16.055400 -12.130200 -19.843100
N -15.927500 -13.278300 -25.672700
N -15.616100 -12.611700 -16.236000
C -15.488200 -13.759800 -22.065600
C -15.472400 -13.437900 -19.663600
C -15.421400 -13.168900 -17.209400
H -15.310400 -14.291300 -22.857000
C -15.208200 -14.231700 -20.841600
C -15.175800 -13.916900 -18.410300
H -14.801700 -15.087400 -20.728000
C -14.590400 -15.212300 -18.226100
N -14.130200 -16.250500 -18.075500
40
Fragment
N -17.413400 -3.167000 -23.833200
C -16.953300 -4.205200 -23.682600
H -16.741900 -4.330100 -21.180700
C -16.367900 -5.500600 -23.498300
C -16.335500 -5.185800 -21.067100
H -16.233200 -5.126200 -19.051700
C -16.122200 -6.248600 -24.699300
C -16.071200 -5.979600 -22.245100
C -16.055400 -5.657700 -19.843100
N -15.927500 -6.805800 -25.672700
N -15.616100 -6.139200 -16.236000
C -15.488200 -7.287300 -22.065600
C -15.472400 -6.965400 -19.663600
C -15.421400 -6.696400 -17.209400
H -15.310400 -7.818800 -22.857000
C -15.208200 -7.759200 -20.841600
C -15.175800 -7.444400 -18.410300
H -14.801700 -8.614900 -20.728000
C -14.590400 -8.739800 -18.226100
N -14.130200 -9.778000 -18.075500
N -17.413400 -9.639500 -23.833200
C -16.953300 -10.677700 -23.682600
H -16.741900 -10.802600 -21.180700
C -16.367900 -11.973100 -23.498300
C -16.335500 -11.658300 -21.067100
H -16.233200 -11.598700 -19.051700
C -16.122200 -12.721100 -24.699300
C -16.071200 -12.452100 -22.245100
C -16.055400 -12.130200 -19.843100
N -15.927500 -13.278300 -25.672700
N -15.616100 -12.611700 -16.236000
C -15.488200 -13.759800 -22.065600
C -15.472400 -13.437900 -19.663600
C -15.421400 -13.168900 -17.209400
H -15.310400 -14.291300 -22.857000
C -15.208200 -14.231700 -20.841600
C -15.175800 -13.916900 -18.410300
H -14.801700 -15.087400 -20.728000
C -14.590400 -15.212300 -18.226100
N -14.130200 -16.250500 -18.075500
