20
Fragment
N -13.243700 -11.363900 -16.324000
C -12.304700 -10.746500 -16.505000
N -11.350400 -7.425400 -16.375200
C -11.262900 -8.552200 -16.530500
C -11.133200 -9.963200 -16.740400
H -10.598500 -12.511400 -17.147400
C -9.950600 -10.524400 -17.158700
C -9.830900 -11.946500 -17.345700
H -8.873200 -8.758000 -17.277500
C -8.789200 -9.710800 -17.402200
C -8.670100 -12.498800 -17.738400
H -8.586100 -13.451600 -17.863100
C -7.628400 -10.263100 -17.794800
C -7.508700 -11.685200 -17.981900
H -6.860800 -9.698200 -17.993200
C -6.326100 -12.246400 -18.400200
C -6.196300 -13.657400 -18.610100
N -6.108900 -14.784200 -18.765400
C -5.154500 -11.463100 -18.635600
N -4.215600 -10.845700 -18.816600
12
Fragment
O -18.786200 -7.687300 -14.668600
H -17.749000 -5.545000 -14.989800
C -17.610200 -7.520200 -15.059600
N -17.149100 -6.239800 -15.236300
H -16.964500 -9.453900 -15.156100
C -16.669200 -8.553700 -15.329400
C -15.885500 -5.944800 -15.648300
H -15.682300 -5.041600 -15.738300
C -15.414100 -8.253800 -15.739900
C -15.005200 -6.927900 -15.913500
H -14.760600 -8.994900 -15.939800
H -14.130700 -6.722100 -16.188100
32
Fragment
N -13.243700 -11.363900 -16.324000
C -12.304700 -10.746500 -16.505000
N -11.350400 -7.425400 -16.375200
C -11.262900 -8.552200 -16.530500
C -11.133200 -9.963200 -16.740400
H -10.598500 -12.511400 -17.147400
C -9.950600 -10.524400 -17.158700
C -9.830900 -11.946500 -17.345700
H -8.873200 -8.758000 -17.277500
C -8.789200 -9.710800 -17.402200
C -8.670100 -12.498800 -17.738400
H -8.586100 -13.451600 -17.863100
C -7.628400 -10.263100 -17.794800
C -7.508700 -11.685200 -17.981900
H -6.860800 -9.698200 -17.993200
C -6.326100 -12.246400 -18.400200
C -6.196300 -13.657400 -18.610100
N -6.108900 -14.784200 -18.765400
C -5.154500 -11.463100 -18.635600
N -4.215600 -10.845700 -18.816600
O -18.786200 -7.687300 -14.668600
H -17.749000 -5.545000 -14.989800
C -17.610200 -7.520200 -15.059600
N -17.149100 -6.239800 -15.236300
H -16.964500 -9.453900 -15.156100
C -16.669200 -8.553700 -15.329400
C -15.885500 -5.944800 -15.648300
H -15.682300 -5.041600 -15.738300
C -15.414100 -8.253800 -15.739900
C -15.005200 -6.927900 -15.913500
H -14.760600 -8.994900 -15.939800
H -14.130700 -6.722100 -16.188100
