20
Fragment
N -8.476900 -24.191800 -12.191400
H -7.913000 -26.424800 -10.183900
H -7.767100 -28.173800 -8.764700
N -7.743900 -30.563400 -6.853400
C -7.660700 -24.980800 -12.297000
C -7.355600 -27.118800 -10.392100
C -7.256900 -28.149400 -9.550600
C -7.076900 -30.431800 -7.771300
C -6.673600 -26.007800 -12.463800
C -6.563500 -27.055600 -11.592400
C -6.351000 -29.243300 -9.802300
C -6.240900 -30.291100 -8.930900
C -5.837600 -25.867100 -13.623400
C -5.657600 -28.149400 -11.844100
C -5.558900 -29.180100 -11.002600
C -5.253700 -31.318100 -9.097700
N -5.170600 -25.735500 -14.541300
H -5.147400 -28.125100 -12.630000
H -5.001500 -29.874100 -11.210800
N -4.437600 -32.107100 -9.203300
12
Fragment
H -5.388200 -24.899100 -7.538100
H -4.922800 -23.649300 -9.506400
C -4.864900 -25.282300 -8.234100
C -4.573900 -24.582400 -9.375900
N -4.427900 -26.516000 -7.996900
C -3.804600 -25.236200 -10.310100
C -3.685500 -27.069100 -8.974300
H -3.532800 -24.816600 -11.182300
H -3.516400 -28.787500 -7.994500
N -3.356900 -26.478300 -10.138400
N -3.225800 -28.317600 -8.768200
H -2.840600 -28.761200 -9.477800
32
Fragment
N -8.476900 -24.191800 -12.191400
H -7.913000 -26.424800 -10.183900
H -7.767100 -28.173800 -8.764700
N -7.743900 -30.563400 -6.853400
C -7.660700 -24.980800 -12.297000
C -7.355600 -27.118800 -10.392100
C -7.256900 -28.149400 -9.550600
C -7.076900 -30.431800 -7.771300
C -6.673600 -26.007800 -12.463800
C -6.563500 -27.055600 -11.592400
C -6.351000 -29.243300 -9.802300
C -6.240900 -30.291100 -8.930900
C -5.837600 -25.867100 -13.623400
C -5.657600 -28.149400 -11.844100
C -5.558900 -29.180100 -11.002600
C -5.253700 -31.318100 -9.097700
N -5.170600 -25.735500 -14.541300
H -5.147400 -28.125100 -12.630000
H -5.001500 -29.874100 -11.210800
N -4.437600 -32.107100 -9.203300
H -5.388200 -24.899100 -7.538100
H -4.922800 -23.649300 -9.506400
C -4.864900 -25.282300 -8.234100
C -4.573900 -24.582400 -9.375900
N -4.427900 -26.516000 -7.996900
C -3.804600 -25.236200 -10.310100
C -3.685500 -27.069100 -8.974300
H -3.532800 -24.816600 -11.182300
H -3.516400 -28.787500 -7.994500
N -3.356900 -26.478300 -10.138400
N -3.225800 -28.317600 -8.768200
H -2.840600 -28.761200 -9.477800
