20
Fragment
N -21.115400 -19.026700 -12.146000
H -20.885800 -16.873200 -14.339700
H -20.832300 -15.299900 -15.958200
N -20.749200 -13.261000 -18.214800
C -20.432900 -18.115200 -12.131800
C -20.321600 -16.134000 -14.230800
C -20.274100 -15.202200 -15.189100
C -20.151700 -13.182500 -17.244600
C -19.569500 -16.972800 -12.054500
C -19.520700 -16.014500 -13.038300
C -19.425900 -14.044200 -15.060500
C -19.377200 -13.085800 -16.044200
C -18.795000 -16.876200 -10.854200
C -18.672600 -14.856400 -12.909600
C -18.625100 -13.924600 -13.867900
C -18.513800 -11.943400 -15.966900
N -18.197500 -16.797600 -9.883900
H -18.114400 -14.758700 -12.140500
H -18.060900 -13.185400 -13.759000
N -17.831300 -11.031900 -15.952800
16
Fragment
H -19.416700 -23.042100 -12.706200
H -19.087800 -24.418900 -10.765600
C -18.800300 -22.772900 -11.977900
O -18.634300 -20.457700 -14.160400
C -18.620000 -23.553000 -10.867300
H -18.357300 -19.607300 -14.667500
C -18.077200 -21.572700 -12.053600
C -17.978800 -20.516900 -12.997000
C -17.734100 -23.175000 -9.847800
H -17.602400 -23.752600 -9.067500
C -17.202400 -21.199800 -11.025400
N -17.140900 -19.579300 -12.593000
C -17.008900 -22.014100 -9.899700
N -16.656300 -20.009300 -11.375300
H -16.374800 -21.747300 -9.178000
H -16.115300 -19.454000 -10.921000
36
Fragment
N -21.115400 -19.026700 -12.146000
H -20.885800 -16.873200 -14.339700
H -20.832300 -15.299900 -15.958200
N -20.749200 -13.261000 -18.214800
C -20.432900 -18.115200 -12.131800
C -20.321600 -16.134000 -14.230800
C -20.274100 -15.202200 -15.189100
C -20.151700 -13.182500 -17.244600
C -19.569500 -16.972800 -12.054500
C -19.520700 -16.014500 -13.038300
C -19.425900 -14.044200 -15.060500
C -19.377200 -13.085800 -16.044200
C -18.795000 -16.876200 -10.854200
C -18.672600 -14.856400 -12.909600
C -18.625100 -13.924600 -13.867900
C -18.513800 -11.943400 -15.966900
N -18.197500 -16.797600 -9.883900
H -18.114400 -14.758700 -12.140500
H -18.060900 -13.185400 -13.759000
N -17.831300 -11.031900 -15.952800
H -19.416700 -23.042100 -12.706200
H -19.087800 -24.418900 -10.765600
C -18.800300 -22.772900 -11.977900
O -18.634300 -20.457700 -14.160400
C -18.620000 -23.553000 -10.867300
H -18.357300 -19.607300 -14.667500
C -18.077200 -21.572700 -12.053600
C -17.978800 -20.516900 -12.997000
C -17.734100 -23.175000 -9.847800
H -17.602400 -23.752600 -9.067500
C -17.202400 -21.199800 -11.025400
N -17.140900 -19.579300 -12.593000
C -17.008900 -22.014100 -9.899700
N -16.656300 -20.009300 -11.375300
H -16.374800 -21.747300 -9.178000
H -16.115300 -19.454000 -10.921000
