20
Fragment
N -13.226600 -8.088200 -16.353100
C -12.861600 -8.598500 -17.304700
N -12.590300 -11.833000 -18.480600
C -12.520600 -10.689800 -18.485100
C -12.418100 -9.264900 -18.490600
H -12.044600 -6.681400 -18.731400
C -11.904300 -8.576100 -19.568800
C -11.765400 -7.140600 -19.538100
H -11.567500 -10.202800 -20.788400
C -11.470200 -9.268400 -20.754500
C -11.237500 -6.476600 -20.577000
H -11.140300 -5.542200 -20.543100
C -10.942400 -8.604400 -21.793400
C -10.803500 -7.168900 -21.762700
H -10.663200 -9.063600 -22.600100
C -10.289600 -6.480100 -22.840900
C -10.187100 -5.055200 -22.846400
N -10.117400 -3.912000 -22.851000
C -9.846200 -7.146500 -24.026800
N -9.481100 -7.656800 -24.978400
18
Fragment
O -13.349500 -2.119000 -24.067900
C -12.772700 -2.356600 -25.148700
H -12.734300 -4.377100 -24.877400
H -12.598800 -0.448700 -25.865300
N -12.478200 -3.638100 -25.494800
C -12.404300 -1.344600 -26.108400
C -11.871800 -4.015600 -26.676500
C -11.830400 -1.669900 -27.279900
H -11.755900 -5.998800 -26.267600
H -11.615500 -0.984100 -27.909800
C -11.585900 -5.355300 -26.937700
C -11.548500 -3.026300 -27.620500
C -10.983900 -5.702800 -28.118400
C -10.956500 -3.434800 -28.831500
H -10.763300 -2.755400 -29.484500
H -10.740600 -6.675900 -28.288700
C -10.679700 -4.746300 -29.074500
H -10.240800 -4.975400 -29.933700
38
Fragment
N -13.226600 -8.088200 -16.353100
C -12.861600 -8.598500 -17.304700
N -12.590300 -11.833000 -18.480600
C -12.520600 -10.689800 -18.485100
C -12.418100 -9.264900 -18.490600
H -12.044600 -6.681400 -18.731400
C -11.904300 -8.576100 -19.568800
C -11.765400 -7.140600 -19.538100
H -11.567500 -10.202800 -20.788400
C -11.470200 -9.268400 -20.754500
C -11.237500 -6.476600 -20.577000
H -11.140300 -5.542200 -20.543100
C -10.942400 -8.604400 -21.793400
C -10.803500 -7.168900 -21.762700
H -10.663200 -9.063600 -22.600100
C -10.289600 -6.480100 -22.840900
C -10.187100 -5.055200 -22.846400
N -10.117400 -3.912000 -22.851000
C -9.846200 -7.146500 -24.026800
N -9.481100 -7.656800 -24.978400
O -13.349500 -2.119000 -24.067900
C -12.772700 -2.356600 -25.148700
H -12.734300 -4.377100 -24.877400
H -12.598800 -0.448700 -25.865300
N -12.478200 -3.638100 -25.494800
C -12.404300 -1.344600 -26.108400
C -11.871800 -4.015600 -26.676500
C -11.830400 -1.669900 -27.279900
H -11.755900 -5.998800 -26.267600
H -11.615500 -0.984100 -27.909800
C -11.585900 -5.355300 -26.937700
C -11.548500 -3.026300 -27.620500
C -10.983900 -5.702800 -28.118400
C -10.956500 -3.434800 -28.831500
H -10.763300 -2.755400 -29.484500
H -10.740600 -6.675900 -28.288700
C -10.679700 -4.746300 -29.074500
H -10.240800 -4.975400 -29.933700
