20
Fragment
N -17.413400 -3.167000 -23.833200
C -16.953300 -4.205200 -23.682600
H -16.741900 -4.330100 -21.180700
C -16.367900 -5.500600 -23.498300
C -16.335500 -5.185800 -21.067100
H -16.233200 -5.126200 -19.051700
C -16.122200 -6.248600 -24.699300
C -16.071200 -5.979600 -22.245100
C -16.055400 -5.657700 -19.843100
N -15.927500 -6.805800 -25.672700
N -15.616100 -6.139200 -16.236000
C -15.488200 -7.287300 -22.065600
C -15.472400 -6.965400 -19.663600
C -15.421400 -6.696400 -17.209400
H -15.310400 -7.818800 -22.857000
C -15.208200 -7.759200 -20.841600
C -15.175800 -7.444400 -18.410300
H -14.801700 -8.614900 -20.728000
C -14.590400 -8.739800 -18.226100
N -14.130200 -9.778000 -18.075500
20
Fragment
N -12.156200 -13.014300 -16.848400
C -11.696000 -11.976100 -16.697800
H -11.484700 -11.851100 -14.195900
C -11.110600 -10.680700 -16.513600
C -11.078200 -10.995500 -14.082300
H -10.975900 -11.055000 -12.066900
C -10.865000 -9.932700 -17.714500
C -10.813900 -10.201600 -15.260400
C -10.798200 -10.523600 -12.858300
N -10.670300 -9.375400 -18.687900
N -10.358800 -10.042100 -9.251200
C -10.230900 -8.893900 -15.080800
C -10.215100 -9.215900 -12.678800
C -10.164100 -9.484800 -10.224600
H -10.053100 -8.362500 -15.872200
C -9.950900 -8.422000 -13.856800
C -9.918500 -8.736800 -11.425600
H -9.544400 -7.566400 -13.743300
C -9.333100 -7.441400 -11.241300
N -8.872900 -6.403200 -11.090700
40
Fragment
N -17.413400 -3.167000 -23.833200
C -16.953300 -4.205200 -23.682600
H -16.741900 -4.330100 -21.180700
C -16.367900 -5.500600 -23.498300
C -16.335500 -5.185800 -21.067100
H -16.233200 -5.126200 -19.051700
C -16.122200 -6.248600 -24.699300
C -16.071200 -5.979600 -22.245100
C -16.055400 -5.657700 -19.843100
N -15.927500 -6.805800 -25.672700
N -15.616100 -6.139200 -16.236000
C -15.488200 -7.287300 -22.065600
C -15.472400 -6.965400 -19.663600
C -15.421400 -6.696400 -17.209400
H -15.310400 -7.818800 -22.857000
C -15.208200 -7.759200 -20.841600
C -15.175800 -7.444400 -18.410300
H -14.801700 -8.614900 -20.728000
C -14.590400 -8.739800 -18.226100
N -14.130200 -9.778000 -18.075500
N -12.156200 -13.014300 -16.848400
C -11.696000 -11.976100 -16.697800
H -11.484700 -11.851100 -14.195900
C -11.110600 -10.680700 -16.513600
C -11.078200 -10.995500 -14.082300
H -10.975900 -11.055000 -12.066900
C -10.865000 -9.932700 -17.714500
C -10.813900 -10.201600 -15.260400
C -10.798200 -10.523600 -12.858300
N -10.670300 -9.375400 -18.687900
N -10.358800 -10.042100 -9.251200
C -10.230900 -8.893900 -15.080800
C -10.215100 -9.215900 -12.678800
C -10.164100 -9.484800 -10.224600
H -10.053100 -8.362500 -15.872200
C -9.950900 -8.422000 -13.856800
C -9.918500 -8.736800 -11.425600
H -9.544400 -7.566400 -13.743300
C -9.333100 -7.441400 -11.241300
N -8.872900 -6.403200 -11.090700
