20
Fragment
N -13.243700 -11.363900 -16.324000
C -12.304700 -10.746500 -16.505000
N -11.350400 -7.425400 -16.375200
C -11.262900 -8.552200 -16.530500
C -11.133200 -9.963200 -16.740400
H -10.598500 -12.511400 -17.147400
C -9.950600 -10.524400 -17.158700
C -9.830900 -11.946500 -17.345700
H -8.873200 -8.758000 -17.277500
C -8.789200 -9.710800 -17.402200
C -8.670100 -12.498800 -17.738400
H -8.586100 -13.451600 -17.863100
C -7.628400 -10.263100 -17.794800
C -7.508700 -11.685200 -17.981900
H -6.860800 -9.698200 -17.993200
C -6.326100 -12.246400 -18.400200
C -6.196300 -13.657400 -18.610100
N -6.108900 -14.784200 -18.765400
C -5.154500 -11.463100 -18.635600
N -4.215600 -10.845700 -18.816600
20
Fragment
N -24.622700 -11.363900 -16.324000
C -23.683700 -10.746500 -16.505000
N -22.729400 -7.425400 -16.375200
C -22.641900 -8.552200 -16.530500
C -22.512200 -9.963200 -16.740400
H -21.977500 -12.511400 -17.147400
C -21.329600 -10.524400 -17.158700
C -21.209900 -11.946500 -17.345700
H -20.252200 -8.758000 -17.277500
C -20.168200 -9.710800 -17.402200
C -20.049100 -12.498800 -17.738400
H -19.965100 -13.451600 -17.863100
C -19.007400 -10.263100 -17.794800
C -18.887700 -11.685200 -17.981900
H -18.239800 -9.698200 -17.993200
C -17.705100 -12.246400 -18.400200
C -17.575300 -13.657400 -18.610100
N -17.487900 -14.784200 -18.765400
C -16.533500 -11.463100 -18.635600
N -15.594600 -10.845700 -18.816600
40
Fragment
N -13.243700 -11.363900 -16.324000
C -12.304700 -10.746500 -16.505000
N -11.350400 -7.425400 -16.375200
C -11.262900 -8.552200 -16.530500
C -11.133200 -9.963200 -16.740400
H -10.598500 -12.511400 -17.147400
C -9.950600 -10.524400 -17.158700
C -9.830900 -11.946500 -17.345700
H -8.873200 -8.758000 -17.277500
C -8.789200 -9.710800 -17.402200
C -8.670100 -12.498800 -17.738400
H -8.586100 -13.451600 -17.863100
C -7.628400 -10.263100 -17.794800
C -7.508700 -11.685200 -17.981900
H -6.860800 -9.698200 -17.993200
C -6.326100 -12.246400 -18.400200
C -6.196300 -13.657400 -18.610100
N -6.108900 -14.784200 -18.765400
C -5.154500 -11.463100 -18.635600
N -4.215600 -10.845700 -18.816600
N -24.622700 -11.363900 -16.324000
C -23.683700 -10.746500 -16.505000
N -22.729400 -7.425400 -16.375200
C -22.641900 -8.552200 -16.530500
C -22.512200 -9.963200 -16.740400
H -21.977500 -12.511400 -17.147400
C -21.329600 -10.524400 -17.158700
C -21.209900 -11.946500 -17.345700
H -20.252200 -8.758000 -17.277500
C -20.168200 -9.710800 -17.402200
C -20.049100 -12.498800 -17.738400
H -19.965100 -13.451600 -17.863100
C -19.007400 -10.263100 -17.794800
C -18.887700 -11.685200 -17.981900
H -18.239800 -9.698200 -17.993200
C -17.705100 -12.246400 -18.400200
C -17.575300 -13.657400 -18.610100
N -17.487900 -14.784200 -18.765400
C -16.533500 -11.463100 -18.635600
N -15.594600 -10.845700 -18.816600
