20
Fragment
N -17.413400 -3.167000 -23.833200
C -16.953300 -4.205200 -23.682600
H -16.741900 -4.330100 -21.180700
C -16.367900 -5.500600 -23.498300
C -16.335500 -5.185800 -21.067100
H -16.233200 -5.126200 -19.051700
C -16.122200 -6.248600 -24.699300
C -16.071200 -5.979600 -22.245100
C -16.055400 -5.657700 -19.843100
N -15.927500 -6.805800 -25.672700
N -15.616100 -6.139200 -16.236000
C -15.488200 -7.287300 -22.065600
C -15.472400 -6.965400 -19.663600
C -15.421400 -6.696400 -17.209400
H -15.310400 -7.818800 -22.857000
C -15.208200 -7.759200 -20.841600
C -15.175800 -7.444400 -18.410300
H -14.801700 -8.614900 -20.728000
C -14.590400 -8.739800 -18.226100
N -14.130200 -9.778000 -18.075500
13
Fragment
O -13.395500 -10.267500 -22.322400
H -13.296600 -10.103600 -23.204800
O -12.942100 -12.210100 -24.253500
C -12.875000 -11.473800 -21.995500
H -12.748600 -11.145600 -20.019800
C -12.683200 -12.436300 -23.042800
C -12.586500 -11.796800 -20.710300
H -12.235500 -14.330100 -23.309600
N -12.209000 -13.650800 -22.647700
C -12.095600 -13.079600 -20.379800
C -11.918300 -13.986400 -21.358900
H -11.902300 -13.301000 -19.433100
H -11.643100 -14.912600 -21.222600
33
Fragment
N -17.413400 -3.167000 -23.833200
C -16.953300 -4.205200 -23.682600
H -16.741900 -4.330100 -21.180700
C -16.367900 -5.500600 -23.498300
C -16.335500 -5.185800 -21.067100
H -16.233200 -5.126200 -19.051700
C -16.122200 -6.248600 -24.699300
C -16.071200 -5.979600 -22.245100
C -16.055400 -5.657700 -19.843100
N -15.927500 -6.805800 -25.672700
N -15.616100 -6.139200 -16.236000
C -15.488200 -7.287300 -22.065600
C -15.472400 -6.965400 -19.663600
C -15.421400 -6.696400 -17.209400
H -15.310400 -7.818800 -22.857000
C -15.208200 -7.759200 -20.841600
C -15.175800 -7.444400 -18.410300
H -14.801700 -8.614900 -20.728000
C -14.590400 -8.739800 -18.226100
N -14.130200 -9.778000 -18.075500
O -13.395500 -10.267500 -22.322400
H -13.296600 -10.103600 -23.204800
O -12.942100 -12.210100 -24.253500
C -12.875000 -11.473800 -21.995500
H -12.748600 -11.145600 -20.019800
C -12.683200 -12.436300 -23.042800
C -12.586500 -11.796800 -20.710300
H -12.235500 -14.330100 -23.309600
N -12.209000 -13.650800 -22.647700
C -12.095600 -13.079600 -20.379800
C -11.918300 -13.986400 -21.358900
H -11.902300 -13.301000 -19.433100
H -11.643100 -14.912600 -21.222600
