20
Fragment
N -8.476900 -24.191800 -12.191400
H -7.913000 -26.424800 -10.183900
H -7.767100 -28.173800 -8.764700
N -7.743900 -30.563400 -6.853400
C -7.660700 -24.980800 -12.297000
C -7.355600 -27.118800 -10.392100
C -7.256900 -28.149400 -9.550600
C -7.076900 -30.431800 -7.771300
C -6.673600 -26.007800 -12.463800
C -6.563500 -27.055600 -11.592400
C -6.351000 -29.243300 -9.802300
C -6.240900 -30.291100 -8.930900
C -5.837600 -25.867100 -13.623400
C -5.657600 -28.149400 -11.844100
C -5.558900 -29.180100 -11.002600
C -5.253700 -31.318100 -9.097700
N -5.170600 -25.735500 -14.541300
H -5.147400 -28.125100 -12.630000
H -5.001500 -29.874100 -11.210800
N -4.437600 -32.107100 -9.203300
12
Fragment
H -9.509900 -38.144400 -4.785300
N -9.124700 -37.700700 -5.494900
N -8.993600 -35.861500 -4.124700
H -8.834200 -38.170700 -6.268600
H -8.817800 -34.199700 -3.080800
C -8.665100 -36.452200 -5.288800
C -8.545900 -34.619300 -3.953000
N -7.922700 -35.899200 -6.266200
C -7.776600 -33.965500 -4.887300
C -7.485700 -34.665500 -6.029000
H -7.427700 -33.032400 -4.756800
H -6.962400 -34.282300 -6.725100
32
Fragment
N -8.476900 -24.191800 -12.191400
H -7.913000 -26.424800 -10.183900
H -7.767100 -28.173800 -8.764700
N -7.743900 -30.563400 -6.853400
C -7.660700 -24.980800 -12.297000
C -7.355600 -27.118800 -10.392100
C -7.256900 -28.149400 -9.550600
C -7.076900 -30.431800 -7.771300
C -6.673600 -26.007800 -12.463800
C -6.563500 -27.055600 -11.592400
C -6.351000 -29.243300 -9.802300
C -6.240900 -30.291100 -8.930900
C -5.837600 -25.867100 -13.623400
C -5.657600 -28.149400 -11.844100
C -5.558900 -29.180100 -11.002600
C -5.253700 -31.318100 -9.097700
N -5.170600 -25.735500 -14.541300
H -5.147400 -28.125100 -12.630000
H -5.001500 -29.874100 -11.210800
N -4.437600 -32.107100 -9.203300
H -9.509900 -38.144400 -4.785300
N -9.124700 -37.700700 -5.494900
N -8.993600 -35.861500 -4.124700
H -8.834200 -38.170700 -6.268600
H -8.817800 -34.199700 -3.080800
C -8.665100 -36.452200 -5.288800
C -8.545900 -34.619300 -3.953000
N -7.922700 -35.899200 -6.266200
C -7.776600 -33.965500 -4.887300
C -7.485700 -34.665500 -6.029000
H -7.427700 -33.032400 -4.756800
H -6.962400 -34.282300 -6.725100
