20
Fragment
N -17.413400 -3.167000 -23.833200
C -16.953300 -4.205200 -23.682600
H -16.741900 -4.330100 -21.180700
C -16.367900 -5.500600 -23.498300
C -16.335500 -5.185800 -21.067100
H -16.233200 -5.126200 -19.051700
C -16.122200 -6.248600 -24.699300
C -16.071200 -5.979600 -22.245100
C -16.055400 -5.657700 -19.843100
N -15.927500 -6.805800 -25.672700
N -15.616100 -6.139200 -16.236000
C -15.488200 -7.287300 -22.065600
C -15.472400 -6.965400 -19.663600
C -15.421400 -6.696400 -17.209400
H -15.310400 -7.818800 -22.857000
C -15.208200 -7.759200 -20.841600
C -15.175800 -7.444400 -18.410300
H -14.801700 -8.614900 -20.728000
C -14.590400 -8.739800 -18.226100
N -14.130200 -9.778000 -18.075500
13
Fragment
O -18.902700 -5.913800 -15.337600
H -18.803800 -6.077700 -16.220100
O -18.449300 -3.971100 -17.268800
C -18.382200 -4.707400 -15.010700
H -18.255900 -5.035600 -13.035000
C -18.190500 -3.744900 -16.058000
C -18.093800 -4.384500 -13.725500
H -17.742700 -1.851100 -16.324800
N -17.716300 -2.530500 -15.663000
C -17.602800 -3.101600 -13.395000
C -17.425500 -2.194800 -14.374100
H -17.409500 -2.880300 -12.448300
H -17.150400 -1.268600 -14.237800
33
Fragment
N -17.413400 -3.167000 -23.833200
C -16.953300 -4.205200 -23.682600
H -16.741900 -4.330100 -21.180700
C -16.367900 -5.500600 -23.498300
C -16.335500 -5.185800 -21.067100
H -16.233200 -5.126200 -19.051700
C -16.122200 -6.248600 -24.699300
C -16.071200 -5.979600 -22.245100
C -16.055400 -5.657700 -19.843100
N -15.927500 -6.805800 -25.672700
N -15.616100 -6.139200 -16.236000
C -15.488200 -7.287300 -22.065600
C -15.472400 -6.965400 -19.663600
C -15.421400 -6.696400 -17.209400
H -15.310400 -7.818800 -22.857000
C -15.208200 -7.759200 -20.841600
C -15.175800 -7.444400 -18.410300
H -14.801700 -8.614900 -20.728000
C -14.590400 -8.739800 -18.226100
N -14.130200 -9.778000 -18.075500
O -18.902700 -5.913800 -15.337600
H -18.803800 -6.077700 -16.220100
O -18.449300 -3.971100 -17.268800
C -18.382200 -4.707400 -15.010700
H -18.255900 -5.035600 -13.035000
C -18.190500 -3.744900 -16.058000
C -18.093800 -4.384500 -13.725500
H -17.742700 -1.851100 -16.324800
N -17.716300 -2.530500 -15.663000
C -17.602800 -3.101600 -13.395000
C -17.425500 -2.194800 -14.374100
H -17.409500 -2.880300 -12.448300
H -17.150400 -1.268600 -14.237800
