20
Fragment
N -13.226600 -8.088200 -16.353100
C -12.861600 -8.598500 -17.304700
N -12.590300 -11.833000 -18.480600
C -12.520600 -10.689800 -18.485100
C -12.418100 -9.264900 -18.490600
H -12.044600 -6.681400 -18.731400
C -11.904300 -8.576100 -19.568800
C -11.765400 -7.140600 -19.538100
H -11.567500 -10.202800 -20.788400
C -11.470200 -9.268400 -20.754500
C -11.237500 -6.476600 -20.577000
H -11.140300 -5.542200 -20.543100
C -10.942400 -8.604400 -21.793400
C -10.803500 -7.168900 -21.762700
H -10.663200 -9.063600 -22.600100
C -10.289600 -6.480100 -22.840900
C -10.187100 -5.055200 -22.846400
N -10.117400 -3.912000 -22.851000
C -9.846200 -7.146500 -24.026800
N -9.481100 -7.656800 -24.978400
18
Fragment
O -9.564800 -9.689700 -17.179300
C -8.988000 -9.452200 -18.260100
H -8.949700 -7.431600 -17.988800
H -8.814200 -11.360000 -18.976700
N -8.693500 -8.170600 -18.606200
C -8.619700 -10.464100 -19.219800
C -8.087100 -7.793100 -19.787900
C -8.045700 -10.138800 -20.391300
H -7.971300 -5.809900 -19.379000
H -7.830900 -10.824700 -21.021200
C -7.801300 -6.453500 -20.049100
C -7.763800 -8.782400 -20.731900
C -7.199300 -6.105900 -21.229800
C -7.171900 -8.374000 -21.942900
H -6.978700 -9.053400 -22.595900
H -6.956000 -5.132900 -21.400100
C -6.895100 -7.062400 -22.185900
H -6.456100 -6.833300 -23.045100
38
Fragment
N -13.226600 -8.088200 -16.353100
C -12.861600 -8.598500 -17.304700
N -12.590300 -11.833000 -18.480600
C -12.520600 -10.689800 -18.485100
C -12.418100 -9.264900 -18.490600
H -12.044600 -6.681400 -18.731400
C -11.904300 -8.576100 -19.568800
C -11.765400 -7.140600 -19.538100
H -11.567500 -10.202800 -20.788400
C -11.470200 -9.268400 -20.754500
C -11.237500 -6.476600 -20.577000
H -11.140300 -5.542200 -20.543100
C -10.942400 -8.604400 -21.793400
C -10.803500 -7.168900 -21.762700
H -10.663200 -9.063600 -22.600100
C -10.289600 -6.480100 -22.840900
C -10.187100 -5.055200 -22.846400
N -10.117400 -3.912000 -22.851000
C -9.846200 -7.146500 -24.026800
N -9.481100 -7.656800 -24.978400
O -9.564800 -9.689700 -17.179300
C -8.988000 -9.452200 -18.260100
H -8.949700 -7.431600 -17.988800
H -8.814200 -11.360000 -18.976700
N -8.693500 -8.170600 -18.606200
C -8.619700 -10.464100 -19.219800
C -8.087100 -7.793100 -19.787900
C -8.045700 -10.138800 -20.391300
H -7.971300 -5.809900 -19.379000
H -7.830900 -10.824700 -21.021200
C -7.801300 -6.453500 -20.049100
C -7.763800 -8.782400 -20.731900
C -7.199300 -6.105900 -21.229800
C -7.171900 -8.374000 -21.942900
H -6.978700 -9.053400 -22.595900
H -6.956000 -5.132900 -21.400100
C -6.895100 -7.062400 -22.185900
H -6.456100 -6.833300 -23.045100
