20
Fragment
N -13.243700 -11.363900 -16.324000
C -12.304700 -10.746500 -16.505000
N -11.350400 -7.425400 -16.375200
C -11.262900 -8.552200 -16.530500
C -11.133200 -9.963200 -16.740400
H -10.598500 -12.511400 -17.147400
C -9.950600 -10.524400 -17.158700
C -9.830900 -11.946500 -17.345700
H -8.873200 -8.758000 -17.277500
C -8.789200 -9.710800 -17.402200
C -8.670100 -12.498800 -17.738400
H -8.586100 -13.451600 -17.863100
C -7.628400 -10.263100 -17.794800
C -7.508700 -11.685200 -17.981900
H -6.860800 -9.698200 -17.993200
C -6.326100 -12.246400 -18.400200
C -6.196300 -13.657400 -18.610100
N -6.108900 -14.784200 -18.765400
C -5.154500 -11.463100 -18.635600
N -4.215600 -10.845700 -18.816600
12
Fragment
O -10.317100 -10.820700 -20.525400
H -9.279800 -12.963000 -20.846600
C -9.141100 -10.987800 -20.916400
N -8.679900 -12.268200 -21.093000
H -8.495400 -9.054100 -21.012900
C -8.200000 -9.954300 -21.186100
C -7.416300 -12.563200 -21.505100
H -7.213200 -13.466400 -21.595100
C -6.945000 -10.254200 -21.596700
C -6.536100 -11.580100 -21.770300
H -6.291500 -9.513100 -21.796500
H -5.661600 -11.785900 -22.044900
32
Fragment
N -13.243700 -11.363900 -16.324000
C -12.304700 -10.746500 -16.505000
N -11.350400 -7.425400 -16.375200
C -11.262900 -8.552200 -16.530500
C -11.133200 -9.963200 -16.740400
H -10.598500 -12.511400 -17.147400
C -9.950600 -10.524400 -17.158700
C -9.830900 -11.946500 -17.345700
H -8.873200 -8.758000 -17.277500
C -8.789200 -9.710800 -17.402200
C -8.670100 -12.498800 -17.738400
H -8.586100 -13.451600 -17.863100
C -7.628400 -10.263100 -17.794800
C -7.508700 -11.685200 -17.981900
H -6.860800 -9.698200 -17.993200
C -6.326100 -12.246400 -18.400200
C -6.196300 -13.657400 -18.610100
N -6.108900 -14.784200 -18.765400
C -5.154500 -11.463100 -18.635600
N -4.215600 -10.845700 -18.816600
O -10.317100 -10.820700 -20.525400
H -9.279800 -12.963000 -20.846600
C -9.141100 -10.987800 -20.916400
N -8.679900 -12.268200 -21.093000
H -8.495400 -9.054100 -21.012900
C -8.200000 -9.954300 -21.186100
C -7.416300 -12.563200 -21.505100
H -7.213200 -13.466400 -21.595100
C -6.945000 -10.254200 -21.596700
C -6.536100 -11.580100 -21.770300
H -6.291500 -9.513100 -21.796500
H -5.661600 -11.785900 -22.044900
