20
Fragment
N -8.476900 -24.191800 -12.191400
H -7.913000 -26.424800 -10.183900
H -7.767100 -28.173800 -8.764700
N -7.743900 -30.563400 -6.853400
C -7.660700 -24.980800 -12.297000
C -7.355600 -27.118800 -10.392100
C -7.256900 -28.149400 -9.550600
C -7.076900 -30.431800 -7.771300
C -6.673600 -26.007800 -12.463800
C -6.563500 -27.055600 -11.592400
C -6.351000 -29.243300 -9.802300
C -6.240900 -30.291100 -8.930900
C -5.837600 -25.867100 -13.623400
C -5.657600 -28.149400 -11.844100
C -5.558900 -29.180100 -11.002600
C -5.253700 -31.318100 -9.097700
N -5.170600 -25.735500 -14.541300
H -5.147400 -28.125100 -12.630000
H -5.001500 -29.874100 -11.210800
N -4.437600 -32.107100 -9.203300
20
Fragment
N -12.217800 -41.490200 -12.191400
H -11.653900 -39.257200 -10.183900
H -11.508000 -37.508200 -8.764700
N -11.484800 -35.118700 -6.853400
C -11.401600 -40.701300 -12.297000
C -11.096500 -38.563200 -10.392100
C -10.997800 -37.532600 -9.550600
C -10.817800 -35.250200 -7.771300
C -10.414500 -39.674200 -12.463800
C -10.304400 -38.626500 -11.592400
C -10.091900 -36.438700 -9.802300
C -9.981800 -35.391000 -8.930900
C -9.578500 -39.815000 -13.623400
C -9.398500 -37.532600 -11.844100
C -9.299800 -36.502000 -11.002600
C -8.994600 -34.363900 -9.097700
N -8.911500 -39.946500 -14.541300
H -8.888300 -37.557000 -12.630000
H -8.742400 -35.808000 -11.210800
N -8.178500 -33.575000 -9.203300
40
Fragment
N -8.476900 -24.191800 -12.191400
H -7.913000 -26.424800 -10.183900
H -7.767100 -28.173800 -8.764700
N -7.743900 -30.563400 -6.853400
C -7.660700 -24.980800 -12.297000
C -7.355600 -27.118800 -10.392100
C -7.256900 -28.149400 -9.550600
C -7.076900 -30.431800 -7.771300
C -6.673600 -26.007800 -12.463800
C -6.563500 -27.055600 -11.592400
C -6.351000 -29.243300 -9.802300
C -6.240900 -30.291100 -8.930900
C -5.837600 -25.867100 -13.623400
C -5.657600 -28.149400 -11.844100
C -5.558900 -29.180100 -11.002600
C -5.253700 -31.318100 -9.097700
N -5.170600 -25.735500 -14.541300
H -5.147400 -28.125100 -12.630000
H -5.001500 -29.874100 -11.210800
N -4.437600 -32.107100 -9.203300
N -12.217800 -41.490200 -12.191400
H -11.653900 -39.257200 -10.183900
H -11.508000 -37.508200 -8.764700
N -11.484800 -35.118700 -6.853400
C -11.401600 -40.701300 -12.297000
C -11.096500 -38.563200 -10.392100
C -10.997800 -37.532600 -9.550600
C -10.817800 -35.250200 -7.771300
C -10.414500 -39.674200 -12.463800
C -10.304400 -38.626500 -11.592400
C -10.091900 -36.438700 -9.802300
C -9.981800 -35.391000 -8.930900
C -9.578500 -39.815000 -13.623400
C -9.398500 -37.532600 -11.844100
C -9.299800 -36.502000 -11.002600
C -8.994600 -34.363900 -9.097700
N -8.911500 -39.946500 -14.541300
H -8.888300 -37.557000 -12.630000
H -8.742400 -35.808000 -11.210800
N -8.178500 -33.575000 -9.203300
