20
Fragment
N -8.476900 -24.191800 -12.191400
H -7.913000 -26.424800 -10.183900
H -7.767100 -28.173800 -8.764700
N -7.743900 -30.563400 -6.853400
C -7.660700 -24.980800 -12.297000
C -7.355600 -27.118800 -10.392100
C -7.256900 -28.149400 -9.550600
C -7.076900 -30.431800 -7.771300
C -6.673600 -26.007800 -12.463800
C -6.563500 -27.055600 -11.592400
C -6.351000 -29.243300 -9.802300
C -6.240900 -30.291100 -8.930900
C -5.837600 -25.867100 -13.623400
C -5.657600 -28.149400 -11.844100
C -5.558900 -29.180100 -11.002600
C -5.253700 -31.318100 -9.097700
N -5.170600 -25.735500 -14.541300
H -5.147400 -28.125100 -12.630000
H -5.001500 -29.874100 -11.210800
N -4.437600 -32.107100 -9.203300
12
Fragment
H -2.592000 -27.537700 -11.916800
N -2.206800 -27.981300 -12.626500
N -2.075800 -29.820600 -11.256200
H -1.916300 -27.511400 -13.400200
H -1.899900 -31.482300 -10.212400
C -1.747200 -29.229800 -12.420400
C -1.628000 -31.062700 -11.084600
N -1.004800 -29.782900 -13.397800
C -0.858700 -31.716500 -12.018800
C -0.567800 -31.016600 -13.160600
H -0.509900 -32.649600 -11.888300
H -0.044500 -31.399800 -13.856600
32
Fragment
N -8.476900 -24.191800 -12.191400
H -7.913000 -26.424800 -10.183900
H -7.767100 -28.173800 -8.764700
N -7.743900 -30.563400 -6.853400
C -7.660700 -24.980800 -12.297000
C -7.355600 -27.118800 -10.392100
C -7.256900 -28.149400 -9.550600
C -7.076900 -30.431800 -7.771300
C -6.673600 -26.007800 -12.463800
C -6.563500 -27.055600 -11.592400
C -6.351000 -29.243300 -9.802300
C -6.240900 -30.291100 -8.930900
C -5.837600 -25.867100 -13.623400
C -5.657600 -28.149400 -11.844100
C -5.558900 -29.180100 -11.002600
C -5.253700 -31.318100 -9.097700
N -5.170600 -25.735500 -14.541300
H -5.147400 -28.125100 -12.630000
H -5.001500 -29.874100 -11.210800
N -4.437600 -32.107100 -9.203300
H -2.592000 -27.537700 -11.916800
N -2.206800 -27.981300 -12.626500
N -2.075800 -29.820600 -11.256200
H -1.916300 -27.511400 -13.400200
H -1.899900 -31.482300 -10.212400
C -1.747200 -29.229800 -12.420400
C -1.628000 -31.062700 -11.084600
N -1.004800 -29.782900 -13.397800
C -0.858700 -31.716500 -12.018800
C -0.567800 -31.016600 -13.160600
H -0.509900 -32.649600 -11.888300
H -0.044500 -31.399800 -13.856600
