20
Fragment
N -8.476900 -24.191800 -12.191400
H -7.913000 -26.424800 -10.183900
H -7.767100 -28.173800 -8.764700
N -7.743900 -30.563400 -6.853400
C -7.660700 -24.980800 -12.297000
C -7.355600 -27.118800 -10.392100
C -7.256900 -28.149400 -9.550600
C -7.076900 -30.431800 -7.771300
C -6.673600 -26.007800 -12.463800
C -6.563500 -27.055600 -11.592400
C -6.351000 -29.243300 -9.802300
C -6.240900 -30.291100 -8.930900
C -5.837600 -25.867100 -13.623400
C -5.657600 -28.149400 -11.844100
C -5.558900 -29.180100 -11.002600
C -5.253700 -31.318100 -9.097700
N -5.170600 -25.735500 -14.541300
H -5.147400 -28.125100 -12.630000
H -5.001500 -29.874100 -11.210800
N -4.437600 -32.107100 -9.203300
12
Fragment
H -9.693000 -24.899100 -14.669600
H -9.227600 -23.649300 -16.637900
C -9.169700 -25.282300 -15.365700
C -8.878800 -24.582400 -16.507400
N -8.732700 -26.516000 -15.128500
C -8.109400 -25.236200 -17.441700
C -7.990300 -27.069100 -16.105800
H -7.837600 -24.816600 -18.313800
H -7.821200 -28.787500 -15.126000
N -7.661700 -26.478300 -17.270000
N -7.530600 -28.317600 -15.899700
H -7.145400 -28.761200 -16.609400
32
Fragment
N -8.476900 -24.191800 -12.191400
H -7.913000 -26.424800 -10.183900
H -7.767100 -28.173800 -8.764700
N -7.743900 -30.563400 -6.853400
C -7.660700 -24.980800 -12.297000
C -7.355600 -27.118800 -10.392100
C -7.256900 -28.149400 -9.550600
C -7.076900 -30.431800 -7.771300
C -6.673600 -26.007800 -12.463800
C -6.563500 -27.055600 -11.592400
C -6.351000 -29.243300 -9.802300
C -6.240900 -30.291100 -8.930900
C -5.837600 -25.867100 -13.623400
C -5.657600 -28.149400 -11.844100
C -5.558900 -29.180100 -11.002600
C -5.253700 -31.318100 -9.097700
N -5.170600 -25.735500 -14.541300
H -5.147400 -28.125100 -12.630000
H -5.001500 -29.874100 -11.210800
N -4.437600 -32.107100 -9.203300
H -9.693000 -24.899100 -14.669600
H -9.227600 -23.649300 -16.637900
C -9.169700 -25.282300 -15.365700
C -8.878800 -24.582400 -16.507400
N -8.732700 -26.516000 -15.128500
C -8.109400 -25.236200 -17.441700
C -7.990300 -27.069100 -16.105800
H -7.837600 -24.816600 -18.313800
H -7.821200 -28.787500 -15.126000
N -7.661700 -26.478300 -17.270000
N -7.530600 -28.317600 -15.899700
H -7.145400 -28.761200 -16.609400
