20
Fragment
N -8.476900 -24.191800 -12.191400
H -7.913000 -26.424800 -10.183900
H -7.767100 -28.173800 -8.764700
N -7.743900 -30.563400 -6.853400
C -7.660700 -24.980800 -12.297000
C -7.355600 -27.118800 -10.392100
C -7.256900 -28.149400 -9.550600
C -7.076900 -30.431800 -7.771300
C -6.673600 -26.007800 -12.463800
C -6.563500 -27.055600 -11.592400
C -6.351000 -29.243300 -9.802300
C -6.240900 -30.291100 -8.930900
C -5.837600 -25.867100 -13.623400
C -5.657600 -28.149400 -11.844100
C -5.558900 -29.180100 -11.002600
C -5.253700 -31.318100 -9.097700
N -5.170600 -25.735500 -14.541300
H -5.147400 -28.125100 -12.630000
H -5.001500 -29.874100 -11.210800
N -4.437600 -32.107100 -9.203300
20
Fragment
N -4.736000 -41.490200 -12.191400
H -4.172100 -39.257200 -10.183900
H -4.026200 -37.508200 -8.764700
N -4.003000 -35.118700 -6.853400
C -3.919800 -40.701300 -12.297000
C -3.614700 -38.563200 -10.392100
C -3.516000 -37.532600 -9.550600
C -3.336000 -35.250200 -7.771300
C -2.932700 -39.674200 -12.463800
C -2.822600 -38.626500 -11.592400
C -2.610100 -36.438700 -9.802300
C -2.500000 -35.391000 -8.930900
C -2.096700 -39.815000 -13.623400
C -1.916700 -37.532600 -11.844100
C -1.818000 -36.502000 -11.002600
C -1.512800 -34.363900 -9.097700
N -1.429700 -39.946500 -14.541300
H -1.406500 -37.557000 -12.630000
H -1.260600 -35.808000 -11.210800
N -0.696700 -33.575000 -9.203300
40
Fragment
N -8.476900 -24.191800 -12.191400
H -7.913000 -26.424800 -10.183900
H -7.767100 -28.173800 -8.764700
N -7.743900 -30.563400 -6.853400
C -7.660700 -24.980800 -12.297000
C -7.355600 -27.118800 -10.392100
C -7.256900 -28.149400 -9.550600
C -7.076900 -30.431800 -7.771300
C -6.673600 -26.007800 -12.463800
C -6.563500 -27.055600 -11.592400
C -6.351000 -29.243300 -9.802300
C -6.240900 -30.291100 -8.930900
C -5.837600 -25.867100 -13.623400
C -5.657600 -28.149400 -11.844100
C -5.558900 -29.180100 -11.002600
C -5.253700 -31.318100 -9.097700
N -5.170600 -25.735500 -14.541300
H -5.147400 -28.125100 -12.630000
H -5.001500 -29.874100 -11.210800
N -4.437600 -32.107100 -9.203300
N -4.736000 -41.490200 -12.191400
H -4.172100 -39.257200 -10.183900
H -4.026200 -37.508200 -8.764700
N -4.003000 -35.118700 -6.853400
C -3.919800 -40.701300 -12.297000
C -3.614700 -38.563200 -10.392100
C -3.516000 -37.532600 -9.550600
C -3.336000 -35.250200 -7.771300
C -2.932700 -39.674200 -12.463800
C -2.822600 -38.626500 -11.592400
C -2.610100 -36.438700 -9.802300
C -2.500000 -35.391000 -8.930900
C -2.096700 -39.815000 -13.623400
C -1.916700 -37.532600 -11.844100
C -1.818000 -36.502000 -11.002600
C -1.512800 -34.363900 -9.097700
N -1.429700 -39.946500 -14.541300
H -1.406500 -37.557000 -12.630000
H -1.260600 -35.808000 -11.210800
N -0.696700 -33.575000 -9.203300
