20
Fragment
N -13.226600 -8.088200 -16.353100
C -12.861600 -8.598500 -17.304700
N -12.590300 -11.833000 -18.480600
C -12.520600 -10.689800 -18.485100
C -12.418100 -9.264900 -18.490600
H -12.044600 -6.681400 -18.731400
C -11.904300 -8.576100 -19.568800
C -11.765400 -7.140600 -19.538100
H -11.567500 -10.202800 -20.788400
C -11.470200 -9.268400 -20.754500
C -11.237500 -6.476600 -20.577000
H -11.140300 -5.542200 -20.543100
C -10.942400 -8.604400 -21.793400
C -10.803500 -7.168900 -21.762700
H -10.663200 -9.063600 -22.600100
C -10.289600 -6.480100 -22.840900
C -10.187100 -5.055200 -22.846400
N -10.117400 -3.912000 -22.851000
C -9.846200 -7.146500 -24.026800
N -9.481100 -7.656800 -24.978400
18
Fragment
H -8.789300 -10.769600 -25.175000
C -8.350300 -10.998700 -26.034200
H -8.289400 -9.069100 -26.820000
H -8.266700 -12.989600 -25.624200
C -8.073500 -12.310200 -26.277200
C -8.046100 -10.042200 -26.990300
C -7.481500 -12.718700 -27.488200
C -7.444100 -10.389700 -28.171000
H -7.414500 -14.760900 -27.198900
H -7.274100 -9.746200 -28.841100
C -7.199700 -14.075100 -27.828800
C -7.158200 -11.729400 -28.432200
C -6.625700 -14.400400 -29.000300
N -6.551800 -12.106900 -29.613900
H -6.431200 -15.296300 -29.243400
H -6.295700 -11.367900 -30.231200
C -6.257300 -13.388400 -29.960000
O -5.680600 -13.626000 -31.040800
38
Fragment
N -13.226600 -8.088200 -16.353100
C -12.861600 -8.598500 -17.304700
N -12.590300 -11.833000 -18.480600
C -12.520600 -10.689800 -18.485100
C -12.418100 -9.264900 -18.490600
H -12.044600 -6.681400 -18.731400
C -11.904300 -8.576100 -19.568800
C -11.765400 -7.140600 -19.538100
H -11.567500 -10.202800 -20.788400
C -11.470200 -9.268400 -20.754500
C -11.237500 -6.476600 -20.577000
H -11.140300 -5.542200 -20.543100
C -10.942400 -8.604400 -21.793400
C -10.803500 -7.168900 -21.762700
H -10.663200 -9.063600 -22.600100
C -10.289600 -6.480100 -22.840900
C -10.187100 -5.055200 -22.846400
N -10.117400 -3.912000 -22.851000
C -9.846200 -7.146500 -24.026800
N -9.481100 -7.656800 -24.978400
H -8.789300 -10.769600 -25.175000
C -8.350300 -10.998700 -26.034200
H -8.289400 -9.069100 -26.820000
H -8.266700 -12.989600 -25.624200
C -8.073500 -12.310200 -26.277200
C -8.046100 -10.042200 -26.990300
C -7.481500 -12.718700 -27.488200
C -7.444100 -10.389700 -28.171000
H -7.414500 -14.760900 -27.198900
H -7.274100 -9.746200 -28.841100
C -7.199700 -14.075100 -27.828800
C -7.158200 -11.729400 -28.432200
C -6.625700 -14.400400 -29.000300
N -6.551800 -12.106900 -29.613900
H -6.431200 -15.296300 -29.243400
H -6.295700 -11.367900 -30.231200
C -6.257300 -13.388400 -29.960000
O -5.680600 -13.626000 -31.040800
