20
Fragment
N -13.226600 -8.088200 -16.353100
C -12.861600 -8.598500 -17.304700
N -12.590300 -11.833000 -18.480600
C -12.520600 -10.689800 -18.485100
C -12.418100 -9.264900 -18.490600
H -12.044600 -6.681400 -18.731400
C -11.904300 -8.576100 -19.568800
C -11.765400 -7.140600 -19.538100
H -11.567500 -10.202800 -20.788400
C -11.470200 -9.268400 -20.754500
C -11.237500 -6.476600 -20.577000
H -11.140300 -5.542200 -20.543100
C -10.942400 -8.604400 -21.793400
C -10.803500 -7.168900 -21.762700
H -10.663200 -9.063600 -22.600100
C -10.289600 -6.480100 -22.840900
C -10.187100 -5.055200 -22.846400
N -10.117400 -3.912000 -22.851000
C -9.846200 -7.146500 -24.026800
N -9.481100 -7.656800 -24.978400
18
Fragment
O -17.027200 -2.119000 -10.290700
C -16.450400 -2.356600 -11.371500
H -16.412000 -4.377100 -11.100300
H -16.276600 -0.448700 -12.088100
N -16.155900 -3.638100 -11.717600
C -16.082100 -1.344600 -12.331300
C -15.549500 -4.015600 -12.899300
C -15.508100 -1.669900 -13.502700
H -15.433600 -5.998800 -12.490400
H -15.293300 -0.984100 -14.132600
C -15.263600 -5.355300 -13.160500
C -15.226200 -3.026300 -13.843300
C -14.661600 -5.702800 -14.341200
C -14.634300 -3.434800 -15.054300
H -14.441000 -2.755400 -15.707400
H -14.418400 -6.675900 -14.511500
C -14.357500 -4.746300 -15.297300
H -13.918500 -4.975400 -16.156500
38
Fragment
N -13.226600 -8.088200 -16.353100
C -12.861600 -8.598500 -17.304700
N -12.590300 -11.833000 -18.480600
C -12.520600 -10.689800 -18.485100
C -12.418100 -9.264900 -18.490600
H -12.044600 -6.681400 -18.731400
C -11.904300 -8.576100 -19.568800
C -11.765400 -7.140600 -19.538100
H -11.567500 -10.202800 -20.788400
C -11.470200 -9.268400 -20.754500
C -11.237500 -6.476600 -20.577000
H -11.140300 -5.542200 -20.543100
C -10.942400 -8.604400 -21.793400
C -10.803500 -7.168900 -21.762700
H -10.663200 -9.063600 -22.600100
C -10.289600 -6.480100 -22.840900
C -10.187100 -5.055200 -22.846400
N -10.117400 -3.912000 -22.851000
C -9.846200 -7.146500 -24.026800
N -9.481100 -7.656800 -24.978400
O -17.027200 -2.119000 -10.290700
C -16.450400 -2.356600 -11.371500
H -16.412000 -4.377100 -11.100300
H -16.276600 -0.448700 -12.088100
N -16.155900 -3.638100 -11.717600
C -16.082100 -1.344600 -12.331300
C -15.549500 -4.015600 -12.899300
C -15.508100 -1.669900 -13.502700
H -15.433600 -5.998800 -12.490400
H -15.293300 -0.984100 -14.132600
C -15.263600 -5.355300 -13.160500
C -15.226200 -3.026300 -13.843300
C -14.661600 -5.702800 -14.341200
C -14.634300 -3.434800 -15.054300
H -14.441000 -2.755400 -15.707400
H -14.418400 -6.675900 -14.511500
C -14.357500 -4.746300 -15.297300
H -13.918500 -4.975400 -16.156500
