20
Fragment
N -21.115400 -19.026700 -12.146000
H -20.885800 -16.873200 -14.339700
H -20.832300 -15.299900 -15.958200
N -20.749200 -13.261000 -18.214800
C -20.432900 -18.115200 -12.131800
C -20.321600 -16.134000 -14.230800
C -20.274100 -15.202200 -15.189100
C -20.151700 -13.182500 -17.244600
C -19.569500 -16.972800 -12.054500
C -19.520700 -16.014500 -13.038300
C -19.425900 -14.044200 -15.060500
C -19.377200 -13.085800 -16.044200
C -18.795000 -16.876200 -10.854200
C -18.672600 -14.856400 -12.909600
C -18.625100 -13.924600 -13.867900
C -18.513800 -11.943400 -15.966900
N -18.197500 -16.797600 -9.883900
H -18.114400 -14.758700 -12.140500
H -18.060900 -13.185400 -13.759000
N -17.831300 -11.031900 -15.952800
16
Fragment
H -17.463000 -16.096500 -7.811400
H -17.203500 -13.803300 -9.554500
N -16.922000 -15.541300 -7.357200
C -16.569400 -13.536500 -8.832800
N -16.437400 -15.971300 -6.139500
C -16.375900 -14.350800 -7.707100
H -15.975900 -11.798000 -9.665000
C -15.844200 -12.375600 -8.884700
C -15.599500 -15.033700 -5.735500
C -15.501100 -13.977900 -6.678900
H -15.221000 -15.943300 -4.064900
C -14.958300 -11.997600 -7.865200
O -14.944000 -15.092900 -4.572000
C -14.778000 -12.777700 -6.754600
H -14.490500 -11.131700 -7.966900
H -14.161600 -12.508500 -6.026200
36
Fragment
N -21.115400 -19.026700 -12.146000
H -20.885800 -16.873200 -14.339700
H -20.832300 -15.299900 -15.958200
N -20.749200 -13.261000 -18.214800
C -20.432900 -18.115200 -12.131800
C -20.321600 -16.134000 -14.230800
C -20.274100 -15.202200 -15.189100
C -20.151700 -13.182500 -17.244600
C -19.569500 -16.972800 -12.054500
C -19.520700 -16.014500 -13.038300
C -19.425900 -14.044200 -15.060500
C -19.377200 -13.085800 -16.044200
C -18.795000 -16.876200 -10.854200
C -18.672600 -14.856400 -12.909600
C -18.625100 -13.924600 -13.867900
C -18.513800 -11.943400 -15.966900
N -18.197500 -16.797600 -9.883900
H -18.114400 -14.758700 -12.140500
H -18.060900 -13.185400 -13.759000
N -17.831300 -11.031900 -15.952800
H -17.463000 -16.096500 -7.811400
H -17.203500 -13.803300 -9.554500
N -16.922000 -15.541300 -7.357200
C -16.569400 -13.536500 -8.832800
N -16.437400 -15.971300 -6.139500
C -16.375900 -14.350800 -7.707100
H -15.975900 -11.798000 -9.665000
C -15.844200 -12.375600 -8.884700
C -15.599500 -15.033700 -5.735500
C -15.501100 -13.977900 -6.678900
H -15.221000 -15.943300 -4.064900
C -14.958300 -11.997600 -7.865200
O -14.944000 -15.092900 -4.572000
C -14.778000 -12.777700 -6.754600
H -14.490500 -11.131700 -7.966900
H -14.161600 -12.508500 -6.026200
