20
Fragment
N -13.226600 -8.088200 -16.353100
C -12.861600 -8.598500 -17.304700
N -12.590300 -11.833000 -18.480600
C -12.520600 -10.689800 -18.485100
C -12.418100 -9.264900 -18.490600
H -12.044600 -6.681400 -18.731400
C -11.904300 -8.576100 -19.568800
C -11.765400 -7.140600 -19.538100
H -11.567500 -10.202800 -20.788400
C -11.470200 -9.268400 -20.754500
C -11.237500 -6.476600 -20.577000
H -11.140300 -5.542200 -20.543100
C -10.942400 -8.604400 -21.793400
C -10.803500 -7.168900 -21.762700
H -10.663200 -9.063600 -22.600100
C -10.289600 -6.480100 -22.840900
C -10.187100 -5.055200 -22.846400
N -10.117400 -3.912000 -22.851000
C -9.846200 -7.146500 -24.026800
N -9.481100 -7.656800 -24.978400
20
Fragment
N -13.226600 -15.960700 -16.353100
C -12.861600 -16.471000 -17.304700
N -12.590300 -19.705500 -18.480600
C -12.520600 -18.562300 -18.485100
C -12.418100 -17.137400 -18.490600
H -12.044600 -14.553900 -18.731400
C -11.904300 -16.448600 -19.568800
C -11.765400 -15.013100 -19.538100
H -11.567500 -18.075300 -20.788400
C -11.470200 -17.140900 -20.754500
C -11.237500 -14.349100 -20.577000
H -11.140300 -13.414700 -20.543100
C -10.942400 -16.476900 -21.793400
C -10.803500 -15.041400 -21.762700
H -10.663200 -16.936100 -22.600100
C -10.289600 -14.352600 -22.840900
C -10.187100 -12.927700 -22.846400
N -10.117400 -11.784500 -22.851000
C -9.846200 -15.019000 -24.026800
N -9.481100 -15.529300 -24.978400
40
Fragment
N -13.226600 -8.088200 -16.353100
C -12.861600 -8.598500 -17.304700
N -12.590300 -11.833000 -18.480600
C -12.520600 -10.689800 -18.485100
C -12.418100 -9.264900 -18.490600
H -12.044600 -6.681400 -18.731400
C -11.904300 -8.576100 -19.568800
C -11.765400 -7.140600 -19.538100
H -11.567500 -10.202800 -20.788400
C -11.470200 -9.268400 -20.754500
C -11.237500 -6.476600 -20.577000
H -11.140300 -5.542200 -20.543100
C -10.942400 -8.604400 -21.793400
C -10.803500 -7.168900 -21.762700
H -10.663200 -9.063600 -22.600100
C -10.289600 -6.480100 -22.840900
C -10.187100 -5.055200 -22.846400
N -10.117400 -3.912000 -22.851000
C -9.846200 -7.146500 -24.026800
N -9.481100 -7.656800 -24.978400
N -13.226600 -15.960700 -16.353100
C -12.861600 -16.471000 -17.304700
N -12.590300 -19.705500 -18.480600
C -12.520600 -18.562300 -18.485100
C -12.418100 -17.137400 -18.490600
H -12.044600 -14.553900 -18.731400
C -11.904300 -16.448600 -19.568800
C -11.765400 -15.013100 -19.538100
H -11.567500 -18.075300 -20.788400
C -11.470200 -17.140900 -20.754500
C -11.237500 -14.349100 -20.577000
H -11.140300 -13.414700 -20.543100
C -10.942400 -16.476900 -21.793400
C -10.803500 -15.041400 -21.762700
H -10.663200 -16.936100 -22.600100
C -10.289600 -14.352600 -22.840900
C -10.187100 -12.927700 -22.846400
N -10.117400 -11.784500 -22.851000
C -9.846200 -15.019000 -24.026800
N -9.481100 -15.529300 -24.978400
