20
Fragment
N -13.226600 -8.088200 -16.353100
C -12.861600 -8.598500 -17.304700
N -12.590300 -11.833000 -18.480600
C -12.520600 -10.689800 -18.485100
C -12.418100 -9.264900 -18.490600
H -12.044600 -6.681400 -18.731400
C -11.904300 -8.576100 -19.568800
C -11.765400 -7.140600 -19.538100
H -11.567500 -10.202800 -20.788400
C -11.470200 -9.268400 -20.754500
C -11.237500 -6.476600 -20.577000
H -11.140300 -5.542200 -20.543100
C -10.942400 -8.604400 -21.793400
C -10.803500 -7.168900 -21.762700
H -10.663200 -9.063600 -22.600100
C -10.289600 -6.480100 -22.840900
C -10.187100 -5.055200 -22.846400
N -10.117400 -3.912000 -22.851000
C -9.846200 -7.146500 -24.026800
N -9.481100 -7.656800 -24.978400
18
Fragment
H -12.467000 -10.769600 -11.397900
C -12.028000 -10.998700 -12.257000
H -11.967200 -9.069100 -13.042800
H -11.944500 -12.989600 -11.847000
C -11.751300 -12.310200 -12.500000
C -11.723900 -10.042200 -13.213100
C -11.159300 -12.718700 -13.711000
C -11.121900 -10.389700 -14.393800
H -11.092200 -14.760900 -13.421700
H -10.951900 -9.746200 -15.064000
C -10.877400 -14.075100 -14.051600
C -10.836000 -11.729400 -14.655100
C -10.303400 -14.400400 -15.223100
N -10.229600 -12.106900 -15.836700
H -10.108900 -15.296300 -15.466200
H -9.973500 -11.367900 -16.454100
C -9.935100 -13.388400 -16.182800
O -9.358300 -13.626000 -17.263600
38
Fragment
N -13.226600 -8.088200 -16.353100
C -12.861600 -8.598500 -17.304700
N -12.590300 -11.833000 -18.480600
C -12.520600 -10.689800 -18.485100
C -12.418100 -9.264900 -18.490600
H -12.044600 -6.681400 -18.731400
C -11.904300 -8.576100 -19.568800
C -11.765400 -7.140600 -19.538100
H -11.567500 -10.202800 -20.788400
C -11.470200 -9.268400 -20.754500
C -11.237500 -6.476600 -20.577000
H -11.140300 -5.542200 -20.543100
C -10.942400 -8.604400 -21.793400
C -10.803500 -7.168900 -21.762700
H -10.663200 -9.063600 -22.600100
C -10.289600 -6.480100 -22.840900
C -10.187100 -5.055200 -22.846400
N -10.117400 -3.912000 -22.851000
C -9.846200 -7.146500 -24.026800
N -9.481100 -7.656800 -24.978400
H -12.467000 -10.769600 -11.397900
C -12.028000 -10.998700 -12.257000
H -11.967200 -9.069100 -13.042800
H -11.944500 -12.989600 -11.847000
C -11.751300 -12.310200 -12.500000
C -11.723900 -10.042200 -13.213100
C -11.159300 -12.718700 -13.711000
C -11.121900 -10.389700 -14.393800
H -11.092200 -14.760900 -13.421700
H -10.951900 -9.746200 -15.064000
C -10.877400 -14.075100 -14.051600
C -10.836000 -11.729400 -14.655100
C -10.303400 -14.400400 -15.223100
N -10.229600 -12.106900 -15.836700
H -10.108900 -15.296300 -15.466200
H -9.973500 -11.367900 -16.454100
C -9.935100 -13.388400 -16.182800
O -9.358300 -13.626000 -17.263600
