20
Fragment
N -8.476900 -24.191800 -12.191400
H -7.913000 -26.424800 -10.183900
H -7.767100 -28.173800 -8.764700
N -7.743900 -30.563400 -6.853400
C -7.660700 -24.980800 -12.297000
C -7.355600 -27.118800 -10.392100
C -7.256900 -28.149400 -9.550600
C -7.076900 -30.431800 -7.771300
C -6.673600 -26.007800 -12.463800
C -6.563500 -27.055600 -11.592400
C -6.351000 -29.243300 -9.802300
C -6.240900 -30.291100 -8.930900
C -5.837600 -25.867100 -13.623400
C -5.657600 -28.149400 -11.844100
C -5.558900 -29.180100 -11.002600
C -5.253700 -31.318100 -9.097700
N -5.170600 -25.735500 -14.541300
H -5.147400 -28.125100 -12.630000
H -5.001500 -29.874100 -11.210800
N -4.437600 -32.107100 -9.203300
20
Fragment
N -5.299900 -24.191800 -19.323000
H -4.736000 -26.424800 -17.315400
H -4.590100 -28.173800 -15.896300
N -4.566900 -30.563400 -13.985000
C -4.483700 -24.980800 -19.428500
C -4.178600 -27.118800 -17.523700
C -4.079900 -28.149400 -16.682100
C -3.899900 -30.431800 -14.902800
C -3.496600 -26.007800 -19.595400
C -3.386500 -27.055600 -18.723900
C -3.174000 -29.243300 -16.933900
C -3.063900 -30.291100 -16.062400
C -2.660600 -25.867100 -20.755000
C -2.480600 -28.149400 -18.975700
C -2.381900 -29.180100 -18.134100
C -2.076800 -31.318100 -16.229300
N -1.993600 -25.735500 -21.672800
H -1.970400 -28.125100 -19.761600
H -1.824500 -29.874100 -18.342400
N -1.260600 -32.107100 -16.334800
40
Fragment
N -8.476900 -24.191800 -12.191400
H -7.913000 -26.424800 -10.183900
H -7.767100 -28.173800 -8.764700
N -7.743900 -30.563400 -6.853400
C -7.660700 -24.980800 -12.297000
C -7.355600 -27.118800 -10.392100
C -7.256900 -28.149400 -9.550600
C -7.076900 -30.431800 -7.771300
C -6.673600 -26.007800 -12.463800
C -6.563500 -27.055600 -11.592400
C -6.351000 -29.243300 -9.802300
C -6.240900 -30.291100 -8.930900
C -5.837600 -25.867100 -13.623400
C -5.657600 -28.149400 -11.844100
C -5.558900 -29.180100 -11.002600
C -5.253700 -31.318100 -9.097700
N -5.170600 -25.735500 -14.541300
H -5.147400 -28.125100 -12.630000
H -5.001500 -29.874100 -11.210800
N -4.437600 -32.107100 -9.203300
N -5.299900 -24.191800 -19.323000
H -4.736000 -26.424800 -17.315400
H -4.590100 -28.173800 -15.896300
N -4.566900 -30.563400 -13.985000
C -4.483700 -24.980800 -19.428500
C -4.178600 -27.118800 -17.523700
C -4.079900 -28.149400 -16.682100
C -3.899900 -30.431800 -14.902800
C -3.496600 -26.007800 -19.595400
C -3.386500 -27.055600 -18.723900
C -3.174000 -29.243300 -16.933900
C -3.063900 -30.291100 -16.062400
C -2.660600 -25.867100 -20.755000
C -2.480600 -28.149400 -18.975700
C -2.381900 -29.180100 -18.134100
C -2.076800 -31.318100 -16.229300
N -1.993600 -25.735500 -21.672800
H -1.970400 -28.125100 -19.761600
H -1.824500 -29.874100 -18.342400
N -1.260600 -32.107100 -16.334800
