20
Fragment
N -13.226600 -8.088200 -16.353100
C -12.861600 -8.598500 -17.304700
N -12.590300 -11.833000 -18.480600
C -12.520600 -10.689800 -18.485100
C -12.418100 -9.264900 -18.490600
H -12.044600 -6.681400 -18.731400
C -11.904300 -8.576100 -19.568800
C -11.765400 -7.140600 -19.538100
H -11.567500 -10.202800 -20.788400
C -11.470200 -9.268400 -20.754500
C -11.237500 -6.476600 -20.577000
H -11.140300 -5.542200 -20.543100
C -10.942400 -8.604400 -21.793400
C -10.803500 -7.168900 -21.762700
H -10.663200 -9.063600 -22.600100
C -10.289600 -6.480100 -22.840900
C -10.187100 -5.055200 -22.846400
N -10.117400 -3.912000 -22.851000
C -9.846200 -7.146500 -24.026800
N -9.481100 -7.656800 -24.978400
18
Fragment
O -17.027200 -9.991500 -10.290700
C -16.450400 -10.229100 -11.371500
H -16.412000 -12.249600 -11.100300
H -16.276600 -8.321200 -12.088100
N -16.155900 -11.510600 -11.717600
C -16.082100 -9.217100 -12.331300
C -15.549500 -11.888100 -12.899300
C -15.508100 -9.542400 -13.502700
H -15.433600 -13.871300 -12.490400
H -15.293300 -8.856600 -14.132600
C -15.263600 -13.227800 -13.160500
C -15.226200 -10.898800 -13.843300
C -14.661600 -13.575300 -14.341200
C -14.634300 -11.307300 -15.054300
H -14.441000 -10.627900 -15.707400
H -14.418400 -14.548400 -14.511500
C -14.357500 -12.618800 -15.297300
H -13.918500 -12.847900 -16.156500
38
Fragment
N -13.226600 -8.088200 -16.353100
C -12.861600 -8.598500 -17.304700
N -12.590300 -11.833000 -18.480600
C -12.520600 -10.689800 -18.485100
C -12.418100 -9.264900 -18.490600
H -12.044600 -6.681400 -18.731400
C -11.904300 -8.576100 -19.568800
C -11.765400 -7.140600 -19.538100
H -11.567500 -10.202800 -20.788400
C -11.470200 -9.268400 -20.754500
C -11.237500 -6.476600 -20.577000
H -11.140300 -5.542200 -20.543100
C -10.942400 -8.604400 -21.793400
C -10.803500 -7.168900 -21.762700
H -10.663200 -9.063600 -22.600100
C -10.289600 -6.480100 -22.840900
C -10.187100 -5.055200 -22.846400
N -10.117400 -3.912000 -22.851000
C -9.846200 -7.146500 -24.026800
N -9.481100 -7.656800 -24.978400
O -17.027200 -9.991500 -10.290700
C -16.450400 -10.229100 -11.371500
H -16.412000 -12.249600 -11.100300
H -16.276600 -8.321200 -12.088100
N -16.155900 -11.510600 -11.717600
C -16.082100 -9.217100 -12.331300
C -15.549500 -11.888100 -12.899300
C -15.508100 -9.542400 -13.502700
H -15.433600 -13.871300 -12.490400
H -15.293300 -8.856600 -14.132600
C -15.263600 -13.227800 -13.160500
C -15.226200 -10.898800 -13.843300
C -14.661600 -13.575300 -14.341200
C -14.634300 -11.307300 -15.054300
H -14.441000 -10.627900 -15.707400
H -14.418400 -14.548400 -14.511500
C -14.357500 -12.618800 -15.297300
H -13.918500 -12.847900 -16.156500
