20
Fragment
H -9.655300 -15.654600 -19.930500
C -9.116000 -15.552000 -19.172700
N -9.014900 -14.315700 -18.706100
H -8.650400 -17.497700 -18.980200
C -8.524500 -16.643500 -18.583300
C -8.298000 -14.162500 -17.601400
H -8.207200 -13.270700 -17.276700
C -7.776000 -16.488200 -17.432000
H -7.724200 -19.124400 -18.036700
C -7.682100 -15.198400 -16.938200
C -7.206900 -18.927300 -17.245900
H -7.164800 -15.001300 -16.147400
C -7.113100 -17.637600 -16.752200
H -6.681800 -20.855000 -16.907500
C -6.591100 -19.963300 -16.582700
C -6.364500 -17.482300 -15.600800
H -6.238600 -16.628100 -15.204000
N -5.874100 -19.810000 -15.478000
C -5.773100 -18.573700 -15.011400
H -5.233800 -18.471100 -14.253600
20
Fragment
H -5.335300 -15.654600 -19.930500
C -4.796000 -15.552000 -19.172700
N -4.694900 -14.315700 -18.706100
H -4.330400 -17.497700 -18.980200
C -4.204500 -16.643500 -18.583300
C -3.978000 -14.162500 -17.601400
H -3.887200 -13.270700 -17.276700
C -3.456000 -16.488200 -17.432000
H -3.404200 -19.124400 -18.036700
C -3.362100 -15.198400 -16.938200
C -2.886900 -18.927300 -17.245900
H -2.844800 -15.001300 -16.147400
C -2.793100 -17.637600 -16.752200
H -2.361800 -20.855000 -16.907500
C -2.271100 -19.963300 -16.582700
C -2.044500 -17.482300 -15.600800
H -1.918600 -16.628100 -15.204000
N -1.554100 -19.810000 -15.478000
C -1.453100 -18.573700 -15.011400
H -0.913800 -18.471100 -14.253600
40
Fragment
H -9.655300 -15.654600 -19.930500
C -9.116000 -15.552000 -19.172700
N -9.014900 -14.315700 -18.706100
H -8.650400 -17.497700 -18.980200
C -8.524500 -16.643500 -18.583300
C -8.298000 -14.162500 -17.601400
H -8.207200 -13.270700 -17.276700
C -7.776000 -16.488200 -17.432000
H -7.724200 -19.124400 -18.036700
C -7.682100 -15.198400 -16.938200
C -7.206900 -18.927300 -17.245900
H -7.164800 -15.001300 -16.147400
C -7.113100 -17.637600 -16.752200
H -6.681800 -20.855000 -16.907500
C -6.591100 -19.963300 -16.582700
C -6.364500 -17.482300 -15.600800
H -6.238600 -16.628100 -15.204000
N -5.874100 -19.810000 -15.478000
C -5.773100 -18.573700 -15.011400
H -5.233800 -18.471100 -14.253600
H -5.335300 -15.654600 -19.930500
C -4.796000 -15.552000 -19.172700
N -4.694900 -14.315700 -18.706100
H -4.330400 -17.497700 -18.980200
C -4.204500 -16.643500 -18.583300
C -3.978000 -14.162500 -17.601400
H -3.887200 -13.270700 -17.276700
C -3.456000 -16.488200 -17.432000
H -3.404200 -19.124400 -18.036700
C -3.362100 -15.198400 -16.938200
C -2.886900 -18.927300 -17.245900
H -2.844800 -15.001300 -16.147400
C -2.793100 -17.637600 -16.752200
H -2.361800 -20.855000 -16.907500
C -2.271100 -19.963300 -16.582700
C -2.044500 -17.482300 -15.600800
H -1.918600 -16.628100 -15.204000
N -1.554100 -19.810000 -15.478000
C -1.453100 -18.573700 -15.011400
H -0.913800 -18.471100 -14.253600
