20
Fragment
H -9.655300 -15.654600 -19.930500
C -9.116000 -15.552000 -19.172700
N -9.014900 -14.315700 -18.706100
H -8.650400 -17.497700 -18.980200
C -8.524500 -16.643500 -18.583300
C -8.298000 -14.162500 -17.601400
H -8.207200 -13.270700 -17.276700
C -7.776000 -16.488200 -17.432000
H -7.724200 -19.124400 -18.036700
C -7.682100 -15.198400 -16.938200
C -7.206900 -18.927300 -17.245900
H -7.164800 -15.001300 -16.147400
C -7.113100 -17.637600 -16.752200
H -6.681800 -20.855000 -16.907500
C -6.591100 -19.963300 -16.582700
C -6.364500 -17.482300 -15.600800
H -6.238600 -16.628100 -15.204000
N -5.874100 -19.810000 -15.478000
C -5.773100 -18.573700 -15.011400
H -5.233800 -18.471100 -14.253600
20
Fragment
H -13.391100 -6.471200 -19.930500
C -12.851800 -6.368600 -19.172700
N -12.750700 -5.132300 -18.706100
H -12.386200 -8.314300 -18.980200
C -12.260300 -7.460100 -18.583300
C -12.033800 -4.979000 -17.601400
H -11.943000 -4.087300 -17.276700
C -11.511800 -7.304700 -17.432000
H -11.460000 -9.941000 -18.036700
C -11.417900 -6.015000 -16.938200
C -10.942700 -9.743900 -17.245900
H -10.900600 -5.817900 -16.147400
C -10.848900 -8.454200 -16.752200
H -10.417600 -11.671600 -16.907500
C -10.326900 -10.779900 -16.582700
C -10.100300 -8.298800 -15.600800
H -9.974400 -7.444600 -15.204000
N -9.609900 -10.626600 -15.478000
C -9.508900 -9.390300 -15.011400
H -8.969600 -9.287700 -14.253600
40
Fragment
H -9.655300 -15.654600 -19.930500
C -9.116000 -15.552000 -19.172700
N -9.014900 -14.315700 -18.706100
H -8.650400 -17.497700 -18.980200
C -8.524500 -16.643500 -18.583300
C -8.298000 -14.162500 -17.601400
H -8.207200 -13.270700 -17.276700
C -7.776000 -16.488200 -17.432000
H -7.724200 -19.124400 -18.036700
C -7.682100 -15.198400 -16.938200
C -7.206900 -18.927300 -17.245900
H -7.164800 -15.001300 -16.147400
C -7.113100 -17.637600 -16.752200
H -6.681800 -20.855000 -16.907500
C -6.591100 -19.963300 -16.582700
C -6.364500 -17.482300 -15.600800
H -6.238600 -16.628100 -15.204000
N -5.874100 -19.810000 -15.478000
C -5.773100 -18.573700 -15.011400
H -5.233800 -18.471100 -14.253600
H -13.391100 -6.471200 -19.930500
C -12.851800 -6.368600 -19.172700
N -12.750700 -5.132300 -18.706100
H -12.386200 -8.314300 -18.980200
C -12.260300 -7.460100 -18.583300
C -12.033800 -4.979000 -17.601400
H -11.943000 -4.087300 -17.276700
C -11.511800 -7.304700 -17.432000
H -11.460000 -9.941000 -18.036700
C -11.417900 -6.015000 -16.938200
C -10.942700 -9.743900 -17.245900
H -10.900600 -5.817900 -16.147400
C -10.848900 -8.454200 -16.752200
H -10.417600 -11.671600 -16.907500
C -10.326900 -10.779900 -16.582700
C -10.100300 -8.298800 -15.600800
H -9.974400 -7.444600 -15.204000
N -9.609900 -10.626600 -15.478000
C -9.508900 -9.390300 -15.011400
H -8.969600 -9.287700 -14.253600
