20
Fragment
H -9.655300 -15.654600 -19.930500
C -9.116000 -15.552000 -19.172700
N -9.014900 -14.315700 -18.706100
H -8.650400 -17.497700 -18.980200
C -8.524500 -16.643500 -18.583300
C -8.298000 -14.162500 -17.601400
H -8.207200 -13.270700 -17.276700
C -7.776000 -16.488200 -17.432000
H -7.724200 -19.124400 -18.036700
C -7.682100 -15.198400 -16.938200
C -7.206900 -18.927300 -17.245900
H -7.164800 -15.001300 -16.147400
C -7.113100 -17.637600 -16.752200
H -6.681800 -20.855000 -16.907500
C -6.591100 -19.963300 -16.582700
C -6.364500 -17.482300 -15.600800
H -6.238600 -16.628100 -15.204000
N -5.874100 -19.810000 -15.478000
C -5.773100 -18.573700 -15.011400
H -5.233800 -18.471100 -14.253600
12
Fragment
H -8.065100 -21.499500 -23.017300
O -7.586800 -23.219300 -21.382200
N -7.496600 -21.193200 -22.394900
O -7.253300 -19.225300 -23.486700
C -7.129500 -22.081800 -21.418500
C -6.951000 -19.946200 -22.552500
N -6.224900 -21.633900 -20.509100
N -6.057300 -19.586900 -21.586600
H -5.922300 -22.266100 -19.793800
H -5.681400 -18.799100 -21.687600
C -5.645100 -20.390200 -20.549500
O -4.808800 -20.031500 -19.748400
32
Fragment
H -9.655300 -15.654600 -19.930500
C -9.116000 -15.552000 -19.172700
N -9.014900 -14.315700 -18.706100
H -8.650400 -17.497700 -18.980200
C -8.524500 -16.643500 -18.583300
C -8.298000 -14.162500 -17.601400
H -8.207200 -13.270700 -17.276700
C -7.776000 -16.488200 -17.432000
H -7.724200 -19.124400 -18.036700
C -7.682100 -15.198400 -16.938200
C -7.206900 -18.927300 -17.245900
H -7.164800 -15.001300 -16.147400
C -7.113100 -17.637600 -16.752200
H -6.681800 -20.855000 -16.907500
C -6.591100 -19.963300 -16.582700
C -6.364500 -17.482300 -15.600800
H -6.238600 -16.628100 -15.204000
N -5.874100 -19.810000 -15.478000
C -5.773100 -18.573700 -15.011400
H -5.233800 -18.471100 -14.253600
H -8.065100 -21.499500 -23.017300
O -7.586800 -23.219300 -21.382200
N -7.496600 -21.193200 -22.394900
O -7.253300 -19.225300 -23.486700
C -7.129500 -22.081800 -21.418500
C -6.951000 -19.946200 -22.552500
N -6.224900 -21.633900 -20.509100
N -6.057300 -19.586900 -21.586600
H -5.922300 -22.266100 -19.793800
H -5.681400 -18.799100 -21.687600
C -5.645100 -20.390200 -20.549500
O -4.808800 -20.031500 -19.748400
