15
Fragment
H -11.625800 -10.981200 -9.634500
O -10.730500 -10.981200 -11.914300
N -10.667500 -10.981200 -9.662800
O -10.611300 -10.981200 -7.400700
C -10.068500 -10.981200 -10.893700
C -10.012500 -10.981200 -8.459400
N -8.695500 -10.981200 -10.888000
N -8.659900 -10.981200 -8.557200
H -8.151700 -11.822100 -12.710100
H -8.151700 -10.140400 -12.710100
H -8.124800 -10.981200 -7.818900
C -7.999100 -10.981200 -12.197300
C -7.944900 -10.981200 -9.726700
H -7.080800 -10.981200 -12.141500
O -6.743800 -10.981200 -9.736400
3
Fragment
O -11.196500 -10.981200 -14.651100
H -11.083400 -10.981200 -13.932100
H -10.277700 -10.981200 -15.099900
18
Fragment
H -11.625800 -10.981200 -9.634500
O -10.730500 -10.981200 -11.914300
N -10.667500 -10.981200 -9.662800
O -10.611300 -10.981200 -7.400700
C -10.068500 -10.981200 -10.893700
C -10.012500 -10.981200 -8.459400
N -8.695500 -10.981200 -10.888000
N -8.659900 -10.981200 -8.557200
H -8.151700 -11.822100 -12.710100
H -8.151700 -10.140400 -12.710100
H -8.124800 -10.981200 -7.818900
C -7.999100 -10.981200 -12.197300
C -7.944900 -10.981200 -9.726700
H -7.080800 -10.981200 -12.141500
O -6.743800 -10.981200 -9.736400
O -11.196500 -10.981200 -14.651100
H -11.083400 -10.981200 -13.932100
H -10.277700 -10.981200 -15.099900
