15
Fragment
H -11.625800 -10.981200 -9.634500
O -10.730500 -10.981200 -11.914300
N -10.667500 -10.981200 -9.662800
O -10.611300 -10.981200 -7.400700
C -10.068500 -10.981200 -10.893700
C -10.012500 -10.981200 -8.459400
N -8.695500 -10.981200 -10.888000
N -8.659900 -10.981200 -8.557200
H -8.151700 -11.822100 -12.710100
H -8.151700 -10.140400 -12.710100
H -8.124800 -10.981200 -7.818900
C -7.999100 -10.981200 -12.197300
C -7.944900 -10.981200 -9.726700
H -7.080800 -10.981200 -12.141500
O -6.743800 -10.981200 -9.736400
15
Fragment
H -13.801900 -10.981200 -1.547100
O -12.906600 -10.981200 -3.826900
N -12.843600 -10.981200 -1.575400
O -12.787400 -10.981200 0.686600
C -12.244600 -10.981200 -2.806300
C -12.188600 -10.981200 -0.372000
N -10.871600 -10.981200 -2.800700
N -10.836000 -10.981200 -0.469900
H -10.327800 -11.822100 -4.622700
H -10.327800 -10.140400 -4.622700
H -10.300900 -10.981200 0.268500
C -10.175200 -10.981200 -4.110000
C -10.120900 -10.981200 -1.639300
H -9.256900 -10.981200 -4.054200
O -8.919900 -10.981200 -1.649000
30
Fragment
H -11.625800 -10.981200 -9.634500
O -10.730500 -10.981200 -11.914300
N -10.667500 -10.981200 -9.662800
O -10.611300 -10.981200 -7.400700
C -10.068500 -10.981200 -10.893700
C -10.012500 -10.981200 -8.459400
N -8.695500 -10.981200 -10.888000
N -8.659900 -10.981200 -8.557200
H -8.151700 -11.822100 -12.710100
H -8.151700 -10.140400 -12.710100
H -8.124800 -10.981200 -7.818900
C -7.999100 -10.981200 -12.197300
C -7.944900 -10.981200 -9.726700
H -7.080800 -10.981200 -12.141500
O -6.743800 -10.981200 -9.736400
H -13.801900 -10.981200 -1.547100
O -12.906600 -10.981200 -3.826900
N -12.843600 -10.981200 -1.575400
O -12.787400 -10.981200 0.686600
C -12.244600 -10.981200 -2.806300
C -12.188600 -10.981200 -0.372000
N -10.871600 -10.981200 -2.800700
N -10.836000 -10.981200 -0.469900
H -10.327800 -11.822100 -4.622700
H -10.327800 -10.140400 -4.622700
H -10.300900 -10.981200 0.268500
C -10.175200 -10.981200 -4.110000
C -10.120900 -10.981200 -1.639300
H -9.256900 -10.981200 -4.054200
O -8.919900 -10.981200 -1.649000
