20
Fragment
H -8.458500 -33.350600 -30.465400
N -8.324800 -32.254400 -28.832500
C -8.171700 -32.469600 -30.130100
C -7.949200 -31.063300 -28.401400
H -7.930500 -30.887100 -27.551600
C -7.699300 -31.525800 -31.025700
H -7.636600 -31.727500 -31.929700
C -7.464100 -30.046700 -29.201200
C -7.321200 -30.270400 -30.550800
H -7.292300 -27.605200 -30.359200
H -7.129000 -29.208000 -28.822100
C -6.877400 -27.861100 -31.125700
C -6.812800 -29.216500 -31.465200
H -6.478900 -25.980400 -31.790100
C -6.402300 -26.922400 -32.013000
C -6.251200 -29.504500 -32.685700
H -6.094300 -30.377100 -33.002300
N -5.856200 -27.213800 -33.179300
C -5.788800 -28.499800 -33.498000
H -5.343700 -28.789500 -34.381100
15
Fragment
H -9.308500 -34.494300 -34.853900
N -8.832000 -34.016500 -35.587100
O -8.824900 -32.120500 -34.352800
O -8.735100 -35.932700 -36.797000
C -8.506600 -32.696600 -35.385100
C -8.460000 -34.743300 -36.693100
H -8.291900 -30.136500 -36.176500
N -7.838200 -32.081600 -36.411900
N -7.777800 -34.062200 -37.649100
C -7.490000 -30.653300 -36.284800
C -7.419800 -32.737300 -37.559500
H -7.346300 -34.548500 -38.407200
H -7.028300 -30.363600 -37.076300
H -6.923000 -30.527900 -35.520400
O -6.811400 -32.178100 -38.448900
35
Fragment
H -8.458500 -33.350600 -30.465400
N -8.324800 -32.254400 -28.832500
C -8.171700 -32.469600 -30.130100
C -7.949200 -31.063300 -28.401400
H -7.930500 -30.887100 -27.551600
C -7.699300 -31.525800 -31.025700
H -7.636600 -31.727500 -31.929700
C -7.464100 -30.046700 -29.201200
C -7.321200 -30.270400 -30.550800
H -7.292300 -27.605200 -30.359200
H -7.129000 -29.208000 -28.822100
C -6.877400 -27.861100 -31.125700
C -6.812800 -29.216500 -31.465200
H -6.478900 -25.980400 -31.790100
C -6.402300 -26.922400 -32.013000
C -6.251200 -29.504500 -32.685700
H -6.094300 -30.377100 -33.002300
N -5.856200 -27.213800 -33.179300
C -5.788800 -28.499800 -33.498000
H -5.343700 -28.789500 -34.381100
H -9.308500 -34.494300 -34.853900
N -8.832000 -34.016500 -35.587100
O -8.824900 -32.120500 -34.352800
O -8.735100 -35.932700 -36.797000
C -8.506600 -32.696600 -35.385100
C -8.460000 -34.743300 -36.693100
H -8.291900 -30.136500 -36.176500
N -7.838200 -32.081600 -36.411900
N -7.777800 -34.062200 -37.649100
C -7.490000 -30.653300 -36.284800
C -7.419800 -32.737300 -37.559500
H -7.346300 -34.548500 -38.407200
H -7.028300 -30.363600 -37.076300
H -6.923000 -30.527900 -35.520400
O -6.811400 -32.178100 -38.448900
