12
Fragment
O -24.662300 -10.710200 -29.522000
C -23.597500 -11.319300 -29.568000
H -23.408300 -11.705700 -27.703000
H -23.250300 -11.177400 -31.419700
N -23.011200 -11.857400 -28.456200
N -22.910600 -11.513900 -30.729100
C -21.848400 -12.588700 -28.424700
C -21.731000 -12.191000 -30.772600
O -21.453700 -13.042300 -27.348700
H -21.320300 -12.218900 -31.636100
C -21.185000 -12.725300 -29.688900
H -20.391100 -13.177400 -29.711300
15
Fragment
H -27.297700 -11.539700 -22.592900
H -26.945100 -10.241600 -26.956900
N -26.533800 -11.808300 -22.586200
N -26.387700 -11.121600 -24.768800
N -26.116600 -10.565700 -26.974600
H -26.115200 -12.037800 -21.848800
C -25.794900 -11.642300 -23.684200
H -25.611600 -10.513200 -27.695400
C -25.595300 -11.061900 -25.864300
N -24.503500 -12.017300 -23.605600
N -24.318200 -11.489400 -25.919200
C -23.819200 -11.917800 -24.756300
N -22.520100 -12.263400 -24.720200
H -22.268800 -12.754800 -24.050700
H -22.121800 -12.392500 -25.501000
27
Fragment
O -24.662300 -10.710200 -29.522000
C -23.597500 -11.319300 -29.568000
H -23.408300 -11.705700 -27.703000
H -23.250300 -11.177400 -31.419700
N -23.011200 -11.857400 -28.456200
N -22.910600 -11.513900 -30.729100
C -21.848400 -12.588700 -28.424700
C -21.731000 -12.191000 -30.772600
O -21.453700 -13.042300 -27.348700
H -21.320300 -12.218900 -31.636100
C -21.185000 -12.725300 -29.688900
H -20.391100 -13.177400 -29.711300
H -27.297700 -11.539700 -22.592900
H -26.945100 -10.241600 -26.956900
N -26.533800 -11.808300 -22.586200
N -26.387700 -11.121600 -24.768800
N -26.116600 -10.565700 -26.974600
H -26.115200 -12.037800 -21.848800
C -25.794900 -11.642300 -23.684200
H -25.611600 -10.513200 -27.695400
C -25.595300 -11.061900 -25.864300
N -24.503500 -12.017300 -23.605600
N -24.318200 -11.489400 -25.919200
C -23.819200 -11.917800 -24.756300
N -22.520100 -12.263400 -24.720200
H -22.268800 -12.754800 -24.050700
H -22.121800 -12.392500 -25.501000
