12
Fragment
O -24.662300 -10.710200 -29.522000
C -23.597500 -11.319300 -29.568000
H -23.408300 -11.705700 -27.703000
H -23.250300 -11.177400 -31.419700
N -23.011200 -11.857400 -28.456200
N -22.910600 -11.513900 -30.729100
C -21.848400 -12.588700 -28.424700
C -21.731000 -12.191000 -30.772600
O -21.453700 -13.042300 -27.348700
H -21.320300 -12.218900 -31.636100
C -21.185000 -12.725300 -29.688900
H -20.391100 -13.177400 -29.711300
15
Fragment
H -20.116800 -15.313300 -22.592900
H -19.764200 -14.015200 -26.956900
N -19.352900 -15.581900 -22.586200
N -19.206800 -14.895200 -24.768800
N -18.935700 -14.339300 -26.974600
H -18.934300 -15.811400 -21.848800
C -18.614000 -15.415900 -23.684200
H -18.430700 -14.286800 -27.695400
C -18.414400 -14.835500 -25.864300
N -17.322600 -15.790900 -23.605600
N -17.137300 -15.263000 -25.919200
C -16.638300 -15.691400 -24.756300
N -15.339200 -16.037000 -24.720200
H -15.087900 -16.528400 -24.050700
H -14.940900 -16.166100 -25.501000
27
Fragment
O -24.662300 -10.710200 -29.522000
C -23.597500 -11.319300 -29.568000
H -23.408300 -11.705700 -27.703000
H -23.250300 -11.177400 -31.419700
N -23.011200 -11.857400 -28.456200
N -22.910600 -11.513900 -30.729100
C -21.848400 -12.588700 -28.424700
C -21.731000 -12.191000 -30.772600
O -21.453700 -13.042300 -27.348700
H -21.320300 -12.218900 -31.636100
C -21.185000 -12.725300 -29.688900
H -20.391100 -13.177400 -29.711300
H -20.116800 -15.313300 -22.592900
H -19.764200 -14.015200 -26.956900
N -19.352900 -15.581900 -22.586200
N -19.206800 -14.895200 -24.768800
N -18.935700 -14.339300 -26.974600
H -18.934300 -15.811400 -21.848800
C -18.614000 -15.415900 -23.684200
H -18.430700 -14.286800 -27.695400
C -18.414400 -14.835500 -25.864300
N -17.322600 -15.790900 -23.605600
N -17.137300 -15.263000 -25.919200
C -16.638300 -15.691400 -24.756300
N -15.339200 -16.037000 -24.720200
H -15.087900 -16.528400 -24.050700
H -14.940900 -16.166100 -25.501000
