12
Fragment
O -24.662300 -10.710200 -29.522000
C -23.597500 -11.319300 -29.568000
H -23.408300 -11.705700 -27.703000
H -23.250300 -11.177400 -31.419700
N -23.011200 -11.857400 -28.456200
N -22.910600 -11.513900 -30.729100
C -21.848400 -12.588700 -28.424700
C -21.731000 -12.191000 -30.772600
O -21.453700 -13.042300 -27.348700
H -21.320300 -12.218900 -31.636100
C -21.185000 -12.725300 -29.688900
H -20.391100 -13.177400 -29.711300
15
Fragment
H -19.136200 -10.249100 -31.446300
H -18.989100 -9.886800 -32.896500
N -18.737900 -10.378200 -32.227000
C -17.438700 -10.723800 -32.191000
N -16.939700 -11.152200 -31.028100
N -16.754500 -10.624300 -33.341700
C -15.662700 -11.579700 -31.083000
H -15.646300 -12.128400 -29.251900
C -15.463000 -10.999300 -33.263100
H -15.142700 -10.603800 -35.098500
N -15.141300 -12.075900 -29.972700
N -14.870200 -11.520000 -32.178400
N -14.724200 -10.833300 -34.361000
H -14.312800 -12.400000 -29.990300
H -13.960200 -11.101900 -34.354400
27
Fragment
O -24.662300 -10.710200 -29.522000
C -23.597500 -11.319300 -29.568000
H -23.408300 -11.705700 -27.703000
H -23.250300 -11.177400 -31.419700
N -23.011200 -11.857400 -28.456200
N -22.910600 -11.513900 -30.729100
C -21.848400 -12.588700 -28.424700
C -21.731000 -12.191000 -30.772600
O -21.453700 -13.042300 -27.348700
H -21.320300 -12.218900 -31.636100
C -21.185000 -12.725300 -29.688900
H -20.391100 -13.177400 -29.711300
H -19.136200 -10.249100 -31.446300
H -18.989100 -9.886800 -32.896500
N -18.737900 -10.378200 -32.227000
C -17.438700 -10.723800 -32.191000
N -16.939700 -11.152200 -31.028100
N -16.754500 -10.624300 -33.341700
C -15.662700 -11.579700 -31.083000
H -15.646300 -12.128400 -29.251900
C -15.463000 -10.999300 -33.263100
H -15.142700 -10.603800 -35.098500
N -15.141300 -12.075900 -29.972700
N -14.870200 -11.520000 -32.178400
N -14.724200 -10.833300 -34.361000
H -14.312800 -12.400000 -29.990300
H -13.960200 -11.101900 -34.354400
