18
Fragment
H -13.228100 -13.224600 -24.346900
H -13.145100 -12.773900 -22.088400
C -12.893000 -12.407700 -24.055600
C -12.845900 -12.134700 -22.694400
H -12.484500 -11.690600 -25.878200
C -12.456600 -11.497700 -24.968400
C -12.367100 -10.941600 -22.233400
H -12.336800 -10.766900 -21.320300
C -11.965200 -10.270200 -24.518400
C -11.925200 -9.990500 -23.146900
N -11.515500 -9.319700 -25.425200
O -11.508500 -9.602100 -26.698300
N -11.401600 -8.772400 -22.706200
O -11.298100 -8.544600 -21.445300
C -11.058200 -8.158200 -24.964500
C -10.992400 -7.893100 -23.620000
H -10.776400 -7.510400 -25.569400
H -10.652100 -7.075600 -23.338600
13
Fragment
O -9.894600 -13.317300 -27.099800
H -9.857800 -12.176600 -29.236600
C -9.506500 -12.200500 -27.333500
N -9.506400 -11.669600 -28.596600
H -9.097100 -11.671100 -25.520300
H -9.044900 -8.724400 -27.894900
C -9.033800 -10.441900 -28.959600
N -9.024700 -11.382700 -26.328000
O -8.991300 -10.117100 -30.123800
C -8.630900 -10.088000 -26.468000
C -8.542900 -9.553500 -27.859100
O -8.329600 -9.419900 -25.492900
H -7.614900 -9.336100 -28.040300
31
Fragment
H -13.228100 -13.224600 -24.346900
H -13.145100 -12.773900 -22.088400
C -12.893000 -12.407700 -24.055600
C -12.845900 -12.134700 -22.694400
H -12.484500 -11.690600 -25.878200
C -12.456600 -11.497700 -24.968400
C -12.367100 -10.941600 -22.233400
H -12.336800 -10.766900 -21.320300
C -11.965200 -10.270200 -24.518400
C -11.925200 -9.990500 -23.146900
N -11.515500 -9.319700 -25.425200
O -11.508500 -9.602100 -26.698300
N -11.401600 -8.772400 -22.706200
O -11.298100 -8.544600 -21.445300
C -11.058200 -8.158200 -24.964500
C -10.992400 -7.893100 -23.620000
H -10.776400 -7.510400 -25.569400
H -10.652100 -7.075600 -23.338600
O -9.894600 -13.317300 -27.099800
H -9.857800 -12.176600 -29.236600
C -9.506500 -12.200500 -27.333500
N -9.506400 -11.669600 -28.596600
H -9.097100 -11.671100 -25.520300
H -9.044900 -8.724400 -27.894900
C -9.033800 -10.441900 -28.959600
N -9.024700 -11.382700 -26.328000
O -8.991300 -10.117100 -30.123800
C -8.630900 -10.088000 -26.468000
C -8.542900 -9.553500 -27.859100
O -8.329600 -9.419900 -25.492900
H -7.614900 -9.336100 -28.040300
