18
Fragment
H -13.228100 -13.224600 -24.346900
H -13.145100 -12.773900 -22.088400
C -12.893000 -12.407700 -24.055600
C -12.845900 -12.134700 -22.694400
H -12.484500 -11.690600 -25.878200
C -12.456600 -11.497700 -24.968400
C -12.367100 -10.941600 -22.233400
H -12.336800 -10.766900 -21.320300
C -11.965200 -10.270200 -24.518400
C -11.925200 -9.990500 -23.146900
N -11.515500 -9.319700 -25.425200
O -11.508500 -9.602100 -26.698300
N -11.401600 -8.772400 -22.706200
O -11.298100 -8.544600 -21.445300
C -11.058200 -8.158200 -24.964500
C -10.992400 -7.893100 -23.620000
H -10.776400 -7.510400 -25.569400
H -10.652100 -7.075600 -23.338600
18
Fragment
H -13.228100 -6.002400 -24.346900
H -13.145100 -5.551700 -22.088400
C -12.893000 -5.185500 -24.055600
C -12.845900 -4.912500 -22.694400
H -12.484500 -4.468400 -25.878200
C -12.456600 -4.275500 -24.968400
C -12.367100 -3.719400 -22.233400
H -12.336800 -3.544700 -21.320300
C -11.965200 -3.048000 -24.518400
C -11.925200 -2.768300 -23.146900
N -11.515500 -2.097500 -25.425200
O -11.508500 -2.379900 -26.698300
N -11.401600 -1.550200 -22.706200
O -11.298100 -1.322400 -21.445300
C -11.058200 -0.936000 -24.964500
C -10.992400 -0.670900 -23.620000
H -10.776400 -0.288200 -25.569400
H -10.652100 0.146600 -23.338600
36
Fragment
H -13.228100 -13.224600 -24.346900
H -13.145100 -12.773900 -22.088400
C -12.893000 -12.407700 -24.055600
C -12.845900 -12.134700 -22.694400
H -12.484500 -11.690600 -25.878200
C -12.456600 -11.497700 -24.968400
C -12.367100 -10.941600 -22.233400
H -12.336800 -10.766900 -21.320300
C -11.965200 -10.270200 -24.518400
C -11.925200 -9.990500 -23.146900
N -11.515500 -9.319700 -25.425200
O -11.508500 -9.602100 -26.698300
N -11.401600 -8.772400 -22.706200
O -11.298100 -8.544600 -21.445300
C -11.058200 -8.158200 -24.964500
C -10.992400 -7.893100 -23.620000
H -10.776400 -7.510400 -25.569400
H -10.652100 -7.075600 -23.338600
H -13.228100 -6.002400 -24.346900
H -13.145100 -5.551700 -22.088400
C -12.893000 -5.185500 -24.055600
C -12.845900 -4.912500 -22.694400
H -12.484500 -4.468400 -25.878200
C -12.456600 -4.275500 -24.968400
C -12.367100 -3.719400 -22.233400
H -12.336800 -3.544700 -21.320300
C -11.965200 -3.048000 -24.518400
C -11.925200 -2.768300 -23.146900
N -11.515500 -2.097500 -25.425200
O -11.508500 -2.379900 -26.698300
N -11.401600 -1.550200 -22.706200
O -11.298100 -1.322400 -21.445300
C -11.058200 -0.936000 -24.964500
C -10.992400 -0.670900 -23.620000
H -10.776400 -0.288200 -25.569400
H -10.652100 0.146600 -23.338600
