18
Fragment
H -13.228100 -13.224600 -24.346900
H -13.145100 -12.773900 -22.088400
C -12.893000 -12.407700 -24.055600
C -12.845900 -12.134700 -22.694400
H -12.484500 -11.690600 -25.878200
C -12.456600 -11.497700 -24.968400
C -12.367100 -10.941600 -22.233400
H -12.336800 -10.766900 -21.320300
C -11.965200 -10.270200 -24.518400
C -11.925200 -9.990500 -23.146900
N -11.515500 -9.319700 -25.425200
O -11.508500 -9.602100 -26.698300
N -11.401600 -8.772400 -22.706200
O -11.298100 -8.544600 -21.445300
C -11.058200 -8.158200 -24.964500
C -10.992400 -7.893100 -23.620000
H -10.776400 -7.510400 -25.569400
H -10.652100 -7.075600 -23.338600
13
Fragment
H -9.996700 -12.330500 -20.986900
O -9.282000 -12.246700 -23.534400
C -9.068700 -12.113100 -21.168200
C -8.980700 -11.578600 -22.559200
O -8.620200 -11.549500 -18.903400
N -8.586900 -10.283900 -22.699300
C -8.577700 -11.224700 -20.067700
H -8.566700 -12.942200 -21.132400
H -8.514400 -9.995500 -23.506900
N -8.105200 -9.997000 -20.430600
C -8.105000 -9.466100 -21.693700
H -7.753800 -9.490000 -19.790700
O -7.717000 -8.349300 -21.927400
31
Fragment
H -13.228100 -13.224600 -24.346900
H -13.145100 -12.773900 -22.088400
C -12.893000 -12.407700 -24.055600
C -12.845900 -12.134700 -22.694400
H -12.484500 -11.690600 -25.878200
C -12.456600 -11.497700 -24.968400
C -12.367100 -10.941600 -22.233400
H -12.336800 -10.766900 -21.320300
C -11.965200 -10.270200 -24.518400
C -11.925200 -9.990500 -23.146900
N -11.515500 -9.319700 -25.425200
O -11.508500 -9.602100 -26.698300
N -11.401600 -8.772400 -22.706200
O -11.298100 -8.544600 -21.445300
C -11.058200 -8.158200 -24.964500
C -10.992400 -7.893100 -23.620000
H -10.776400 -7.510400 -25.569400
H -10.652100 -7.075600 -23.338600
H -9.996700 -12.330500 -20.986900
O -9.282000 -12.246700 -23.534400
C -9.068700 -12.113100 -21.168200
C -8.980700 -11.578600 -22.559200
O -8.620200 -11.549500 -18.903400
N -8.586900 -10.283900 -22.699300
C -8.577700 -11.224700 -20.067700
H -8.566700 -12.942200 -21.132400
H -8.514400 -9.995500 -23.506900
N -8.105200 -9.997000 -20.430600
C -8.105000 -9.466100 -21.693700
H -7.753800 -9.490000 -19.790700
O -7.717000 -8.349300 -21.927400
