18
Fragment
H -13.228100 -13.224600 -24.346900
H -13.145100 -12.773900 -22.088400
C -12.893000 -12.407700 -24.055600
C -12.845900 -12.134700 -22.694400
H -12.484500 -11.690600 -25.878200
C -12.456600 -11.497700 -24.968400
C -12.367100 -10.941600 -22.233400
H -12.336800 -10.766900 -21.320300
C -11.965200 -10.270200 -24.518400
C -11.925200 -9.990500 -23.146900
N -11.515500 -9.319700 -25.425200
O -11.508500 -9.602100 -26.698300
N -11.401600 -8.772400 -22.706200
O -11.298100 -8.544600 -21.445300
C -11.058200 -8.158200 -24.964500
C -10.992400 -7.893100 -23.620000
H -10.776400 -7.510400 -25.569400
H -10.652100 -7.075600 -23.338600
13
Fragment
H -14.662800 -5.725000 -29.158200
O -13.948100 -5.808800 -31.705600
C -13.734800 -5.942400 -29.339400
C -13.646800 -6.476900 -30.730500
O -13.286300 -6.506000 -27.074700
N -13.253000 -7.771600 -30.870500
C -13.243800 -6.830800 -28.238900
H -13.232800 -5.113300 -29.303600
H -13.180500 -8.060000 -31.678200
N -12.771300 -8.058500 -28.601900
C -12.771100 -8.589400 -29.865000
H -12.419900 -8.565500 -27.961900
O -12.383000 -9.706200 -30.098700
31
Fragment
H -13.228100 -13.224600 -24.346900
H -13.145100 -12.773900 -22.088400
C -12.893000 -12.407700 -24.055600
C -12.845900 -12.134700 -22.694400
H -12.484500 -11.690600 -25.878200
C -12.456600 -11.497700 -24.968400
C -12.367100 -10.941600 -22.233400
H -12.336800 -10.766900 -21.320300
C -11.965200 -10.270200 -24.518400
C -11.925200 -9.990500 -23.146900
N -11.515500 -9.319700 -25.425200
O -11.508500 -9.602100 -26.698300
N -11.401600 -8.772400 -22.706200
O -11.298100 -8.544600 -21.445300
C -11.058200 -8.158200 -24.964500
C -10.992400 -7.893100 -23.620000
H -10.776400 -7.510400 -25.569400
H -10.652100 -7.075600 -23.338600
H -14.662800 -5.725000 -29.158200
O -13.948100 -5.808800 -31.705600
C -13.734800 -5.942400 -29.339400
C -13.646800 -6.476900 -30.730500
O -13.286300 -6.506000 -27.074700
N -13.253000 -7.771600 -30.870500
C -13.243800 -6.830800 -28.238900
H -13.232800 -5.113300 -29.303600
H -13.180500 -8.060000 -31.678200
N -12.771300 -8.058500 -28.601900
C -12.771100 -8.589400 -29.865000
H -12.419900 -8.565500 -27.961900
O -12.383000 -9.706200 -30.098700
