18
Fragment
H -13.228100 -13.224600 -24.346900
H -13.145100 -12.773900 -22.088400
C -12.893000 -12.407700 -24.055600
C -12.845900 -12.134700 -22.694400
H -12.484500 -11.690600 -25.878200
C -12.456600 -11.497700 -24.968400
C -12.367100 -10.941600 -22.233400
H -12.336800 -10.766900 -21.320300
C -11.965200 -10.270200 -24.518400
C -11.925200 -9.990500 -23.146900
N -11.515500 -9.319700 -25.425200
O -11.508500 -9.602100 -26.698300
N -11.401600 -8.772400 -22.706200
O -11.298100 -8.544600 -21.445300
C -11.058200 -8.158200 -24.964500
C -10.992400 -7.893100 -23.620000
H -10.776400 -7.510400 -25.569400
H -10.652100 -7.075600 -23.338600
18
Fragment
H -17.344400 -14.591000 -25.688700
H -17.220200 -14.156200 -23.457900
C -17.004200 -13.773500 -25.407200
C -16.938400 -13.508400 -24.062700
O -16.698500 -13.122000 -27.581900
N -16.594900 -12.894200 -26.321100
O -16.488100 -12.064500 -22.329000
N -16.481100 -12.346900 -23.602100
C -16.071400 -11.676100 -25.880400
C -16.031400 -11.396400 -24.508900
H -15.659800 -10.899700 -27.706900
C -15.629500 -10.725000 -26.793900
C -15.540000 -10.168900 -24.058800
H -15.512100 -9.976000 -23.149000
C -15.150700 -9.531900 -26.332900
C -15.103500 -9.258900 -24.971700
H -14.851500 -8.892700 -26.938900
H -14.768500 -8.442000 -24.680300
36
Fragment
H -13.228100 -13.224600 -24.346900
H -13.145100 -12.773900 -22.088400
C -12.893000 -12.407700 -24.055600
C -12.845900 -12.134700 -22.694400
H -12.484500 -11.690600 -25.878200
C -12.456600 -11.497700 -24.968400
C -12.367100 -10.941600 -22.233400
H -12.336800 -10.766900 -21.320300
C -11.965200 -10.270200 -24.518400
C -11.925200 -9.990500 -23.146900
N -11.515500 -9.319700 -25.425200
O -11.508500 -9.602100 -26.698300
N -11.401600 -8.772400 -22.706200
O -11.298100 -8.544600 -21.445300
C -11.058200 -8.158200 -24.964500
C -10.992400 -7.893100 -23.620000
H -10.776400 -7.510400 -25.569400
H -10.652100 -7.075600 -23.338600
H -17.344400 -14.591000 -25.688700
H -17.220200 -14.156200 -23.457900
C -17.004200 -13.773500 -25.407200
C -16.938400 -13.508400 -24.062700
O -16.698500 -13.122000 -27.581900
N -16.594900 -12.894200 -26.321100
O -16.488100 -12.064500 -22.329000
N -16.481100 -12.346900 -23.602100
C -16.071400 -11.676100 -25.880400
C -16.031400 -11.396400 -24.508900
H -15.659800 -10.899700 -27.706900
C -15.629500 -10.725000 -26.793900
C -15.540000 -10.168900 -24.058800
H -15.512100 -9.976000 -23.149000
C -15.150700 -9.531900 -26.332900
C -15.103500 -9.258900 -24.971700
H -14.851500 -8.892700 -26.938900
H -14.768500 -8.442000 -24.680300
