12
Fragment
H -3.638400 -9.616600 -34.490600
H -3.065100 -7.768400 -33.280300
C -2.932500 -9.663200 -33.887600
C -2.589900 -8.560000 -33.165000
O -2.583600 -11.895900 -34.413600
N -2.255300 -10.829100 -33.736300
N -1.560900 -8.604900 -32.278600
O -1.232700 -7.538100 -31.601300
C -1.226400 -10.874000 -32.849900
C -0.883800 -9.770800 -32.127300
H -0.751200 -11.665600 -32.734600
H -0.177900 -9.817400 -31.524300
13
Fragment
O -8.262000 -12.752100 -38.021500
H -7.429600 -14.192700 -36.063900
C -7.219300 -12.679400 -37.390000
H -6.744100 -10.896000 -37.943200
C -6.689900 -13.807900 -36.560200
N -6.466600 -11.549000 -37.434000
H -6.354600 -14.493200 -37.159800
C -5.601000 -13.463900 -35.585800
C -5.361600 -11.269800 -36.649900
O -5.232900 -14.229300 -34.715700
N -5.003000 -12.242800 -35.748400
O -4.770400 -10.216300 -36.739300
H -4.277500 -12.068500 -35.307000
25
Fragment
H -3.638400 -9.616600 -34.490600
H -3.065100 -7.768400 -33.280300
C -2.932500 -9.663200 -33.887600
C -2.589900 -8.560000 -33.165000
O -2.583600 -11.895900 -34.413600
N -2.255300 -10.829100 -33.736300
N -1.560900 -8.604900 -32.278600
O -1.232700 -7.538100 -31.601300
C -1.226400 -10.874000 -32.849900
C -0.883800 -9.770800 -32.127300
H -0.751200 -11.665600 -32.734600
H -0.177900 -9.817400 -31.524300
O -8.262000 -12.752100 -38.021500
H -7.429600 -14.192700 -36.063900
C -7.219300 -12.679400 -37.390000
H -6.744100 -10.896000 -37.943200
C -6.689900 -13.807900 -36.560200
N -6.466600 -11.549000 -37.434000
H -6.354600 -14.493200 -37.159800
C -5.601000 -13.463900 -35.585800
C -5.361600 -11.269800 -36.649900
O -5.232900 -14.229300 -34.715700
N -5.003000 -12.242800 -35.748400
O -4.770400 -10.216300 -36.739300
H -4.277500 -12.068500 -35.307000
