12
Fragment
H -3.638400 -9.616600 -34.490600
H -3.065100 -7.768400 -33.280300
C -2.932500 -9.663200 -33.887600
C -2.589900 -8.560000 -33.165000
O -2.583600 -11.895900 -34.413600
N -2.255300 -10.829100 -33.736300
N -1.560900 -8.604900 -32.278600
O -1.232700 -7.538100 -31.601300
C -1.226400 -10.874000 -32.849900
C -0.883800 -9.770800 -32.127300
H -0.751200 -11.665600 -32.734600
H -0.177900 -9.817400 -31.524300
12
Fragment
H 1.619600 -9.616600 -34.490600
H 2.192900 -7.768400 -33.280300
C 2.325500 -9.663200 -33.887600
C 2.668100 -8.560000 -33.165000
O 2.674400 -11.895900 -34.413600
N 3.002700 -10.829100 -33.736300
N 3.697100 -8.604900 -32.278600
O 4.025300 -7.538100 -31.601300
C 4.031600 -10.874000 -32.849900
C 4.374200 -9.770800 -32.127300
H 4.506800 -11.665600 -32.734600
H 5.080100 -9.817400 -31.524300
24
Fragment
H -3.638400 -9.616600 -34.490600
H -3.065100 -7.768400 -33.280300
C -2.932500 -9.663200 -33.887600
C -2.589900 -8.560000 -33.165000
O -2.583600 -11.895900 -34.413600
N -2.255300 -10.829100 -33.736300
N -1.560900 -8.604900 -32.278600
O -1.232700 -7.538100 -31.601300
C -1.226400 -10.874000 -32.849900
C -0.883800 -9.770800 -32.127300
H -0.751200 -11.665600 -32.734600
H -0.177900 -9.817400 -31.524300
H 1.619600 -9.616600 -34.490600
H 2.192900 -7.768400 -33.280300
C 2.325500 -9.663200 -33.887600
C 2.668100 -8.560000 -33.165000
O 2.674400 -11.895900 -34.413600
N 3.002700 -10.829100 -33.736300
N 3.697100 -8.604900 -32.278600
O 4.025300 -7.538100 -31.601300
C 4.031600 -10.874000 -32.849900
C 4.374200 -9.770800 -32.127300
H 4.506800 -11.665600 -32.734600
H 5.080100 -9.817400 -31.524300
