18
Fragment
H -13.228100 -13.224600 -24.346900
H -13.145100 -12.773900 -22.088400
C -12.893000 -12.407700 -24.055600
C -12.845900 -12.134700 -22.694400
H -12.484500 -11.690600 -25.878200
C -12.456600 -11.497700 -24.968400
C -12.367100 -10.941600 -22.233400
H -12.336800 -10.766900 -21.320300
C -11.965200 -10.270200 -24.518400
C -11.925200 -9.990500 -23.146900
N -11.515500 -9.319700 -25.425200
O -11.508500 -9.602100 -26.698300
N -11.401600 -8.772400 -22.706200
O -11.298100 -8.544600 -21.445300
C -11.058200 -8.158200 -24.964500
C -10.992400 -7.893100 -23.620000
H -10.776400 -7.510400 -25.569400
H -10.652100 -7.075600 -23.338600
18
Fragment
H -12.678400 -3.464500 -17.517400
H -12.554100 -3.899300 -15.286700
C -12.338100 -4.282000 -17.236000
C -12.272300 -4.547100 -15.891500
O -12.032400 -4.933500 -19.410700
N -11.928800 -5.161300 -18.149900
O -11.822000 -5.991000 -14.157800
N -11.815000 -5.708600 -15.430800
C -11.405300 -6.379400 -17.709100
C -11.365300 -6.659100 -16.337700
H -10.993700 -7.155800 -19.535700
C -10.963400 -7.330500 -18.622700
C -10.873900 -7.886600 -15.887600
H -10.846000 -8.079500 -14.977800
C -10.484600 -8.523600 -18.161700
C -10.437500 -8.796600 -16.800500
H -10.185400 -9.162800 -18.767600
H -10.102400 -9.613500 -16.509100
36
Fragment
H -13.228100 -13.224600 -24.346900
H -13.145100 -12.773900 -22.088400
C -12.893000 -12.407700 -24.055600
C -12.845900 -12.134700 -22.694400
H -12.484500 -11.690600 -25.878200
C -12.456600 -11.497700 -24.968400
C -12.367100 -10.941600 -22.233400
H -12.336800 -10.766900 -21.320300
C -11.965200 -10.270200 -24.518400
C -11.925200 -9.990500 -23.146900
N -11.515500 -9.319700 -25.425200
O -11.508500 -9.602100 -26.698300
N -11.401600 -8.772400 -22.706200
O -11.298100 -8.544600 -21.445300
C -11.058200 -8.158200 -24.964500
C -10.992400 -7.893100 -23.620000
H -10.776400 -7.510400 -25.569400
H -10.652100 -7.075600 -23.338600
H -12.678400 -3.464500 -17.517400
H -12.554100 -3.899300 -15.286700
C -12.338100 -4.282000 -17.236000
C -12.272300 -4.547100 -15.891500
O -12.032400 -4.933500 -19.410700
N -11.928800 -5.161300 -18.149900
O -11.822000 -5.991000 -14.157800
N -11.815000 -5.708600 -15.430800
C -11.405300 -6.379400 -17.709100
C -11.365300 -6.659100 -16.337700
H -10.993700 -7.155800 -19.535700
C -10.963400 -7.330500 -18.622700
C -10.873900 -7.886600 -15.887600
H -10.846000 -8.079500 -14.977800
C -10.484600 -8.523600 -18.161700
C -10.437500 -8.796600 -16.800500
H -10.185400 -9.162800 -18.767600
H -10.102400 -9.613500 -16.509100
