18
Fragment
H -13.228100 -13.224600 -24.346900
H -13.145100 -12.773900 -22.088400
C -12.893000 -12.407700 -24.055600
C -12.845900 -12.134700 -22.694400
H -12.484500 -11.690600 -25.878200
C -12.456600 -11.497700 -24.968400
C -12.367100 -10.941600 -22.233400
H -12.336800 -10.766900 -21.320300
C -11.965200 -10.270200 -24.518400
C -11.925200 -9.990500 -23.146900
N -11.515500 -9.319700 -25.425200
O -11.508500 -9.602100 -26.698300
N -11.401600 -8.772400 -22.706200
O -11.298100 -8.544600 -21.445300
C -11.058200 -8.158200 -24.964500
C -10.992400 -7.893100 -23.620000
H -10.776400 -7.510400 -25.569400
H -10.652100 -7.075600 -23.338600
18
Fragment
H -12.678400 -10.686700 -17.517400
H -12.554100 -11.121500 -15.286700
C -12.338100 -11.504200 -17.236000
C -12.272300 -11.769300 -15.891500
O -12.032400 -12.155700 -19.410700
N -11.928800 -12.383500 -18.149900
O -11.822000 -13.213200 -14.157800
N -11.815000 -12.930800 -15.430800
C -11.405300 -13.601600 -17.709100
C -11.365300 -13.881300 -16.337700
H -10.993700 -14.378000 -19.535700
C -10.963400 -14.552700 -18.622700
C -10.873900 -15.108800 -15.887600
H -10.846000 -15.301700 -14.977800
C -10.484600 -15.745800 -18.161700
C -10.437500 -16.018800 -16.800500
H -10.185400 -16.385000 -18.767600
H -10.102400 -16.835700 -16.509100
36
Fragment
H -13.228100 -13.224600 -24.346900
H -13.145100 -12.773900 -22.088400
C -12.893000 -12.407700 -24.055600
C -12.845900 -12.134700 -22.694400
H -12.484500 -11.690600 -25.878200
C -12.456600 -11.497700 -24.968400
C -12.367100 -10.941600 -22.233400
H -12.336800 -10.766900 -21.320300
C -11.965200 -10.270200 -24.518400
C -11.925200 -9.990500 -23.146900
N -11.515500 -9.319700 -25.425200
O -11.508500 -9.602100 -26.698300
N -11.401600 -8.772400 -22.706200
O -11.298100 -8.544600 -21.445300
C -11.058200 -8.158200 -24.964500
C -10.992400 -7.893100 -23.620000
H -10.776400 -7.510400 -25.569400
H -10.652100 -7.075600 -23.338600
H -12.678400 -10.686700 -17.517400
H -12.554100 -11.121500 -15.286700
C -12.338100 -11.504200 -17.236000
C -12.272300 -11.769300 -15.891500
O -12.032400 -12.155700 -19.410700
N -11.928800 -12.383500 -18.149900
O -11.822000 -13.213200 -14.157800
N -11.815000 -12.930800 -15.430800
C -11.405300 -13.601600 -17.709100
C -11.365300 -13.881300 -16.337700
H -10.993700 -14.378000 -19.535700
C -10.963400 -14.552700 -18.622700
C -10.873900 -15.108800 -15.887600
H -10.846000 -15.301700 -14.977800
C -10.484600 -15.745800 -18.161700
C -10.437500 -16.018800 -16.800500
H -10.185400 -16.385000 -18.767600
H -10.102400 -16.835700 -16.509100
