12
Fragment
H -3.638400 -9.616600 -34.490600
H -3.065100 -7.768400 -33.280300
C -2.932500 -9.663200 -33.887600
C -2.589900 -8.560000 -33.165000
O -2.583600 -11.895900 -34.413600
N -2.255300 -10.829100 -33.736300
N -1.560900 -8.604900 -32.278600
O -1.232700 -7.538100 -31.601300
C -1.226400 -10.874000 -32.849900
C -0.883800 -9.770800 -32.127300
H -0.751200 -11.665600 -32.734600
H -0.177900 -9.817400 -31.524300
13
Fragment
H 0.461200 -7.365500 -30.707900
O 0.954200 -9.217700 -29.275600
N 1.186700 -7.191200 -30.266500
O 1.416600 -5.204700 -31.299200
C 1.545300 -8.164200 -29.365000
C 1.784700 -5.970100 -30.429100
H 2.538300 -4.940800 -28.855100
N 2.650300 -7.885000 -28.580900
C 2.873600 -5.626100 -29.454700
H 2.927800 -8.538000 -28.071700
C 3.403000 -6.754600 -28.624900
H 3.613300 -5.241300 -29.951000
O 4.445700 -6.681900 -27.993400
25
Fragment
H -3.638400 -9.616600 -34.490600
H -3.065100 -7.768400 -33.280300
C -2.932500 -9.663200 -33.887600
C -2.589900 -8.560000 -33.165000
O -2.583600 -11.895900 -34.413600
N -2.255300 -10.829100 -33.736300
N -1.560900 -8.604900 -32.278600
O -1.232700 -7.538100 -31.601300
C -1.226400 -10.874000 -32.849900
C -0.883800 -9.770800 -32.127300
H -0.751200 -11.665600 -32.734600
H -0.177900 -9.817400 -31.524300
H 0.461200 -7.365500 -30.707900
O 0.954200 -9.217700 -29.275600
N 1.186700 -7.191200 -30.266500
O 1.416600 -5.204700 -31.299200
C 1.545300 -8.164200 -29.365000
C 1.784700 -5.970100 -30.429100
H 2.538300 -4.940800 -28.855100
N 2.650300 -7.885000 -28.580900
C 2.873600 -5.626100 -29.454700
H 2.927800 -8.538000 -28.071700
C 3.403000 -6.754600 -28.624900
H 3.613300 -5.241300 -29.951000
O 4.445700 -6.681900 -27.993400
