33
Fragment
H -21.485300 -11.642500 -21.177700
O -20.999500 -11.365800 -18.792100
N -20.630400 -11.864200 -20.991100
H -20.232000 -12.220900 -22.883700
C -20.226600 -11.749300 -19.671700
C -19.817000 -12.262200 -22.017400
C -18.840900 -12.094900 -19.521100
N -18.578900 -12.607100 -21.924100
C -18.088900 -12.491500 -20.634000
H -18.033700 -11.869700 -17.565900
C -17.951300 -12.077700 -18.466900
N -16.812400 -12.729700 -20.315400
N -16.760600 -12.449500 -18.962700
H -16.243600 -13.728700 -16.766300
H -16.177500 -12.083200 -16.313100
O -15.851300 -10.066600 -17.896400
H -15.782600 -9.997000 -17.006200
C -15.733500 -12.799200 -16.780900
C -15.453600 -12.424000 -18.245600
H -15.385800 -10.554700 -20.364700
H -14.980500 -14.300100 -18.792100
C -14.878500 -10.980900 -18.376200
H -14.816500 -12.868100 -16.313100
C -14.616600 -10.592600 -19.821000
C -14.535500 -13.460900 -18.857400
H -14.336400 -13.308700 -19.778300
H -14.306900 -9.694100 -19.871600
H -13.893100 -11.222500 -20.311400
H -13.741300 -10.967800 -16.566300
H -13.725600 -13.432600 -18.378900
C -13.583900 -10.816300 -17.561900
H -13.279900 -9.859300 -17.685900
H -12.898500 -11.436000 -17.939100
33
Fragment
H -21.690100 -12.455000 -14.513900
O -21.204300 -12.731700 -12.128200
N -20.835200 -12.233300 -14.327300
H -20.436800 -11.876600 -16.219800
C -20.431400 -12.348200 -13.007800
C -20.021700 -11.835300 -15.353500
C -19.045700 -12.002600 -12.857200
N -18.783700 -11.490400 -15.260200
C -18.293600 -11.606000 -13.970100
H -18.238500 -12.227800 -10.902100
C -18.156100 -12.019800 -11.803000
N -17.017200 -11.367800 -13.651600
N -16.965300 -11.648000 -12.298800
H -16.448400 -10.368800 -10.102400
H -16.382300 -12.014300 -9.649300
O -16.056100 -14.030900 -11.232600
H -15.987400 -14.100500 -10.342300
C -15.938200 -11.298300 -10.117100
C -15.658400 -11.673500 -11.581800
H -15.590600 -13.542800 -13.700900
H -15.185300 -9.797400 -12.128200
C -15.083300 -13.116600 -11.712400
H -15.021300 -11.229400 -9.649300
C -14.821400 -13.504900 -13.157100
C -14.740300 -10.636600 -12.193500
H -14.541200 -10.788800 -13.114500
H -14.511600 -14.403400 -13.207800
H -14.097800 -12.874900 -13.647600
H -13.946000 -13.129700 -9.902500
H -13.930400 -10.664900 -11.715100
C -13.788700 -13.281200 -10.898100
H -13.484700 -14.238200 -11.022000
H -13.103300 -12.661500 -11.275200
66
Fragment
H -21.485300 -11.642500 -21.177700
O -20.999500 -11.365800 -18.792100
N -20.630400 -11.864200 -20.991100
H -20.232000 -12.220900 -22.883700
C -20.226600 -11.749300 -19.671700
C -19.817000 -12.262200 -22.017400
C -18.840900 -12.094900 -19.521100
N -18.578900 -12.607100 -21.924100
C -18.088900 -12.491500 -20.634000
H -18.033700 -11.869700 -17.565900
C -17.951300 -12.077700 -18.466900
N -16.812400 -12.729700 -20.315400
N -16.760600 -12.449500 -18.962700
H -16.243600 -13.728700 -16.766300
H -16.177500 -12.083200 -16.313100
O -15.851300 -10.066600 -17.896400
H -15.782600 -9.997000 -17.006200
C -15.733500 -12.799200 -16.780900
C -15.453600 -12.424000 -18.245600
H -15.385800 -10.554700 -20.364700
H -14.980500 -14.300100 -18.792100
C -14.878500 -10.980900 -18.376200
H -14.816500 -12.868100 -16.313100
C -14.616600 -10.592600 -19.821000
C -14.535500 -13.460900 -18.857400
H -14.336400 -13.308700 -19.778300
H -14.306900 -9.694100 -19.871600
H -13.893100 -11.222500 -20.311400
H -13.741300 -10.967800 -16.566300
H -13.725600 -13.432600 -18.378900
C -13.583900 -10.816300 -17.561900
H -13.279900 -9.859300 -17.685900
H -12.898500 -11.436000 -17.939100
H -21.690100 -12.455000 -14.513900
O -21.204300 -12.731700 -12.128200
N -20.835200 -12.233300 -14.327300
H -20.436800 -11.876600 -16.219800
C -20.431400 -12.348200 -13.007800
C -20.021700 -11.835300 -15.353500
C -19.045700 -12.002600 -12.857200
N -18.783700 -11.490400 -15.260200
C -18.293600 -11.606000 -13.970100
H -18.238500 -12.227800 -10.902100
C -18.156100 -12.019800 -11.803000
N -17.017200 -11.367800 -13.651600
N -16.965300 -11.648000 -12.298800
H -16.448400 -10.368800 -10.102400
H -16.382300 -12.014300 -9.649300
O -16.056100 -14.030900 -11.232600
H -15.987400 -14.100500 -10.342300
C -15.938200 -11.298300 -10.117100
C -15.658400 -11.673500 -11.581800
H -15.590600 -13.542800 -13.700900
H -15.185300 -9.797400 -12.128200
C -15.083300 -13.116600 -11.712400
H -15.021300 -11.229400 -9.649300
C -14.821400 -13.504900 -13.157100
C -14.740300 -10.636600 -12.193500
H -14.541200 -10.788800 -13.114500
H -14.511600 -14.403400 -13.207800
H -14.097800 -12.874900 -13.647600
H -13.946000 -13.129700 -9.902500
H -13.930400 -10.664900 -11.715100
C -13.788700 -13.281200 -10.898100
H -13.484700 -14.238200 -11.022000
H -13.103300 -12.661500 -11.275200
