33
Fragment
H -21.485300 -11.642500 -21.177700
O -20.999500 -11.365800 -18.792100
N -20.630400 -11.864200 -20.991100
H -20.232000 -12.220900 -22.883700
C -20.226600 -11.749300 -19.671700
C -19.817000 -12.262200 -22.017400
C -18.840900 -12.094900 -19.521100
N -18.578900 -12.607100 -21.924100
C -18.088900 -12.491500 -20.634000
H -18.033700 -11.869700 -17.565900
C -17.951300 -12.077700 -18.466900
N -16.812400 -12.729700 -20.315400
N -16.760600 -12.449500 -18.962700
H -16.243600 -13.728700 -16.766300
H -16.177500 -12.083200 -16.313100
O -15.851300 -10.066600 -17.896400
H -15.782600 -9.997000 -17.006200
C -15.733500 -12.799200 -16.780900
C -15.453600 -12.424000 -18.245600
H -15.385800 -10.554700 -20.364700
H -14.980500 -14.300100 -18.792100
C -14.878500 -10.980900 -18.376200
H -14.816500 -12.868100 -16.313100
C -14.616600 -10.592600 -19.821000
C -14.535500 -13.460900 -18.857400
H -14.336400 -13.308700 -19.778300
H -14.306900 -9.694100 -19.871600
H -13.893100 -11.222500 -20.311400
H -13.741300 -10.967800 -16.566300
H -13.725600 -13.432600 -18.378900
C -13.583900 -10.816300 -17.561900
H -13.279900 -9.859300 -17.685900
H -12.898500 -11.436000 -17.939100
33
Fragment
H -21.485300 -4.757500 -21.177700
O -20.999500 -4.480800 -18.792100
N -20.630400 -4.979200 -20.991100
H -20.232000 -5.335900 -22.883700
C -20.226600 -4.864300 -19.671700
C -19.817000 -5.377200 -22.017400
C -18.840900 -5.209900 -19.521100
N -18.578900 -5.722100 -21.924100
C -18.088900 -5.606500 -20.634000
H -18.033700 -4.984700 -17.565900
C -17.951300 -5.192700 -18.466900
N -16.812400 -5.844700 -20.315400
N -16.760600 -5.564500 -18.962700
H -16.243600 -6.843700 -16.766300
H -16.177500 -5.198200 -16.313100
O -15.851300 -3.181600 -17.896400
H -15.782600 -3.112000 -17.006200
C -15.733500 -5.914200 -16.780900
C -15.453600 -5.539000 -18.245600
H -15.385800 -3.669700 -20.364700
H -14.980500 -7.415100 -18.792100
C -14.878500 -4.095900 -18.376200
H -14.816500 -5.983100 -16.313100
C -14.616600 -3.707600 -19.821000
C -14.535500 -6.575900 -18.857400
H -14.336400 -6.423700 -19.778300
H -14.306900 -2.809100 -19.871600
H -13.893100 -4.337500 -20.311400
H -13.741300 -4.082800 -16.566300
H -13.725600 -6.547600 -18.378900
C -13.583900 -3.931300 -17.561900
H -13.279900 -2.974300 -17.685900
H -12.898500 -4.551000 -17.939100
66
Fragment
H -21.485300 -11.642500 -21.177700
O -20.999500 -11.365800 -18.792100
N -20.630400 -11.864200 -20.991100
H -20.232000 -12.220900 -22.883700
C -20.226600 -11.749300 -19.671700
C -19.817000 -12.262200 -22.017400
C -18.840900 -12.094900 -19.521100
N -18.578900 -12.607100 -21.924100
C -18.088900 -12.491500 -20.634000
H -18.033700 -11.869700 -17.565900
C -17.951300 -12.077700 -18.466900
N -16.812400 -12.729700 -20.315400
N -16.760600 -12.449500 -18.962700
H -16.243600 -13.728700 -16.766300
H -16.177500 -12.083200 -16.313100
O -15.851300 -10.066600 -17.896400
H -15.782600 -9.997000 -17.006200
C -15.733500 -12.799200 -16.780900
C -15.453600 -12.424000 -18.245600
H -15.385800 -10.554700 -20.364700
H -14.980500 -14.300100 -18.792100
C -14.878500 -10.980900 -18.376200
H -14.816500 -12.868100 -16.313100
C -14.616600 -10.592600 -19.821000
C -14.535500 -13.460900 -18.857400
H -14.336400 -13.308700 -19.778300
H -14.306900 -9.694100 -19.871600
H -13.893100 -11.222500 -20.311400
H -13.741300 -10.967800 -16.566300
H -13.725600 -13.432600 -18.378900
C -13.583900 -10.816300 -17.561900
H -13.279900 -9.859300 -17.685900
H -12.898500 -11.436000 -17.939100
H -21.485300 -4.757500 -21.177700
O -20.999500 -4.480800 -18.792100
N -20.630400 -4.979200 -20.991100
H -20.232000 -5.335900 -22.883700
C -20.226600 -4.864300 -19.671700
C -19.817000 -5.377200 -22.017400
C -18.840900 -5.209900 -19.521100
N -18.578900 -5.722100 -21.924100
C -18.088900 -5.606500 -20.634000
H -18.033700 -4.984700 -17.565900
C -17.951300 -5.192700 -18.466900
N -16.812400 -5.844700 -20.315400
N -16.760600 -5.564500 -18.962700
H -16.243600 -6.843700 -16.766300
H -16.177500 -5.198200 -16.313100
O -15.851300 -3.181600 -17.896400
H -15.782600 -3.112000 -17.006200
C -15.733500 -5.914200 -16.780900
C -15.453600 -5.539000 -18.245600
H -15.385800 -3.669700 -20.364700
H -14.980500 -7.415100 -18.792100
C -14.878500 -4.095900 -18.376200
H -14.816500 -5.983100 -16.313100
C -14.616600 -3.707600 -19.821000
C -14.535500 -6.575900 -18.857400
H -14.336400 -6.423700 -19.778300
H -14.306900 -2.809100 -19.871600
H -13.893100 -4.337500 -20.311400
H -13.741300 -4.082800 -16.566300
H -13.725600 -6.547600 -18.378900
C -13.583900 -3.931300 -17.561900
H -13.279900 -2.974300 -17.685900
H -12.898500 -4.551000 -17.939100
