14
Fragment
O -6.075400 -21.721600 -14.530600
C -6.075400 -20.498000 -14.517800
H -6.075400 -20.309700 -12.595700
H -6.075400 -20.137600 -16.322400
N -6.075400 -19.801100 -13.329000
N -6.075400 -19.749000 -15.661400
C -6.075400 -18.422700 -13.189700
C -6.075400 -18.369100 -15.751000
O -6.075400 -17.938900 -12.081500
O -6.075400 -17.829400 -16.833600
C -6.075400 -17.652400 -14.450800
N -6.075400 -16.372000 -14.267800
O -6.075400 -15.616800 -15.385100
H -6.075400 -14.715900 -15.004900
14
Fragment
H -3.037700 -21.141600 -11.240500
O -3.037700 -20.240700 -11.620700
N -3.037700 -19.485500 -10.503400
C -3.037700 -18.205100 -10.686400
O -3.037700 -18.028100 -13.069200
O -3.037700 -17.918600 -8.317100
C -3.037700 -17.488400 -11.986600
C -3.037700 -17.434800 -9.425300
N -3.037700 -16.108500 -11.897000
N -3.037700 -16.056400 -9.564600
H -3.037700 -15.719900 -12.558000
H -3.037700 -15.547800 -8.831300
C -3.037700 -15.359500 -10.753400
O -3.037700 -14.135900 -10.766200
28
Fragment
O -6.075400 -21.721600 -14.530600
C -6.075400 -20.498000 -14.517800
H -6.075400 -20.309700 -12.595700
H -6.075400 -20.137600 -16.322400
N -6.075400 -19.801100 -13.329000
N -6.075400 -19.749000 -15.661400
C -6.075400 -18.422700 -13.189700
C -6.075400 -18.369100 -15.751000
O -6.075400 -17.938900 -12.081500
O -6.075400 -17.829400 -16.833600
C -6.075400 -17.652400 -14.450800
N -6.075400 -16.372000 -14.267800
O -6.075400 -15.616800 -15.385100
H -6.075400 -14.715900 -15.004900
H -3.037700 -21.141600 -11.240500
O -3.037700 -20.240700 -11.620700
N -3.037700 -19.485500 -10.503400
C -3.037700 -18.205100 -10.686400
O -3.037700 -18.028100 -13.069200
O -3.037700 -17.918600 -8.317100
C -3.037700 -17.488400 -11.986600
C -3.037700 -17.434800 -9.425300
N -3.037700 -16.108500 -11.897000
N -3.037700 -16.056400 -9.564600
H -3.037700 -15.719900 -12.558000
H -3.037700 -15.547800 -8.831300
C -3.037700 -15.359500 -10.753400
O -3.037700 -14.135900 -10.766200
