14
Fragment
O -6.075400 -21.721600 -14.530600
C -6.075400 -20.498000 -14.517800
H -6.075400 -20.309700 -12.595700
H -6.075400 -20.137600 -16.322400
N -6.075400 -19.801100 -13.329000
N -6.075400 -19.749000 -15.661400
C -6.075400 -18.422700 -13.189700
C -6.075400 -18.369100 -15.751000
O -6.075400 -17.938900 -12.081500
O -6.075400 -17.829400 -16.833600
C -6.075400 -17.652400 -14.450800
N -6.075400 -16.372000 -14.267800
O -6.075400 -15.616800 -15.385100
H -6.075400 -14.715900 -15.004900
14
Fragment
O -6.075400 -21.721600 -7.001800
C -6.075400 -20.498000 -6.989000
H -6.075400 -20.309700 -5.066900
H -6.075400 -20.137600 -8.793600
N -6.075400 -19.801100 -5.800200
N -6.075400 -19.749000 -8.132600
C -6.075400 -18.422700 -5.660900
C -6.075400 -18.369100 -8.222200
O -6.075400 -17.938900 -4.552700
O -6.075400 -17.829400 -9.304800
C -6.075400 -17.652400 -6.922000
N -6.075400 -16.372000 -6.739000
O -6.075400 -15.616800 -7.856300
H -6.075400 -14.715900 -7.476100
28
Fragment
O -6.075400 -21.721600 -14.530600
C -6.075400 -20.498000 -14.517800
H -6.075400 -20.309700 -12.595700
H -6.075400 -20.137600 -16.322400
N -6.075400 -19.801100 -13.329000
N -6.075400 -19.749000 -15.661400
C -6.075400 -18.422700 -13.189700
C -6.075400 -18.369100 -15.751000
O -6.075400 -17.938900 -12.081500
O -6.075400 -17.829400 -16.833600
C -6.075400 -17.652400 -14.450800
N -6.075400 -16.372000 -14.267800
O -6.075400 -15.616800 -15.385100
H -6.075400 -14.715900 -15.004900
O -6.075400 -21.721600 -7.001800
C -6.075400 -20.498000 -6.989000
H -6.075400 -20.309700 -5.066900
H -6.075400 -20.137600 -8.793600
N -6.075400 -19.801100 -5.800200
N -6.075400 -19.749000 -8.132600
C -6.075400 -18.422700 -5.660900
C -6.075400 -18.369100 -8.222200
O -6.075400 -17.938900 -4.552700
O -6.075400 -17.829400 -9.304800
C -6.075400 -17.652400 -6.922000
N -6.075400 -16.372000 -6.739000
O -6.075400 -15.616800 -7.856300
H -6.075400 -14.715900 -7.476100
