14
Fragment
O -6.075400 -21.721600 -14.530600
C -6.075400 -20.498000 -14.517800
H -6.075400 -20.309700 -12.595700
H -6.075400 -20.137600 -16.322400
N -6.075400 -19.801100 -13.329000
N -6.075400 -19.749000 -15.661400
C -6.075400 -18.422700 -13.189700
C -6.075400 -18.369100 -15.751000
O -6.075400 -17.938900 -12.081500
O -6.075400 -17.829400 -16.833600
C -6.075400 -17.652400 -14.450800
N -6.075400 -16.372000 -14.267800
O -6.075400 -15.616800 -15.385100
H -6.075400 -14.715900 -15.004900
14
Fragment
O -6.075400 -21.721600 -22.059400
C -6.075400 -20.498000 -22.046600
H -6.075400 -20.309700 -20.124500
H -6.075400 -20.137600 -23.851200
N -6.075400 -19.801100 -20.857800
N -6.075400 -19.749000 -23.190200
C -6.075400 -18.422700 -20.718500
C -6.075400 -18.369100 -23.279800
O -6.075400 -17.938900 -19.610300
O -6.075400 -17.829400 -24.362400
C -6.075400 -17.652400 -21.979600
N -6.075400 -16.372000 -21.796600
O -6.075400 -15.616800 -22.913900
H -6.075400 -14.715900 -22.533700
28
Fragment
O -6.075400 -21.721600 -14.530600
C -6.075400 -20.498000 -14.517800
H -6.075400 -20.309700 -12.595700
H -6.075400 -20.137600 -16.322400
N -6.075400 -19.801100 -13.329000
N -6.075400 -19.749000 -15.661400
C -6.075400 -18.422700 -13.189700
C -6.075400 -18.369100 -15.751000
O -6.075400 -17.938900 -12.081500
O -6.075400 -17.829400 -16.833600
C -6.075400 -17.652400 -14.450800
N -6.075400 -16.372000 -14.267800
O -6.075400 -15.616800 -15.385100
H -6.075400 -14.715900 -15.004900
O -6.075400 -21.721600 -22.059400
C -6.075400 -20.498000 -22.046600
H -6.075400 -20.309700 -20.124500
H -6.075400 -20.137600 -23.851200
N -6.075400 -19.801100 -20.857800
N -6.075400 -19.749000 -23.190200
C -6.075400 -18.422700 -20.718500
C -6.075400 -18.369100 -23.279800
O -6.075400 -17.938900 -19.610300
O -6.075400 -17.829400 -24.362400
C -6.075400 -17.652400 -21.979600
N -6.075400 -16.372000 -21.796600
O -6.075400 -15.616800 -22.913900
H -6.075400 -14.715900 -22.533700
