14
Fragment
O -6.075400 -21.721600 -14.530600
C -6.075400 -20.498000 -14.517800
H -6.075400 -20.309700 -12.595700
H -6.075400 -20.137600 -16.322400
N -6.075400 -19.801100 -13.329000
N -6.075400 -19.749000 -15.661400
C -6.075400 -18.422700 -13.189700
C -6.075400 -18.369100 -15.751000
O -6.075400 -17.938900 -12.081500
O -6.075400 -17.829400 -16.833600
C -6.075400 -17.652400 -14.450800
N -6.075400 -16.372000 -14.267800
O -6.075400 -15.616800 -15.385100
H -6.075400 -14.715900 -15.004900
14
Fragment
H -6.075400 -28.313100 -18.769300
O -6.075400 -27.412200 -19.149500
N -6.075400 -26.657000 -18.032200
C -6.075400 -25.376600 -18.215200
O -6.075400 -25.199600 -20.598000
O -6.075400 -25.090100 -15.845900
C -6.075400 -24.659900 -19.515400
C -6.075400 -24.606300 -16.954100
N -6.075400 -23.280000 -19.425800
N -6.075400 -23.227900 -17.093400
H -6.075400 -22.891400 -20.086800
H -6.075400 -22.719300 -16.360100
C -6.075400 -22.531000 -18.282200
O -6.075400 -21.307400 -18.295000
28
Fragment
O -6.075400 -21.721600 -14.530600
C -6.075400 -20.498000 -14.517800
H -6.075400 -20.309700 -12.595700
H -6.075400 -20.137600 -16.322400
N -6.075400 -19.801100 -13.329000
N -6.075400 -19.749000 -15.661400
C -6.075400 -18.422700 -13.189700
C -6.075400 -18.369100 -15.751000
O -6.075400 -17.938900 -12.081500
O -6.075400 -17.829400 -16.833600
C -6.075400 -17.652400 -14.450800
N -6.075400 -16.372000 -14.267800
O -6.075400 -15.616800 -15.385100
H -6.075400 -14.715900 -15.004900
H -6.075400 -28.313100 -18.769300
O -6.075400 -27.412200 -19.149500
N -6.075400 -26.657000 -18.032200
C -6.075400 -25.376600 -18.215200
O -6.075400 -25.199600 -20.598000
O -6.075400 -25.090100 -15.845900
C -6.075400 -24.659900 -19.515400
C -6.075400 -24.606300 -16.954100
N -6.075400 -23.280000 -19.425800
N -6.075400 -23.227900 -17.093400
H -6.075400 -22.891400 -20.086800
H -6.075400 -22.719300 -16.360100
C -6.075400 -22.531000 -18.282200
O -6.075400 -21.307400 -18.295000
