23
Fragment
H -36.135900 -9.232500 -17.733100
O -35.556900 -9.400200 -20.126300
H -35.479900 -10.526900 -16.731800
C -35.235800 -9.638100 -17.295600
H -34.794500 -8.904500 -16.636800
C -34.477500 -9.781600 -19.705800
C -34.165200 -9.971900 -18.291700
H -33.557200 -9.794000 -21.517000
N -33.440700 -10.056100 -20.586000
C -32.956300 -10.411200 -17.954500
H -32.654400 -10.521000 -16.994800
C -32.210400 -10.519500 -20.244800
N -31.963900 -10.697400 -18.907600
N -31.341400 -10.767000 -21.187500
C -30.696700 -11.127900 -18.532600
H -30.555100 -11.188700 -17.569000
C -30.092900 -11.245100 -20.846400
C -29.751900 -11.393700 -19.434900
O -29.299500 -11.537200 -21.748700
C -28.364500 -11.850500 -19.056000
H -28.192300 -11.761200 -17.993500
H -28.157400 -12.862300 -19.371100
H -27.716400 -11.168200 -19.584700
23
Fragment
H -44.359600 -10.794800 -19.477900
H -43.918700 -9.100700 -19.691400
H -43.883700 -10.201800 -21.069100
C -43.711600 -10.112500 -20.006600
O -42.776600 -10.425800 -17.313800
C -42.324200 -10.569300 -19.627600
C -41.983100 -10.717900 -18.216200
H -41.520900 -10.774300 -21.493500
C -41.379300 -10.835100 -20.530000
N -40.734700 -11.196000 -17.875000
N -40.112100 -11.265600 -20.155000
C -39.865700 -11.443500 -18.817700
H -39.421700 -11.442000 -22.067800
C -39.119700 -11.551800 -21.108100
N -38.635400 -11.906900 -18.476600
H -38.518800 -12.169000 -17.545600
C -37.910800 -11.991100 -20.770900
C -37.598600 -12.181400 -19.356800
H -37.281500 -13.058500 -22.425800
C -36.840200 -12.324900 -21.767000
H -36.596100 -11.436100 -22.330800
O -36.519100 -12.562800 -18.936200
H -35.940100 -12.730500 -21.329500
46
Fragment
H -36.135900 -9.232500 -17.733100
O -35.556900 -9.400200 -20.126300
H -35.479900 -10.526900 -16.731800
C -35.235800 -9.638100 -17.295600
H -34.794500 -8.904500 -16.636800
C -34.477500 -9.781600 -19.705800
C -34.165200 -9.971900 -18.291700
H -33.557200 -9.794000 -21.517000
N -33.440700 -10.056100 -20.586000
C -32.956300 -10.411200 -17.954500
H -32.654400 -10.521000 -16.994800
C -32.210400 -10.519500 -20.244800
N -31.963900 -10.697400 -18.907600
N -31.341400 -10.767000 -21.187500
C -30.696700 -11.127900 -18.532600
H -30.555100 -11.188700 -17.569000
C -30.092900 -11.245100 -20.846400
C -29.751900 -11.393700 -19.434900
O -29.299500 -11.537200 -21.748700
C -28.364500 -11.850500 -19.056000
H -28.192300 -11.761200 -17.993500
H -28.157400 -12.862300 -19.371100
H -27.716400 -11.168200 -19.584700
H -44.359600 -10.794800 -19.477900
H -43.918700 -9.100700 -19.691400
H -43.883700 -10.201800 -21.069100
C -43.711600 -10.112500 -20.006600
O -42.776600 -10.425800 -17.313800
C -42.324200 -10.569300 -19.627600
C -41.983100 -10.717900 -18.216200
H -41.520900 -10.774300 -21.493500
C -41.379300 -10.835100 -20.530000
N -40.734700 -11.196000 -17.875000
N -40.112100 -11.265600 -20.155000
C -39.865700 -11.443500 -18.817700
H -39.421700 -11.442000 -22.067800
C -39.119700 -11.551800 -21.108100
N -38.635400 -11.906900 -18.476600
H -38.518800 -12.169000 -17.545600
C -37.910800 -11.991100 -20.770900
C -37.598600 -12.181400 -19.356800
H -37.281500 -13.058500 -22.425800
C -36.840200 -12.324900 -21.767000
H -36.596100 -11.436100 -22.330800
O -36.519100 -12.562800 -18.936200
H -35.940100 -12.730500 -21.329500
