23
Fragment
H -36.135900 -9.232500 -17.733100
O -35.556900 -9.400200 -20.126300
H -35.479900 -10.526900 -16.731800
C -35.235800 -9.638100 -17.295600
H -34.794500 -8.904500 -16.636800
C -34.477500 -9.781600 -19.705800
C -34.165200 -9.971900 -18.291700
H -33.557200 -9.794000 -21.517000
N -33.440700 -10.056100 -20.586000
C -32.956300 -10.411200 -17.954500
H -32.654400 -10.521000 -16.994800
C -32.210400 -10.519500 -20.244800
N -31.963900 -10.697400 -18.907600
N -31.341400 -10.767000 -21.187500
C -30.696700 -11.127900 -18.532600
H -30.555100 -11.188700 -17.569000
C -30.092900 -11.245100 -20.846400
C -29.751900 -11.393700 -19.434900
O -29.299500 -11.537200 -21.748700
C -28.364500 -11.850500 -19.056000
H -28.192300 -11.761200 -17.993500
H -28.157400 -12.862300 -19.371100
H -27.716400 -11.168200 -19.584700
23
Fragment
H -26.043900 -12.893000 -17.733100
O -25.464900 -13.060700 -20.126300
H -25.387900 -14.187400 -16.731800
C -25.143800 -13.298600 -17.295600
H -24.702500 -12.565000 -16.636800
C -24.385500 -13.442100 -19.705800
C -24.073200 -13.632400 -18.291700
H -23.465200 -13.454500 -21.517000
N -23.348700 -13.716600 -20.586000
C -22.864300 -14.071700 -17.954500
H -22.562400 -14.181500 -16.994800
C -22.118400 -14.180000 -20.244800
N -21.871900 -14.357900 -18.907600
N -21.249400 -14.427500 -21.187500
C -20.604700 -14.788400 -18.532600
H -20.463100 -14.849200 -17.569000
C -20.000900 -14.905600 -20.846400
C -19.659900 -15.054200 -19.434900
O -19.207500 -15.197700 -21.748700
C -18.272500 -15.511000 -19.056000
H -18.100300 -15.421700 -17.993500
H -18.065400 -16.522800 -19.371100
H -17.624400 -14.828700 -19.584700
46
Fragment
H -36.135900 -9.232500 -17.733100
O -35.556900 -9.400200 -20.126300
H -35.479900 -10.526900 -16.731800
C -35.235800 -9.638100 -17.295600
H -34.794500 -8.904500 -16.636800
C -34.477500 -9.781600 -19.705800
C -34.165200 -9.971900 -18.291700
H -33.557200 -9.794000 -21.517000
N -33.440700 -10.056100 -20.586000
C -32.956300 -10.411200 -17.954500
H -32.654400 -10.521000 -16.994800
C -32.210400 -10.519500 -20.244800
N -31.963900 -10.697400 -18.907600
N -31.341400 -10.767000 -21.187500
C -30.696700 -11.127900 -18.532600
H -30.555100 -11.188700 -17.569000
C -30.092900 -11.245100 -20.846400
C -29.751900 -11.393700 -19.434900
O -29.299500 -11.537200 -21.748700
C -28.364500 -11.850500 -19.056000
H -28.192300 -11.761200 -17.993500
H -28.157400 -12.862300 -19.371100
H -27.716400 -11.168200 -19.584700
H -26.043900 -12.893000 -17.733100
O -25.464900 -13.060700 -20.126300
H -25.387900 -14.187400 -16.731800
C -25.143800 -13.298600 -17.295600
H -24.702500 -12.565000 -16.636800
C -24.385500 -13.442100 -19.705800
C -24.073200 -13.632400 -18.291700
H -23.465200 -13.454500 -21.517000
N -23.348700 -13.716600 -20.586000
C -22.864300 -14.071700 -17.954500
H -22.562400 -14.181500 -16.994800
C -22.118400 -14.180000 -20.244800
N -21.871900 -14.357900 -18.907600
N -21.249400 -14.427500 -21.187500
C -20.604700 -14.788400 -18.532600
H -20.463100 -14.849200 -17.569000
C -20.000900 -14.905600 -20.846400
C -19.659900 -15.054200 -19.434900
O -19.207500 -15.197700 -21.748700
C -18.272500 -15.511000 -19.056000
H -18.100300 -15.421700 -17.993500
H -18.065400 -16.522800 -19.371100
H -17.624400 -14.828700 -19.584700
