23
Fragment
H -36.135900 -9.232500 -17.733100
O -35.556900 -9.400200 -20.126300
H -35.479900 -10.526900 -16.731800
C -35.235800 -9.638100 -17.295600
H -34.794500 -8.904500 -16.636800
C -34.477500 -9.781600 -19.705800
C -34.165200 -9.971900 -18.291700
H -33.557200 -9.794000 -21.517000
N -33.440700 -10.056100 -20.586000
C -32.956300 -10.411200 -17.954500
H -32.654400 -10.521000 -16.994800
C -32.210400 -10.519500 -20.244800
N -31.963900 -10.697400 -18.907600
N -31.341400 -10.767000 -21.187500
C -30.696700 -11.127900 -18.532600
H -30.555100 -11.188700 -17.569000
C -30.092900 -11.245100 -20.846400
C -29.751900 -11.393700 -19.434900
O -29.299500 -11.537200 -21.748700
C -28.364500 -11.850500 -19.056000
H -28.192300 -11.761200 -17.993500
H -28.157400 -12.862300 -19.371100
H -27.716400 -11.168200 -19.584700
23
Fragment
H -34.267600 -7.134300 -19.477900
H -33.826700 -5.440200 -19.691400
H -33.791700 -6.541300 -21.069100
C -33.619600 -6.452000 -20.006600
O -32.684600 -6.765300 -17.313800
C -32.232200 -6.908800 -19.627600
C -31.891100 -7.057400 -18.216200
H -31.428900 -7.113800 -21.493500
C -31.287300 -7.174600 -20.530000
N -30.642700 -7.535500 -17.875000
N -30.020100 -7.605100 -20.155000
C -29.773700 -7.783000 -18.817700
H -29.329700 -7.781500 -22.067800
C -29.027700 -7.891300 -21.108100
N -28.543400 -8.246400 -18.476600
H -28.426800 -8.508500 -17.545600
C -27.818800 -8.330600 -20.770900
C -27.506600 -8.520900 -19.356800
H -27.189500 -9.398000 -22.425800
C -26.748200 -8.664400 -21.767000
H -26.504100 -7.775600 -22.330800
O -26.427100 -8.902300 -18.936200
H -25.848100 -9.070000 -21.329500
46
Fragment
H -36.135900 -9.232500 -17.733100
O -35.556900 -9.400200 -20.126300
H -35.479900 -10.526900 -16.731800
C -35.235800 -9.638100 -17.295600
H -34.794500 -8.904500 -16.636800
C -34.477500 -9.781600 -19.705800
C -34.165200 -9.971900 -18.291700
H -33.557200 -9.794000 -21.517000
N -33.440700 -10.056100 -20.586000
C -32.956300 -10.411200 -17.954500
H -32.654400 -10.521000 -16.994800
C -32.210400 -10.519500 -20.244800
N -31.963900 -10.697400 -18.907600
N -31.341400 -10.767000 -21.187500
C -30.696700 -11.127900 -18.532600
H -30.555100 -11.188700 -17.569000
C -30.092900 -11.245100 -20.846400
C -29.751900 -11.393700 -19.434900
O -29.299500 -11.537200 -21.748700
C -28.364500 -11.850500 -19.056000
H -28.192300 -11.761200 -17.993500
H -28.157400 -12.862300 -19.371100
H -27.716400 -11.168200 -19.584700
H -34.267600 -7.134300 -19.477900
H -33.826700 -5.440200 -19.691400
H -33.791700 -6.541300 -21.069100
C -33.619600 -6.452000 -20.006600
O -32.684600 -6.765300 -17.313800
C -32.232200 -6.908800 -19.627600
C -31.891100 -7.057400 -18.216200
H -31.428900 -7.113800 -21.493500
C -31.287300 -7.174600 -20.530000
N -30.642700 -7.535500 -17.875000
N -30.020100 -7.605100 -20.155000
C -29.773700 -7.783000 -18.817700
H -29.329700 -7.781500 -22.067800
C -29.027700 -7.891300 -21.108100
N -28.543400 -8.246400 -18.476600
H -28.426800 -8.508500 -17.545600
C -27.818800 -8.330600 -20.770900
C -27.506600 -8.520900 -19.356800
H -27.189500 -9.398000 -22.425800
C -26.748200 -8.664400 -21.767000
H -26.504100 -7.775600 -22.330800
O -26.427100 -8.902300 -18.936200
H -25.848100 -9.070000 -21.329500
