11
Fragment
H -18.574600 -5.554700 -19.107500
H -18.320300 -6.784100 -21.249200
H -17.943200 -4.604500 -20.249600
C -17.819300 -5.442800 -19.737900
N -17.695100 -6.581500 -20.616600
C -16.508600 -7.193300 -20.475400
C -16.492900 -5.455800 -19.015200
O -16.115700 -4.652600 -18.190200
O -16.081500 -8.164400 -21.101900
N -15.801700 -6.531400 -19.484400
H -14.999000 -6.810000 -19.152700
11
Fragment
H -20.340700 -3.563200 -24.859600
N -19.537900 -3.841800 -24.527900
O -19.258200 -2.208800 -22.910500
O -19.224000 -5.720600 -25.822200
C -18.846800 -4.917400 -24.997100
C -18.831100 -3.179900 -23.536900
N -17.644600 -3.791700 -23.395800
C -17.520300 -4.930400 -24.274400
H -17.396500 -5.768800 -23.762700
H -17.019400 -3.589100 -22.763200
H -16.765100 -4.818600 -24.904800
22
Fragment
H -18.574600 -5.554700 -19.107500
H -18.320300 -6.784100 -21.249200
H -17.943200 -4.604500 -20.249600
C -17.819300 -5.442800 -19.737900
N -17.695100 -6.581500 -20.616600
C -16.508600 -7.193300 -20.475400
C -16.492900 -5.455800 -19.015200
O -16.115700 -4.652600 -18.190200
O -16.081500 -8.164400 -21.101900
N -15.801700 -6.531400 -19.484400
H -14.999000 -6.810000 -19.152700
H -20.340700 -3.563200 -24.859600
N -19.537900 -3.841800 -24.527900
O -19.258200 -2.208800 -22.910500
O -19.224000 -5.720600 -25.822200
C -18.846800 -4.917400 -24.997100
C -18.831100 -3.179900 -23.536900
N -17.644600 -3.791700 -23.395800
C -17.520300 -4.930400 -24.274400
H -17.396500 -5.768800 -23.762700
H -17.019400 -3.589100 -22.763200
H -16.765100 -4.818600 -24.904800
