11
Fragment
H -18.574600 -5.554700 -19.107500
H -18.320300 -6.784100 -21.249200
H -17.943200 -4.604500 -20.249600
C -17.819300 -5.442800 -19.737900
N -17.695100 -6.581500 -20.616600
C -16.508600 -7.193300 -20.475400
C -16.492900 -5.455800 -19.015200
O -16.115700 -4.652600 -18.190200
O -16.081500 -8.164400 -21.101900
N -15.801700 -6.531400 -19.484400
H -14.999000 -6.810000 -19.152700
14
Fragment
O -24.870400 -7.921400 -22.598900
Cl -24.311500 -10.240800 -24.356700
H -24.194100 -6.597400 -20.933700
C -23.809100 -8.480100 -22.364700
O -23.445900 -6.873000 -20.610300
C -23.327600 -9.641900 -23.093600
C -22.972300 -7.936600 -21.240200
C -22.151900 -10.216600 -22.772100
C -21.796600 -8.511200 -20.918800
O -21.678300 -11.280200 -23.402100
C -21.315100 -9.673000 -21.647600
H -20.930100 -11.555800 -23.078600
Cl -20.812700 -7.912300 -19.655600
O -20.253700 -10.231800 -21.413500
25
Fragment
H -18.574600 -5.554700 -19.107500
H -18.320300 -6.784100 -21.249200
H -17.943200 -4.604500 -20.249600
C -17.819300 -5.442800 -19.737900
N -17.695100 -6.581500 -20.616600
C -16.508600 -7.193300 -20.475400
C -16.492900 -5.455800 -19.015200
O -16.115700 -4.652600 -18.190200
O -16.081500 -8.164400 -21.101900
N -15.801700 -6.531400 -19.484400
H -14.999000 -6.810000 -19.152700
O -24.870400 -7.921400 -22.598900
Cl -24.311500 -10.240800 -24.356700
H -24.194100 -6.597400 -20.933700
C -23.809100 -8.480100 -22.364700
O -23.445900 -6.873000 -20.610300
C -23.327600 -9.641900 -23.093600
C -22.972300 -7.936600 -21.240200
C -22.151900 -10.216600 -22.772100
C -21.796600 -8.511200 -20.918800
O -21.678300 -11.280200 -23.402100
C -21.315100 -9.673000 -21.647600
H -20.930100 -11.555800 -23.078600
Cl -20.812700 -7.912300 -19.655600
O -20.253700 -10.231800 -21.413500
