11
Fragment
H -18.574600 -5.554700 -19.107500
H -18.320300 -6.784100 -21.249200
H -17.943200 -4.604500 -20.249600
C -17.819300 -5.442800 -19.737900
N -17.695100 -6.581500 -20.616600
C -16.508600 -7.193300 -20.475400
C -16.492900 -5.455800 -19.015200
O -16.115700 -4.652600 -18.190200
O -16.081500 -8.164400 -21.101900
N -15.801700 -6.531400 -19.484400
H -14.999000 -6.810000 -19.152700
11
Fragment
H -24.235200 -6.810000 -17.524300
N -23.432500 -6.531400 -17.192500
O -23.152700 -8.164400 -15.575100
O -23.118500 -4.652600 -18.486800
C -22.741300 -5.455800 -17.661700
C -22.725600 -7.193300 -16.201500
N -21.539100 -6.581500 -16.060400
C -21.414900 -5.442800 -16.939000
H -21.291100 -4.604500 -16.427300
H -20.914000 -6.784100 -15.427800
H -20.659700 -5.554700 -17.569400
22
Fragment
H -18.574600 -5.554700 -19.107500
H -18.320300 -6.784100 -21.249200
H -17.943200 -4.604500 -20.249600
C -17.819300 -5.442800 -19.737900
N -17.695100 -6.581500 -20.616600
C -16.508600 -7.193300 -20.475400
C -16.492900 -5.455800 -19.015200
O -16.115700 -4.652600 -18.190200
O -16.081500 -8.164400 -21.101900
N -15.801700 -6.531400 -19.484400
H -14.999000 -6.810000 -19.152700
H -24.235200 -6.810000 -17.524300
N -23.432500 -6.531400 -17.192500
O -23.152700 -8.164400 -15.575100
O -23.118500 -4.652600 -18.486800
C -22.741300 -5.455800 -17.661700
C -22.725600 -7.193300 -16.201500
N -21.539100 -6.581500 -16.060400
C -21.414900 -5.442800 -16.939000
H -21.291100 -4.604500 -16.427300
H -20.914000 -6.784100 -15.427800
H -20.659700 -5.554700 -17.569400
