11
Fragment
H -18.574600 -5.554700 -19.107500
H -18.320300 -6.784100 -21.249200
H -17.943200 -4.604500 -20.249600
C -17.819300 -5.442800 -19.737900
N -17.695100 -6.581500 -20.616600
C -16.508600 -7.193300 -20.475400
C -16.492900 -5.455800 -19.015200
O -16.115700 -4.652600 -18.190200
O -16.081500 -8.164400 -21.101900
N -15.801700 -6.531400 -19.484400
H -14.999000 -6.810000 -19.152700
11
Fragment
H -14.450700 -4.216700 -17.524300
N -13.648000 -3.938100 -17.192500
O -13.368200 -5.571100 -15.575100
O -13.334000 -2.059300 -18.486800
C -12.956800 -2.862500 -17.661700
C -12.941100 -4.600000 -16.201500
N -11.754600 -3.988200 -16.060400
C -11.630400 -2.849500 -16.939000
H -11.506600 -2.011200 -16.427300
H -11.129500 -4.190800 -15.427800
H -10.875200 -2.961300 -17.569400
22
Fragment
H -18.574600 -5.554700 -19.107500
H -18.320300 -6.784100 -21.249200
H -17.943200 -4.604500 -20.249600
C -17.819300 -5.442800 -19.737900
N -17.695100 -6.581500 -20.616600
C -16.508600 -7.193300 -20.475400
C -16.492900 -5.455800 -19.015200
O -16.115700 -4.652600 -18.190200
O -16.081500 -8.164400 -21.101900
N -15.801700 -6.531400 -19.484400
H -14.999000 -6.810000 -19.152700
H -14.450700 -4.216700 -17.524300
N -13.648000 -3.938100 -17.192500
O -13.368200 -5.571100 -15.575100
O -13.334000 -2.059300 -18.486800
C -12.956800 -2.862500 -17.661700
C -12.941100 -4.600000 -16.201500
N -11.754600 -3.988200 -16.060400
C -11.630400 -2.849500 -16.939000
H -11.506600 -2.011200 -16.427300
H -11.129500 -4.190800 -15.427800
H -10.875200 -2.961300 -17.569400
