11
Fragment
H -18.574600 -5.554700 -19.107500
H -18.320300 -6.784100 -21.249200
H -17.943200 -4.604500 -20.249600
C -17.819300 -5.442800 -19.737900
N -17.695100 -6.581500 -20.616600
C -16.508600 -7.193300 -20.475400
C -16.492900 -5.455800 -19.015200
O -16.115700 -4.652600 -18.190200
O -16.081500 -8.164400 -21.101900
N -15.801700 -6.531400 -19.484400
H -14.999000 -6.810000 -19.152700
14
Fragment
O -18.980500 -5.045200 -15.263500
Cl -18.421600 -2.725700 -17.021300
H -18.304100 -6.369200 -13.598400
C -17.919100 -4.486400 -15.029300
O -17.555900 -6.093500 -13.274900
C -17.437600 -3.324600 -15.758200
C -17.082300 -5.030000 -13.904800
C -16.262000 -2.749900 -15.436700
C -15.906700 -4.455300 -13.583400
O -15.788400 -1.686400 -16.066700
C -15.425200 -3.293500 -14.312200
H -15.040200 -1.410800 -15.743200
Cl -14.922700 -5.054200 -12.320200
O -14.363800 -2.734700 -14.078100
25
Fragment
H -18.574600 -5.554700 -19.107500
H -18.320300 -6.784100 -21.249200
H -17.943200 -4.604500 -20.249600
C -17.819300 -5.442800 -19.737900
N -17.695100 -6.581500 -20.616600
C -16.508600 -7.193300 -20.475400
C -16.492900 -5.455800 -19.015200
O -16.115700 -4.652600 -18.190200
O -16.081500 -8.164400 -21.101900
N -15.801700 -6.531400 -19.484400
H -14.999000 -6.810000 -19.152700
O -18.980500 -5.045200 -15.263500
Cl -18.421600 -2.725700 -17.021300
H -18.304100 -6.369200 -13.598400
C -17.919100 -4.486400 -15.029300
O -17.555900 -6.093500 -13.274900
C -17.437600 -3.324600 -15.758200
C -17.082300 -5.030000 -13.904800
C -16.262000 -2.749900 -15.436700
C -15.906700 -4.455300 -13.583400
O -15.788400 -1.686400 -16.066700
C -15.425200 -3.293500 -14.312200
H -15.040200 -1.410800 -15.743200
Cl -14.922700 -5.054200 -12.320200
O -14.363800 -2.734700 -14.078100
