30
Fragment
H -13.158700 -17.996000 -36.060500
O -12.712500 -17.520900 -36.463100
H -11.775600 -19.890800 -38.929200
O -11.572700 -19.854800 -38.198300
H -11.515000 -18.953100 -35.882000
C -11.463100 -18.165400 -36.463100
H -11.236800 -17.928000 -38.510100
C -11.002600 -18.607500 -37.843600
H -10.992800 -11.379100 -37.041200
H -10.842700 -11.248700 -35.462500
N -10.832900 -11.804300 -36.258200
C -10.780100 -13.126500 -36.207600
N -10.771000 -13.712400 -35.000800
H -10.763200 -13.486600 -38.245900
C -10.722000 -13.890500 -37.409100
O -10.705700 -15.606600 -33.774900
C -10.686100 -15.058500 -34.874500
C -10.605900 -15.215900 -37.276000
N -10.569400 -15.822600 -36.051300
H -10.548600 -15.741400 -38.040800
C -10.301200 -17.260700 -35.972500
H -10.069300 -17.499000 -35.050700
C -9.495500 -18.665700 -37.664800
H -9.260400 -19.489900 -37.189900
O -9.193500 -17.537900 -36.827100
O -9.018600 -17.444500 -39.722200
H -8.805400 -19.378700 -39.455500
C -8.673500 -18.572400 -38.932200
H -8.461500 -16.772800 -39.541000
H -7.734000 -18.520500 -38.698000
30
Fragment
H -16.420700 -17.093600 -32.678500
O -15.974400 -17.568700 -32.275900
H -15.037600 -15.198800 -29.809800
O -14.834700 -15.234800 -30.540700
H -14.777000 -16.136500 -32.857000
C -14.725100 -16.924200 -32.275900
H -14.498800 -17.161600 -30.228900
C -14.264500 -16.482100 -30.895400
H -14.254700 -23.710500 -31.697800
H -14.104700 -23.840900 -33.276500
N -14.094900 -23.285300 -32.480800
C -14.042000 -21.963100 -32.531400
N -14.032900 -21.377200 -33.738200
H -14.025100 -21.603000 -30.493100
C -13.984000 -21.199100 -31.329900
O -13.967700 -19.483000 -34.964100
C -13.948100 -20.031100 -33.864500
C -13.867900 -19.873700 -31.463000
N -13.831300 -19.267000 -32.687700
H -13.810600 -19.348200 -30.698200
C -13.563200 -17.828900 -32.766500
H -13.331300 -17.590600 -33.688300
C -12.757500 -16.423900 -31.074200
H -12.522400 -15.599700 -31.549100
O -12.455400 -17.551700 -31.911900
O -12.280600 -17.645100 -29.016800
H -12.067300 -15.710900 -29.283500
C -11.935500 -16.517200 -29.806800
H -11.723400 -18.316800 -29.198000
H -10.995900 -16.569100 -30.041000
60
Fragment
H -13.158700 -17.996000 -36.060500
O -12.712500 -17.520900 -36.463100
H -11.775600 -19.890800 -38.929200
O -11.572700 -19.854800 -38.198300
H -11.515000 -18.953100 -35.882000
C -11.463100 -18.165400 -36.463100
H -11.236800 -17.928000 -38.510100
C -11.002600 -18.607500 -37.843600
H -10.992800 -11.379100 -37.041200
H -10.842700 -11.248700 -35.462500
N -10.832900 -11.804300 -36.258200
C -10.780100 -13.126500 -36.207600
N -10.771000 -13.712400 -35.000800
H -10.763200 -13.486600 -38.245900
C -10.722000 -13.890500 -37.409100
O -10.705700 -15.606600 -33.774900
C -10.686100 -15.058500 -34.874500
C -10.605900 -15.215900 -37.276000
N -10.569400 -15.822600 -36.051300
H -10.548600 -15.741400 -38.040800
C -10.301200 -17.260700 -35.972500
H -10.069300 -17.499000 -35.050700
C -9.495500 -18.665700 -37.664800
H -9.260400 -19.489900 -37.189900
O -9.193500 -17.537900 -36.827100
O -9.018600 -17.444500 -39.722200
H -8.805400 -19.378700 -39.455500
C -8.673500 -18.572400 -38.932200
H -8.461500 -16.772800 -39.541000
H -7.734000 -18.520500 -38.698000
H -16.420700 -17.093600 -32.678500
O -15.974400 -17.568700 -32.275900
H -15.037600 -15.198800 -29.809800
O -14.834700 -15.234800 -30.540700
H -14.777000 -16.136500 -32.857000
C -14.725100 -16.924200 -32.275900
H -14.498800 -17.161600 -30.228900
C -14.264500 -16.482100 -30.895400
H -14.254700 -23.710500 -31.697800
H -14.104700 -23.840900 -33.276500
N -14.094900 -23.285300 -32.480800
C -14.042000 -21.963100 -32.531400
N -14.032900 -21.377200 -33.738200
H -14.025100 -21.603000 -30.493100
C -13.984000 -21.199100 -31.329900
O -13.967700 -19.483000 -34.964100
C -13.948100 -20.031100 -33.864500
C -13.867900 -19.873700 -31.463000
N -13.831300 -19.267000 -32.687700
H -13.810600 -19.348200 -30.698200
C -13.563200 -17.828900 -32.766500
H -13.331300 -17.590600 -33.688300
C -12.757500 -16.423900 -31.074200
H -12.522400 -15.599700 -31.549100
O -12.455400 -17.551700 -31.911900
O -12.280600 -17.645100 -29.016800
H -12.067300 -15.710900 -29.283500
C -11.935500 -16.517200 -29.806800
H -11.723400 -18.316800 -29.198000
H -10.995900 -16.569100 -30.041000
