30
Fragment
H -13.158700 -17.996000 -36.060500
O -12.712500 -17.520900 -36.463100
H -11.775600 -19.890800 -38.929200
O -11.572700 -19.854800 -38.198300
H -11.515000 -18.953100 -35.882000
C -11.463100 -18.165400 -36.463100
H -11.236800 -17.928000 -38.510100
C -11.002600 -18.607500 -37.843600
H -10.992800 -11.379100 -37.041200
H -10.842700 -11.248700 -35.462500
N -10.832900 -11.804300 -36.258200
C -10.780100 -13.126500 -36.207600
N -10.771000 -13.712400 -35.000800
H -10.763200 -13.486600 -38.245900
C -10.722000 -13.890500 -37.409100
O -10.705700 -15.606600 -33.774900
C -10.686100 -15.058500 -34.874500
C -10.605900 -15.215900 -37.276000
N -10.569400 -15.822600 -36.051300
H -10.548600 -15.741400 -38.040800
C -10.301200 -17.260700 -35.972500
H -10.069300 -17.499000 -35.050700
C -9.495500 -18.665700 -37.664800
H -9.260400 -19.489900 -37.189900
O -9.193500 -17.537900 -36.827100
O -9.018600 -17.444500 -39.722200
H -8.805400 -19.378700 -39.455500
C -8.673500 -18.572400 -38.932200
H -8.461500 -16.772800 -39.541000
H -7.734000 -18.520500 -38.698000
30
Fragment
H -6.634800 -17.996000 -36.060500
O -6.188600 -17.520900 -36.463100
H -5.251700 -19.890800 -38.929200
O -5.048800 -19.854800 -38.198300
H -4.991100 -18.953100 -35.882000
C -4.939200 -18.165400 -36.463100
H -4.712900 -17.928000 -38.510100
C -4.478700 -18.607500 -37.843600
H -4.468900 -11.379100 -37.041200
H -4.318800 -11.248700 -35.462500
N -4.309000 -11.804300 -36.258200
C -4.256200 -13.126500 -36.207600
N -4.247100 -13.712400 -35.000800
H -4.239300 -13.486600 -38.245900
C -4.198100 -13.890500 -37.409100
O -4.181800 -15.606600 -33.774900
C -4.162200 -15.058500 -34.874500
C -4.082000 -15.215900 -37.276000
N -4.045500 -15.822600 -36.051300
H -4.024700 -15.741400 -38.040800
C -3.777300 -17.260700 -35.972500
H -3.545400 -17.499000 -35.050700
C -2.971600 -18.665700 -37.664800
H -2.736500 -19.489900 -37.189900
O -2.669600 -17.537900 -36.827100
O -2.494700 -17.444500 -39.722200
H -2.281500 -19.378700 -39.455500
C -2.149600 -18.572400 -38.932200
H -1.937600 -16.772800 -39.541000
H -1.210100 -18.520500 -38.698000
60
Fragment
H -13.158700 -17.996000 -36.060500
O -12.712500 -17.520900 -36.463100
H -11.775600 -19.890800 -38.929200
O -11.572700 -19.854800 -38.198300
H -11.515000 -18.953100 -35.882000
C -11.463100 -18.165400 -36.463100
H -11.236800 -17.928000 -38.510100
C -11.002600 -18.607500 -37.843600
H -10.992800 -11.379100 -37.041200
H -10.842700 -11.248700 -35.462500
N -10.832900 -11.804300 -36.258200
C -10.780100 -13.126500 -36.207600
N -10.771000 -13.712400 -35.000800
H -10.763200 -13.486600 -38.245900
C -10.722000 -13.890500 -37.409100
O -10.705700 -15.606600 -33.774900
C -10.686100 -15.058500 -34.874500
C -10.605900 -15.215900 -37.276000
N -10.569400 -15.822600 -36.051300
H -10.548600 -15.741400 -38.040800
C -10.301200 -17.260700 -35.972500
H -10.069300 -17.499000 -35.050700
C -9.495500 -18.665700 -37.664800
H -9.260400 -19.489900 -37.189900
O -9.193500 -17.537900 -36.827100
O -9.018600 -17.444500 -39.722200
H -8.805400 -19.378700 -39.455500
C -8.673500 -18.572400 -38.932200
H -8.461500 -16.772800 -39.541000
H -7.734000 -18.520500 -38.698000
H -6.634800 -17.996000 -36.060500
O -6.188600 -17.520900 -36.463100
H -5.251700 -19.890800 -38.929200
O -5.048800 -19.854800 -38.198300
H -4.991100 -18.953100 -35.882000
C -4.939200 -18.165400 -36.463100
H -4.712900 -17.928000 -38.510100
C -4.478700 -18.607500 -37.843600
H -4.468900 -11.379100 -37.041200
H -4.318800 -11.248700 -35.462500
N -4.309000 -11.804300 -36.258200
C -4.256200 -13.126500 -36.207600
N -4.247100 -13.712400 -35.000800
H -4.239300 -13.486600 -38.245900
C -4.198100 -13.890500 -37.409100
O -4.181800 -15.606600 -33.774900
C -4.162200 -15.058500 -34.874500
C -4.082000 -15.215900 -37.276000
N -4.045500 -15.822600 -36.051300
H -4.024700 -15.741400 -38.040800
C -3.777300 -17.260700 -35.972500
H -3.545400 -17.499000 -35.050700
C -2.971600 -18.665700 -37.664800
H -2.736500 -19.489900 -37.189900
O -2.669600 -17.537900 -36.827100
O -2.494700 -17.444500 -39.722200
H -2.281500 -19.378700 -39.455500
C -2.149600 -18.572400 -38.932200
H -1.937600 -16.772800 -39.541000
H -1.210100 -18.520500 -38.698000
