30
Fragment
H -13.158700 -17.996000 -36.060500
O -12.712500 -17.520900 -36.463100
H -11.775600 -19.890800 -38.929200
O -11.572700 -19.854800 -38.198300
H -11.515000 -18.953100 -35.882000
C -11.463100 -18.165400 -36.463100
H -11.236800 -17.928000 -38.510100
C -11.002600 -18.607500 -37.843600
H -10.992800 -11.379100 -37.041200
H -10.842700 -11.248700 -35.462500
N -10.832900 -11.804300 -36.258200
C -10.780100 -13.126500 -36.207600
N -10.771000 -13.712400 -35.000800
H -10.763200 -13.486600 -38.245900
C -10.722000 -13.890500 -37.409100
O -10.705700 -15.606600 -33.774900
C -10.686100 -15.058500 -34.874500
C -10.605900 -15.215900 -37.276000
N -10.569400 -15.822600 -36.051300
H -10.548600 -15.741400 -38.040800
C -10.301200 -17.260700 -35.972500
H -10.069300 -17.499000 -35.050700
C -9.495500 -18.665700 -37.664800
H -9.260400 -19.489900 -37.189900
O -9.193500 -17.537900 -36.827100
O -9.018600 -17.444500 -39.722200
H -8.805400 -19.378700 -39.455500
C -8.673500 -18.572400 -38.932200
H -8.461500 -16.772800 -39.541000
H -7.734000 -18.520500 -38.698000
30
Fragment
H -11.837700 -23.533300 -41.497500
H -11.110200 -21.785600 -40.654500
C -10.898200 -23.585200 -41.263300
H -10.766300 -24.391500 -40.740000
O -10.553100 -22.457300 -40.473300
O -10.378200 -22.550700 -43.368400
H -10.311300 -24.502700 -43.005600
C -10.076200 -23.678500 -42.530700
H -9.502400 -22.511800 -45.144800
C -9.270500 -22.273500 -44.223000
H -9.023100 -20.754200 -42.154700
N -9.002300 -20.835400 -44.144200
C -8.965800 -20.228700 -42.919500
C -8.885600 -20.071300 -45.321000
O -8.866000 -20.619400 -46.420600
C -8.849700 -18.903300 -42.786400
H -8.808500 -18.499400 -41.949600
N -8.800700 -18.725200 -45.194700
C -8.791600 -18.139300 -43.987900
N -8.738800 -16.817100 -43.937300
H -8.729000 -16.261500 -44.733000
H -8.578900 -16.391900 -43.154300
C -8.569100 -23.620300 -42.351900
H -8.334900 -22.940800 -41.685400
C -8.108600 -23.178200 -43.732400
H -8.056700 -23.965900 -44.313500
O -7.999000 -24.867600 -41.997200
H -7.796100 -24.903600 -41.266300
O -6.859200 -22.533700 -43.732400
H -6.413000 -23.008800 -44.135000
60
Fragment
H -13.158700 -17.996000 -36.060500
O -12.712500 -17.520900 -36.463100
H -11.775600 -19.890800 -38.929200
O -11.572700 -19.854800 -38.198300
H -11.515000 -18.953100 -35.882000
C -11.463100 -18.165400 -36.463100
H -11.236800 -17.928000 -38.510100
C -11.002600 -18.607500 -37.843600
H -10.992800 -11.379100 -37.041200
H -10.842700 -11.248700 -35.462500
N -10.832900 -11.804300 -36.258200
C -10.780100 -13.126500 -36.207600
N -10.771000 -13.712400 -35.000800
H -10.763200 -13.486600 -38.245900
C -10.722000 -13.890500 -37.409100
O -10.705700 -15.606600 -33.774900
C -10.686100 -15.058500 -34.874500
C -10.605900 -15.215900 -37.276000
N -10.569400 -15.822600 -36.051300
H -10.548600 -15.741400 -38.040800
C -10.301200 -17.260700 -35.972500
H -10.069300 -17.499000 -35.050700
C -9.495500 -18.665700 -37.664800
H -9.260400 -19.489900 -37.189900
O -9.193500 -17.537900 -36.827100
O -9.018600 -17.444500 -39.722200
H -8.805400 -19.378700 -39.455500
C -8.673500 -18.572400 -38.932200
H -8.461500 -16.772800 -39.541000
H -7.734000 -18.520500 -38.698000
H -11.837700 -23.533300 -41.497500
H -11.110200 -21.785600 -40.654500
C -10.898200 -23.585200 -41.263300
H -10.766300 -24.391500 -40.740000
O -10.553100 -22.457300 -40.473300
O -10.378200 -22.550700 -43.368400
H -10.311300 -24.502700 -43.005600
C -10.076200 -23.678500 -42.530700
H -9.502400 -22.511800 -45.144800
C -9.270500 -22.273500 -44.223000
H -9.023100 -20.754200 -42.154700
N -9.002300 -20.835400 -44.144200
C -8.965800 -20.228700 -42.919500
C -8.885600 -20.071300 -45.321000
O -8.866000 -20.619400 -46.420600
C -8.849700 -18.903300 -42.786400
H -8.808500 -18.499400 -41.949600
N -8.800700 -18.725200 -45.194700
C -8.791600 -18.139300 -43.987900
N -8.738800 -16.817100 -43.937300
H -8.729000 -16.261500 -44.733000
H -8.578900 -16.391900 -43.154300
C -8.569100 -23.620300 -42.351900
H -8.334900 -22.940800 -41.685400
C -8.108600 -23.178200 -43.732400
H -8.056700 -23.965900 -44.313500
O -7.999000 -24.867600 -41.997200
H -7.796100 -24.903600 -41.266300
O -6.859200 -22.533700 -43.732400
H -6.413000 -23.008800 -44.135000
