30
Fragment
H -13.158700 -17.996000 -36.060500
O -12.712500 -17.520900 -36.463100
H -11.775600 -19.890800 -38.929200
O -11.572700 -19.854800 -38.198300
H -11.515000 -18.953100 -35.882000
C -11.463100 -18.165400 -36.463100
H -11.236800 -17.928000 -38.510100
C -11.002600 -18.607500 -37.843600
H -10.992800 -11.379100 -37.041200
H -10.842700 -11.248700 -35.462500
N -10.832900 -11.804300 -36.258200
C -10.780100 -13.126500 -36.207600
N -10.771000 -13.712400 -35.000800
H -10.763200 -13.486600 -38.245900
C -10.722000 -13.890500 -37.409100
O -10.705700 -15.606600 -33.774900
C -10.686100 -15.058500 -34.874500
C -10.605900 -15.215900 -37.276000
N -10.569400 -15.822600 -36.051300
H -10.548600 -15.741400 -38.040800
C -10.301200 -17.260700 -35.972500
H -10.069300 -17.499000 -35.050700
C -9.495500 -18.665700 -37.664800
H -9.260400 -19.489900 -37.189900
O -9.193500 -17.537900 -36.827100
O -9.018600 -17.444500 -39.722200
H -8.805400 -19.378700 -39.455500
C -8.673500 -18.572400 -38.932200
H -8.461500 -16.772800 -39.541000
H -7.734000 -18.520500 -38.698000
12
Fragment
H -12.251900 -20.813100 -43.094800
O -12.226400 -20.180600 -40.805300
H -12.208800 -17.538300 -40.902500
C -12.195100 -19.409600 -41.776100
C -12.184000 -17.977900 -41.721400
N -12.175600 -19.945900 -43.043200
H -12.147700 -16.350900 -42.825300
C -12.137700 -17.280100 -42.866300
C -12.098600 -19.239100 -44.222500
H -12.082300 -17.364300 -44.838400
N -12.077000 -17.883200 -44.086700
O -12.037900 -19.814500 -45.301800
42
Fragment
H -13.158700 -17.996000 -36.060500
O -12.712500 -17.520900 -36.463100
H -11.775600 -19.890800 -38.929200
O -11.572700 -19.854800 -38.198300
H -11.515000 -18.953100 -35.882000
C -11.463100 -18.165400 -36.463100
H -11.236800 -17.928000 -38.510100
C -11.002600 -18.607500 -37.843600
H -10.992800 -11.379100 -37.041200
H -10.842700 -11.248700 -35.462500
N -10.832900 -11.804300 -36.258200
C -10.780100 -13.126500 -36.207600
N -10.771000 -13.712400 -35.000800
H -10.763200 -13.486600 -38.245900
C -10.722000 -13.890500 -37.409100
O -10.705700 -15.606600 -33.774900
C -10.686100 -15.058500 -34.874500
C -10.605900 -15.215900 -37.276000
N -10.569400 -15.822600 -36.051300
H -10.548600 -15.741400 -38.040800
C -10.301200 -17.260700 -35.972500
H -10.069300 -17.499000 -35.050700
C -9.495500 -18.665700 -37.664800
H -9.260400 -19.489900 -37.189900
O -9.193500 -17.537900 -36.827100
O -9.018600 -17.444500 -39.722200
H -8.805400 -19.378700 -39.455500
C -8.673500 -18.572400 -38.932200
H -8.461500 -16.772800 -39.541000
H -7.734000 -18.520500 -38.698000
H -12.251900 -20.813100 -43.094800
O -12.226400 -20.180600 -40.805300
H -12.208800 -17.538300 -40.902500
C -12.195100 -19.409600 -41.776100
C -12.184000 -17.977900 -41.721400
N -12.175600 -19.945900 -43.043200
H -12.147700 -16.350900 -42.825300
C -12.137700 -17.280100 -42.866300
C -12.098600 -19.239100 -44.222500
H -12.082300 -17.364300 -44.838400
N -12.077000 -17.883200 -44.086700
O -12.037900 -19.814500 -45.301800
