22
Fragment
H -33.002400 0.620100 -16.620600
H -32.786000 0.961700 -18.057000
N -32.603000 0.489400 -17.367900
C -31.475800 -0.248800 -17.380200
N -31.133500 -0.860200 -16.246200
H -31.044600 0.021000 -19.247600
N -30.794200 -0.357000 -18.523200
H -30.167200 -2.296500 -14.547900
H -30.066700 -0.793500 -18.542700
N -29.940100 -1.555600 -16.384800
C -29.604800 -2.252000 -15.356800
C -28.375600 -3.003200 -15.380300
N -28.040300 -3.699600 -14.352300
H -27.913700 -4.461700 -12.194400
H -27.813200 -2.958700 -16.189200
N -27.186200 -4.898200 -12.213900
H -26.935800 -5.276200 -11.489500
N -26.846900 -4.395000 -14.490900
C -26.504600 -5.006400 -13.356900
N -25.377400 -5.744600 -13.369200
H -25.194400 -6.216900 -12.680100
H -24.978000 -5.875300 -14.116500
22
Fragment
H -42.665800 -8.502900 -14.116500
H -42.449400 -8.844500 -12.680100
N -42.266400 -8.372200 -13.369200
C -41.139200 -7.634000 -13.356900
N -40.796900 -7.022600 -14.490900
H -40.708000 -7.903800 -11.489500
N -40.457600 -7.525800 -12.213900
H -39.830600 -5.586300 -16.189200
H -39.730100 -7.089300 -12.194400
N -39.603500 -6.327200 -14.352300
C -39.268200 -5.630800 -15.380300
C -38.039000 -4.879600 -15.356800
N -37.703700 -4.183200 -16.384800
H -37.577100 -3.421100 -18.542700
H -37.476600 -4.924100 -14.547900
N -36.849600 -2.984600 -18.523200
H -36.599200 -2.606600 -19.247600
N -36.510300 -3.487800 -16.246200
C -36.168000 -2.876400 -17.380200
N -35.040800 -2.138200 -17.367900
H -34.857800 -1.665900 -18.057000
H -34.641400 -2.007500 -16.620600
44
Fragment
H -33.002400 0.620100 -16.620600
H -32.786000 0.961700 -18.057000
N -32.603000 0.489400 -17.367900
C -31.475800 -0.248800 -17.380200
N -31.133500 -0.860200 -16.246200
H -31.044600 0.021000 -19.247600
N -30.794200 -0.357000 -18.523200
H -30.167200 -2.296500 -14.547900
H -30.066700 -0.793500 -18.542700
N -29.940100 -1.555600 -16.384800
C -29.604800 -2.252000 -15.356800
C -28.375600 -3.003200 -15.380300
N -28.040300 -3.699600 -14.352300
H -27.913700 -4.461700 -12.194400
H -27.813200 -2.958700 -16.189200
N -27.186200 -4.898200 -12.213900
H -26.935800 -5.276200 -11.489500
N -26.846900 -4.395000 -14.490900
C -26.504600 -5.006400 -13.356900
N -25.377400 -5.744600 -13.369200
H -25.194400 -6.216900 -12.680100
H -24.978000 -5.875300 -14.116500
H -42.665800 -8.502900 -14.116500
H -42.449400 -8.844500 -12.680100
N -42.266400 -8.372200 -13.369200
C -41.139200 -7.634000 -13.356900
N -40.796900 -7.022600 -14.490900
H -40.708000 -7.903800 -11.489500
N -40.457600 -7.525800 -12.213900
H -39.830600 -5.586300 -16.189200
H -39.730100 -7.089300 -12.194400
N -39.603500 -6.327200 -14.352300
C -39.268200 -5.630800 -15.380300
C -38.039000 -4.879600 -15.356800
N -37.703700 -4.183200 -16.384800
H -37.577100 -3.421100 -18.542700
H -37.476600 -4.924100 -14.547900
N -36.849600 -2.984600 -18.523200
H -36.599200 -2.606600 -19.247600
N -36.510300 -3.487800 -16.246200
C -36.168000 -2.876400 -17.380200
N -35.040800 -2.138200 -17.367900
H -34.857800 -1.665900 -18.057000
H -34.641400 -2.007500 -16.620600
