6
Fragment
N -9.053700 -6.668100 -20.365900
C -8.131200 -6.600200 -19.688100
H -7.245300 -6.576000 -17.923600
C -6.974600 -6.517600 -18.841500
H -6.527900 -5.681500 -18.991100
H -6.376800 -7.240700 -19.046000
6
Fragment
N -14.420100 -6.668100 -20.365900
C -13.497600 -6.600200 -19.688100
H -12.611700 -6.576000 -17.923600
C -12.341000 -6.517600 -18.841500
H -11.894300 -5.681500 -18.991100
H -11.743200 -7.240700 -19.046000
12
Fragment
N -9.053700 -6.668100 -20.365900
C -8.131200 -6.600200 -19.688100
H -7.245300 -6.576000 -17.923600
C -6.974600 -6.517600 -18.841500
H -6.527900 -5.681500 -18.991100
H -6.376800 -7.240700 -19.046000
N -14.420100 -6.668100 -20.365900
C -13.497600 -6.600200 -19.688100
H -12.611700 -6.576000 -17.923600
C -12.341000 -6.517600 -18.841500
H -11.894300 -5.681500 -18.991100
H -11.743200 -7.240700 -19.046000
