6
Fragment
N -9.053700 -6.668100 -20.365900
C -8.131200 -6.600200 -19.688100
H -7.245300 -6.576000 -17.923600
C -6.974600 -6.517600 -18.841500
H -6.527900 -5.681500 -18.991100
H -6.376800 -7.240700 -19.046000
34
Fragment
H -15.782200 7.248900 -29.842900
H -15.342300 5.323900 -28.525700
C -15.026200 6.718900 -30.026800
C -14.785700 5.598200 -29.272100
H -14.716700 3.344400 -27.263400
O -14.378900 0.987500 -25.609100
H -14.235100 7.868700 -31.503200
C -14.118800 7.087800 -30.990000
C -13.919800 3.091900 -27.636600
C -13.606700 4.873400 -29.486200
C -13.281500 1.106400 -26.163000
C -13.281000 3.710300 -28.689000
C -13.069600 2.051000 -27.256500
C -12.993000 6.306500 -31.164200
H -12.911100 -1.929700 -22.817800
H -12.775800 -3.580700 -21.006700
N -12.723100 5.230400 -30.429800
H -12.366400 6.520100 -31.873600
N -12.257200 -0.550700 -24.823000
C -12.230700 -2.475900 -22.724500
N -12.189200 0.375200 -25.817600
C -12.172800 -3.484100 -21.805200
N -12.111300 3.017200 -28.870200
N -11.967300 2.002000 -28.010900
H -11.642400 3.051400 -29.554800
H -11.444200 0.400700 -26.275500
C -11.236900 -1.309900 -24.693500
C -11.225700 -2.348000 -23.676800
C -11.099200 -4.343700 -21.840900
H -11.061400 -5.143700 -21.130200
H -10.518200 -1.255300 -25.262900
N -10.179900 -3.201100 -23.729400
C -10.142000 -4.169500 -22.817800
H -9.407000 -4.816400 -22.872700
40
Fragment
N -9.053700 -6.668100 -20.365900
C -8.131200 -6.600200 -19.688100
H -7.245300 -6.576000 -17.923600
C -6.974600 -6.517600 -18.841500
H -6.527900 -5.681500 -18.991100
H -6.376800 -7.240700 -19.046000
H -15.782200 7.248900 -29.842900
H -15.342300 5.323900 -28.525700
C -15.026200 6.718900 -30.026800
C -14.785700 5.598200 -29.272100
H -14.716700 3.344400 -27.263400
O -14.378900 0.987500 -25.609100
H -14.235100 7.868700 -31.503200
C -14.118800 7.087800 -30.990000
C -13.919800 3.091900 -27.636600
C -13.606700 4.873400 -29.486200
C -13.281500 1.106400 -26.163000
C -13.281000 3.710300 -28.689000
C -13.069600 2.051000 -27.256500
C -12.993000 6.306500 -31.164200
H -12.911100 -1.929700 -22.817800
H -12.775800 -3.580700 -21.006700
N -12.723100 5.230400 -30.429800
H -12.366400 6.520100 -31.873600
N -12.257200 -0.550700 -24.823000
C -12.230700 -2.475900 -22.724500
N -12.189200 0.375200 -25.817600
C -12.172800 -3.484100 -21.805200
N -12.111300 3.017200 -28.870200
N -11.967300 2.002000 -28.010900
H -11.642400 3.051400 -29.554800
H -11.444200 0.400700 -26.275500
C -11.236900 -1.309900 -24.693500
C -11.225700 -2.348000 -23.676800
C -11.099200 -4.343700 -21.840900
H -11.061400 -5.143700 -21.130200
H -10.518200 -1.255300 -25.262900
N -10.179900 -3.201100 -23.729400
C -10.142000 -4.169500 -22.817800
H -9.407000 -4.816400 -22.872700
