6
Fragment
N -9.053700 -6.668100 -20.365900
C -8.131200 -6.600200 -19.688100
H -7.245300 -6.576000 -17.923600
C -6.974600 -6.517600 -18.841500
H -6.527900 -5.681500 -18.991100
H -6.376800 -7.240700 -19.046000
34
Fragment
H -7.039700 -0.900800 -18.289900
C -6.304700 -1.547700 -18.344800
N -6.266800 -2.516000 -17.433200
H -5.928500 -4.461900 -15.899800
H -5.385300 -0.573500 -20.032500
C -5.347500 -1.373500 -19.321700
C -5.221000 -3.369100 -17.485900
C -5.209800 -4.407300 -16.469200
H -5.002500 -6.117900 -14.887200
H -4.804300 -8.768600 -11.607900
N -4.479400 -7.719100 -13.151700
N -4.335400 -8.734300 -12.292400
C -4.273900 -2.233100 -19.357400
N -4.257500 -6.092400 -15.345000
C -4.216100 -3.241200 -18.438100
N -4.189500 -5.166500 -16.339700
H -4.080300 -12.237200 -9.289000
N -3.723600 -10.947600 -10.732900
H -3.670900 -2.136500 -20.156000
H -3.535600 -3.787500 -18.344800
C -3.453700 -12.023700 -9.998400
C -3.377100 -7.768200 -13.906100
C -3.165800 -9.427500 -12.473700
C -3.165200 -6.823600 -14.999700
C -2.840000 -10.590600 -11.676500
C -2.526900 -8.809000 -13.526000
C -2.328000 -12.805000 -10.172700
H -2.211700 -13.585900 -9.659500
O -2.067800 -6.704700 -15.553600
H -1.730100 -9.061600 -13.899300
C -1.661000 -11.315400 -11.890500
C -1.420500 -12.436100 -11.135900
H -1.104400 -11.041100 -12.636900
H -0.664500 -12.966100 -11.319700
40
Fragment
N -9.053700 -6.668100 -20.365900
C -8.131200 -6.600200 -19.688100
H -7.245300 -6.576000 -17.923600
C -6.974600 -6.517600 -18.841500
H -6.527900 -5.681500 -18.991100
H -6.376800 -7.240700 -19.046000
H -7.039700 -0.900800 -18.289900
C -6.304700 -1.547700 -18.344800
N -6.266800 -2.516000 -17.433200
H -5.928500 -4.461900 -15.899800
H -5.385300 -0.573500 -20.032500
C -5.347500 -1.373500 -19.321700
C -5.221000 -3.369100 -17.485900
C -5.209800 -4.407300 -16.469200
H -5.002500 -6.117900 -14.887200
H -4.804300 -8.768600 -11.607900
N -4.479400 -7.719100 -13.151700
N -4.335400 -8.734300 -12.292400
C -4.273900 -2.233100 -19.357400
N -4.257500 -6.092400 -15.345000
C -4.216100 -3.241200 -18.438100
N -4.189500 -5.166500 -16.339700
H -4.080300 -12.237200 -9.289000
N -3.723600 -10.947600 -10.732900
H -3.670900 -2.136500 -20.156000
H -3.535600 -3.787500 -18.344800
C -3.453700 -12.023700 -9.998400
C -3.377100 -7.768200 -13.906100
C -3.165800 -9.427500 -12.473700
C -3.165200 -6.823600 -14.999700
C -2.840000 -10.590600 -11.676500
C -2.526900 -8.809000 -13.526000
C -2.328000 -12.805000 -10.172700
H -2.211700 -13.585900 -9.659500
O -2.067800 -6.704700 -15.553600
H -1.730100 -9.061600 -13.899300
C -1.661000 -11.315400 -11.890500
C -1.420500 -12.436100 -11.135900
H -1.104400 -11.041100 -12.636900
H -0.664500 -12.966100 -11.319700
