25
Fragment
N -28.448300 -22.684800 -20.526700
N -28.385500 -21.442300 -20.866600
N -27.390900 -22.977400 -19.712700
N -27.253000 -20.908300 -20.355800
H -27.201600 -23.734100 -19.350500
C -26.721900 -21.842100 -19.604400
N -25.561400 -21.709100 -18.827000
H -25.415500 -22.293700 -18.213500
O -24.994900 -19.923400 -22.410400
N -24.852200 -20.670800 -21.454700
O -24.822500 -21.889300 -21.559100
O -24.672100 -21.797500 -16.393200
C -24.656400 -20.713700 -18.986800
C -24.342800 -20.098100 -20.243600
N -24.207100 -20.678200 -16.537100
C -23.933400 -20.155600 -17.880500
O -23.883700 -19.965600 -15.585500
C -23.556500 -18.972100 -20.312600
H -23.447900 -18.549900 -21.134300
C -23.166000 -19.068800 -18.010700
C -22.946100 -18.466700 -19.247100
H -22.767800 -18.704100 -17.254000
N -22.073600 -17.302700 -19.279900
O -21.944800 -16.761400 -20.398200
O -21.670900 -16.860200 -18.240800
25
Fragment
O -23.448500 -18.076100 -28.589000
O -22.778300 -18.180900 -23.825900
H -22.766300 -18.181500 -26.233200
N -22.230700 -18.158500 -28.730500
N -22.093000 -15.350800 -31.272500
C -21.906200 -17.852300 -26.360800
N -21.700900 -15.693400 -30.020700
O -21.672700 -18.631300 -29.730900
N -21.635000 -17.810300 -23.961300
C -21.438400 -17.617300 -27.624000
C -21.102500 -17.600200 -25.292600
N -21.042100 -15.628600 -32.065100
O -20.880100 -17.759200 -22.966100
C -20.496200 -16.178100 -30.140300
C -20.152700 -17.029900 -27.897100
N -20.098700 -16.162200 -31.373800
C -19.835200 -17.126600 -25.430600
N -19.698200 -16.592200 -29.082300
C -19.374100 -16.861000 -26.702700
H -19.345700 -16.452200 -31.672700
H -19.295200 -16.985800 -24.686700
H -18.846100 -16.566000 -29.194700
N -18.020200 -16.355200 -26.783000
O -17.609200 -15.999600 -27.827900
O -17.323200 -16.322200 -25.715600
50
Fragment
N -28.448300 -22.684800 -20.526700
N -28.385500 -21.442300 -20.866600
N -27.390900 -22.977400 -19.712700
N -27.253000 -20.908300 -20.355800
H -27.201600 -23.734100 -19.350500
C -26.721900 -21.842100 -19.604400
N -25.561400 -21.709100 -18.827000
H -25.415500 -22.293700 -18.213500
O -24.994900 -19.923400 -22.410400
N -24.852200 -20.670800 -21.454700
O -24.822500 -21.889300 -21.559100
O -24.672100 -21.797500 -16.393200
C -24.656400 -20.713700 -18.986800
C -24.342800 -20.098100 -20.243600
N -24.207100 -20.678200 -16.537100
C -23.933400 -20.155600 -17.880500
O -23.883700 -19.965600 -15.585500
C -23.556500 -18.972100 -20.312600
H -23.447900 -18.549900 -21.134300
C -23.166000 -19.068800 -18.010700
C -22.946100 -18.466700 -19.247100
H -22.767800 -18.704100 -17.254000
N -22.073600 -17.302700 -19.279900
O -21.944800 -16.761400 -20.398200
O -21.670900 -16.860200 -18.240800
O -23.448500 -18.076100 -28.589000
O -22.778300 -18.180900 -23.825900
H -22.766300 -18.181500 -26.233200
N -22.230700 -18.158500 -28.730500
N -22.093000 -15.350800 -31.272500
C -21.906200 -17.852300 -26.360800
N -21.700900 -15.693400 -30.020700
O -21.672700 -18.631300 -29.730900
N -21.635000 -17.810300 -23.961300
C -21.438400 -17.617300 -27.624000
C -21.102500 -17.600200 -25.292600
N -21.042100 -15.628600 -32.065100
O -20.880100 -17.759200 -22.966100
C -20.496200 -16.178100 -30.140300
C -20.152700 -17.029900 -27.897100
N -20.098700 -16.162200 -31.373800
C -19.835200 -17.126600 -25.430600
N -19.698200 -16.592200 -29.082300
C -19.374100 -16.861000 -26.702700
H -19.345700 -16.452200 -31.672700
H -19.295200 -16.985800 -24.686700
H -18.846100 -16.566000 -29.194700
N -18.020200 -16.355200 -26.783000
O -17.609200 -15.999600 -27.827900
O -17.323200 -16.322200 -25.715600
