25
Fragment
N -28.448300 -22.684800 -20.526700
N -28.385500 -21.442300 -20.866600
N -27.390900 -22.977400 -19.712700
N -27.253000 -20.908300 -20.355800
H -27.201600 -23.734100 -19.350500
C -26.721900 -21.842100 -19.604400
N -25.561400 -21.709100 -18.827000
H -25.415500 -22.293700 -18.213500
O -24.994900 -19.923400 -22.410400
N -24.852200 -20.670800 -21.454700
O -24.822500 -21.889300 -21.559100
O -24.672100 -21.797500 -16.393200
C -24.656400 -20.713700 -18.986800
C -24.342800 -20.098100 -20.243600
N -24.207100 -20.678200 -16.537100
C -23.933400 -20.155600 -17.880500
O -23.883700 -19.965600 -15.585500
C -23.556500 -18.972100 -20.312600
H -23.447900 -18.549900 -21.134300
C -23.166000 -19.068800 -18.010700
C -22.946100 -18.466700 -19.247100
H -22.767800 -18.704100 -17.254000
N -22.073600 -17.302700 -19.279900
O -21.944800 -16.761400 -20.398200
O -21.670900 -16.860200 -18.240800
25
Fragment
O -24.304000 -20.393300 -12.564200
O -24.017900 -20.715900 -10.451900
N -23.607000 -20.360300 -11.496800
H -22.781000 -20.149500 -9.085100
H -22.332000 -19.729700 -13.593200
H -22.281400 -20.263300 -6.607100
C -22.253000 -19.854500 -11.577100
N -21.928900 -20.123300 -9.197500
C -21.791900 -19.588900 -12.849300
N -21.528400 -20.553300 -6.906100
C -21.474400 -19.685600 -10.382800
C -21.130900 -20.537400 -8.139600
O -20.747100 -18.956300 -15.313700
N -20.585000 -21.086900 -6.214700
C -20.524600 -19.115300 -12.987200
C -20.188800 -19.098200 -10.655800
N -19.992100 -18.905200 -14.318600
O -19.954400 -18.084200 -8.548900
N -19.926300 -21.022100 -8.259100
C -19.720900 -18.863200 -11.919100
N -19.534200 -21.364700 -7.007400
N -19.396500 -18.557000 -9.549300
H -18.860900 -18.534000 -12.046700
O -18.848800 -18.534600 -14.454000
O -18.178700 -18.639400 -9.690800
50
Fragment
N -28.448300 -22.684800 -20.526700
N -28.385500 -21.442300 -20.866600
N -27.390900 -22.977400 -19.712700
N -27.253000 -20.908300 -20.355800
H -27.201600 -23.734100 -19.350500
C -26.721900 -21.842100 -19.604400
N -25.561400 -21.709100 -18.827000
H -25.415500 -22.293700 -18.213500
O -24.994900 -19.923400 -22.410400
N -24.852200 -20.670800 -21.454700
O -24.822500 -21.889300 -21.559100
O -24.672100 -21.797500 -16.393200
C -24.656400 -20.713700 -18.986800
C -24.342800 -20.098100 -20.243600
N -24.207100 -20.678200 -16.537100
C -23.933400 -20.155600 -17.880500
O -23.883700 -19.965600 -15.585500
C -23.556500 -18.972100 -20.312600
H -23.447900 -18.549900 -21.134300
C -23.166000 -19.068800 -18.010700
C -22.946100 -18.466700 -19.247100
H -22.767800 -18.704100 -17.254000
N -22.073600 -17.302700 -19.279900
O -21.944800 -16.761400 -20.398200
O -21.670900 -16.860200 -18.240800
O -24.304000 -20.393300 -12.564200
O -24.017900 -20.715900 -10.451900
N -23.607000 -20.360300 -11.496800
H -22.781000 -20.149500 -9.085100
H -22.332000 -19.729700 -13.593200
H -22.281400 -20.263300 -6.607100
C -22.253000 -19.854500 -11.577100
N -21.928900 -20.123300 -9.197500
C -21.791900 -19.588900 -12.849300
N -21.528400 -20.553300 -6.906100
C -21.474400 -19.685600 -10.382800
C -21.130900 -20.537400 -8.139600
O -20.747100 -18.956300 -15.313700
N -20.585000 -21.086900 -6.214700
C -20.524600 -19.115300 -12.987200
C -20.188800 -19.098200 -10.655800
N -19.992100 -18.905200 -14.318600
O -19.954400 -18.084200 -8.548900
N -19.926300 -21.022100 -8.259100
C -19.720900 -18.863200 -11.919100
N -19.534200 -21.364700 -7.007400
N -19.396500 -18.557000 -9.549300
H -18.860900 -18.534000 -12.046700
O -18.848800 -18.534600 -14.454000
O -18.178700 -18.639400 -9.690800
