40
Fragment
H -5.493500 -8.953900 -23.140000
C -4.749500 -9.513100 -23.109300
H -4.646600 -10.300500 -24.954100
C -4.276600 -10.260100 -24.101100
H -3.964400 -9.343500 -21.147400
C -3.895300 -9.733800 -21.989100
O -3.174300 -10.959800 -23.698900
C -2.970700 -10.620500 -22.393700
C -1.887400 -11.311500 -21.712100
N -1.579200 -11.059500 -20.409500
N -1.176600 -12.246500 -22.317000
H -0.767500 -11.914200 -14.125200
C -0.585700 -11.919900 -20.163500
H -0.490600 -11.484700 -11.878700
N -0.341000 -12.635200 -21.293200
H -0.175100 -13.064200 -16.135700
C -0.006700 -12.230200 -13.694300
N 0.107600 -12.096400 -19.037100
C 0.155900 -11.965700 -12.342200
H 0.327400 -14.080700 -23.082300
C 0.637600 -13.590700 -21.336200
C 0.730700 -13.299000 -15.876800
H 0.828800 -14.257800 -15.984700
N 0.835200 -14.250500 -22.459700
H 0.883000 -11.742300 -9.949300
C 0.924800 -12.950900 -14.426000
C 1.060500 -13.043100 -19.142500
C 1.293100 -12.425300 -11.685000
N 1.338700 -13.806200 -20.236800
H 1.400800 -11.689500 -16.960400
H 1.458700 -14.857700 -22.537500
O 1.519700 -12.229600 -10.361000
C 1.703800 -12.598000 -16.807300
N 1.824100 -13.282700 -18.078600
C 2.074100 -13.384000 -13.745500
C 2.255300 -13.128100 -12.401000
H 2.439000 -13.898600 -18.136500
H 2.575500 -12.554600 -16.384100
H 2.727400 -13.854900 -14.210300
H 3.024600 -13.425600 -11.972100
40
Fragment
H 2.422400 -14.832500 -9.416800
C 3.166400 -15.391700 -9.386200
H 3.269200 -16.179100 -11.231000
C 3.639200 -16.138700 -10.378000
H 3.951500 -15.222100 -7.424200
C 4.020500 -15.612400 -8.266000
O 4.741600 -16.838400 -9.975800
C 4.945100 -16.499100 -8.670600
C 6.028400 -17.190100 -7.988900
N 6.336700 -16.938100 -6.686300
N 6.739300 -18.125100 -8.593800
H 7.148400 -17.792800 -0.402100
C 7.330100 -17.798500 -6.440400
H 7.425200 -17.363200 1.844400
N 7.574800 -18.513800 -7.570100
H 7.740800 -18.942800 -2.412500
C 7.909200 -18.108800 0.028800
N 8.023400 -17.975000 -5.314000
C 8.071700 -17.844300 1.381000
H 8.243300 -19.959300 -9.359200
C 8.553500 -19.469300 -7.613000
C 8.646500 -19.177600 -2.153700
H 8.744600 -20.136400 -2.261600
N 8.751100 -20.129100 -8.736600
H 8.798800 -17.620900 3.773900
C 8.840700 -18.829500 -0.702900
C 8.976300 -18.921700 -5.419400
C 9.209000 -18.303900 2.038200
N 9.254600 -19.684800 -6.513700
H 9.316600 -17.568100 -3.237300
H 9.374500 -20.736300 -8.814400
O 9.435500 -18.108200 3.362200
C 9.619700 -18.476600 -3.084100
N 9.739900 -19.161300 -4.355400
C 9.989900 -19.262600 -0.022400
C 10.171100 -19.006700 1.322100
H 10.354800 -19.777200 -4.413400
H 10.491400 -18.433200 -2.660900
H 10.643200 -19.733500 -0.487200
H 10.940500 -19.304200 1.751100
80
Fragment
H -5.493500 -8.953900 -23.140000
C -4.749500 -9.513100 -23.109300
H -4.646600 -10.300500 -24.954100
C -4.276600 -10.260100 -24.101100
H -3.964400 -9.343500 -21.147400
C -3.895300 -9.733800 -21.989100
O -3.174300 -10.959800 -23.698900
C -2.970700 -10.620500 -22.393700
C -1.887400 -11.311500 -21.712100
N -1.579200 -11.059500 -20.409500
N -1.176600 -12.246500 -22.317000
H -0.767500 -11.914200 -14.125200
C -0.585700 -11.919900 -20.163500
H -0.490600 -11.484700 -11.878700
N -0.341000 -12.635200 -21.293200
H -0.175100 -13.064200 -16.135700
C -0.006700 -12.230200 -13.694300
N 0.107600 -12.096400 -19.037100
C 0.155900 -11.965700 -12.342200
H 0.327400 -14.080700 -23.082300
C 0.637600 -13.590700 -21.336200
C 0.730700 -13.299000 -15.876800
H 0.828800 -14.257800 -15.984700
N 0.835200 -14.250500 -22.459700
H 0.883000 -11.742300 -9.949300
C 0.924800 -12.950900 -14.426000
C 1.060500 -13.043100 -19.142500
C 1.293100 -12.425300 -11.685000
N 1.338700 -13.806200 -20.236800
H 1.400800 -11.689500 -16.960400
H 1.458700 -14.857700 -22.537500
O 1.519700 -12.229600 -10.361000
C 1.703800 -12.598000 -16.807300
N 1.824100 -13.282700 -18.078600
C 2.074100 -13.384000 -13.745500
C 2.255300 -13.128100 -12.401000
H 2.439000 -13.898600 -18.136500
H 2.575500 -12.554600 -16.384100
H 2.727400 -13.854900 -14.210300
H 3.024600 -13.425600 -11.972100
H 2.422400 -14.832500 -9.416800
C 3.166400 -15.391700 -9.386200
H 3.269200 -16.179100 -11.231000
C 3.639200 -16.138700 -10.378000
H 3.951500 -15.222100 -7.424200
C 4.020500 -15.612400 -8.266000
O 4.741600 -16.838400 -9.975800
C 4.945100 -16.499100 -8.670600
C 6.028400 -17.190100 -7.988900
N 6.336700 -16.938100 -6.686300
N 6.739300 -18.125100 -8.593800
H 7.148400 -17.792800 -0.402100
C 7.330100 -17.798500 -6.440400
H 7.425200 -17.363200 1.844400
N 7.574800 -18.513800 -7.570100
H 7.740800 -18.942800 -2.412500
C 7.909200 -18.108800 0.028800
N 8.023400 -17.975000 -5.314000
C 8.071700 -17.844300 1.381000
H 8.243300 -19.959300 -9.359200
C 8.553500 -19.469300 -7.613000
C 8.646500 -19.177600 -2.153700
H 8.744600 -20.136400 -2.261600
N 8.751100 -20.129100 -8.736600
H 8.798800 -17.620900 3.773900
C 8.840700 -18.829500 -0.702900
C 8.976300 -18.921700 -5.419400
C 9.209000 -18.303900 2.038200
N 9.254600 -19.684800 -6.513700
H 9.316600 -17.568100 -3.237300
H 9.374500 -20.736300 -8.814400
O 9.435500 -18.108200 3.362200
C 9.619700 -18.476600 -3.084100
N 9.739900 -19.161300 -4.355400
C 9.989900 -19.262600 -0.022400
C 10.171100 -19.006700 1.322100
H 10.354800 -19.777200 -4.413400
H 10.491400 -18.433200 -2.660900
H 10.643200 -19.733500 -0.487200
H 10.940500 -19.304200 1.751100
