40
Fragment
H -5.493500 -8.953900 -23.140000
C -4.749500 -9.513100 -23.109300
H -4.646600 -10.300500 -24.954100
C -4.276600 -10.260100 -24.101100
H -3.964400 -9.343500 -21.147400
C -3.895300 -9.733800 -21.989100
O -3.174300 -10.959800 -23.698900
C -2.970700 -10.620500 -22.393700
C -1.887400 -11.311500 -21.712100
N -1.579200 -11.059500 -20.409500
N -1.176600 -12.246500 -22.317000
H -0.767500 -11.914200 -14.125200
C -0.585700 -11.919900 -20.163500
H -0.490600 -11.484700 -11.878700
N -0.341000 -12.635200 -21.293200
H -0.175100 -13.064200 -16.135700
C -0.006700 -12.230200 -13.694300
N 0.107600 -12.096400 -19.037100
C 0.155900 -11.965700 -12.342200
H 0.327400 -14.080700 -23.082300
C 0.637600 -13.590700 -21.336200
C 0.730700 -13.299000 -15.876800
H 0.828800 -14.257800 -15.984700
N 0.835200 -14.250500 -22.459700
H 0.883000 -11.742300 -9.949300
C 0.924800 -12.950900 -14.426000
C 1.060500 -13.043100 -19.142500
C 1.293100 -12.425300 -11.685000
N 1.338700 -13.806200 -20.236800
H 1.400800 -11.689500 -16.960400
H 1.458700 -14.857700 -22.537500
O 1.519700 -12.229600 -10.361000
C 1.703800 -12.598000 -16.807300
N 1.824100 -13.282700 -18.078600
C 2.074100 -13.384000 -13.745500
C 2.255300 -13.128100 -12.401000
H 2.439000 -13.898600 -18.136500
H 2.575500 -12.554600 -16.384100
H 2.727400 -13.854900 -14.210300
H 3.024600 -13.425600 -11.972100
40
Fragment
H -14.008200 -6.682300 -35.345300
C -13.254100 -7.224800 -35.291900
H -12.830700 -7.448400 -33.226500
H -12.799600 -7.628400 -37.203400
C -12.594300 -7.653700 -34.101900
C -12.584100 -7.750500 -36.307400
C -11.561400 -8.416700 -34.501700
O -11.527100 -8.501400 -35.855000
N -10.540100 -9.183200 -32.387600
C -10.536700 -9.122100 -33.752100
N -9.541200 -9.745400 -34.364900
C -9.444200 -9.885800 -32.111900
N -8.944200 -10.256600 -30.926000
H -8.851700 -10.568600 -21.778600
N -8.836600 -10.218200 -33.277200
H -8.686100 -9.348700 -23.820600
O -8.545700 -11.393900 -22.178400
H -8.399600 -11.647400 -28.423400
C -8.289500 -10.098800 -24.201400
C -8.174700 -11.283100 -23.469000
H -8.126300 -10.101900 -28.498800
H -7.872400 -9.255100 -25.975200
C -7.807100 -10.050400 -25.496600
C -7.741200 -10.851200 -31.014300
C -7.711700 -10.976700 -28.558100
C -7.660800 -10.926100 -33.309300
C -7.639200 -12.414200 -24.082200
H -7.629500 -11.151000 -35.144900
H -7.598200 -13.217400 -23.616100
C -7.224900 -11.162500 -26.103600
N -7.185400 -11.286200 -34.461000
C -7.173300 -12.345400 -25.374800
N -7.110700 -11.146300 -29.868700
N -7.070300 -11.192600 -32.150700
H -6.816100 -13.107300 -25.770700
C -6.644200 -11.113700 -27.485500
H -6.526100 -11.774500 -34.486200
H -6.304300 -11.506300 -29.889000
H -6.136200 -11.923800 -27.645300
H -6.034200 -10.361900 -27.546400
80
Fragment
H -5.493500 -8.953900 -23.140000
C -4.749500 -9.513100 -23.109300
H -4.646600 -10.300500 -24.954100
C -4.276600 -10.260100 -24.101100
H -3.964400 -9.343500 -21.147400
C -3.895300 -9.733800 -21.989100
O -3.174300 -10.959800 -23.698900
C -2.970700 -10.620500 -22.393700
C -1.887400 -11.311500 -21.712100
N -1.579200 -11.059500 -20.409500
N -1.176600 -12.246500 -22.317000
H -0.767500 -11.914200 -14.125200
C -0.585700 -11.919900 -20.163500
H -0.490600 -11.484700 -11.878700
N -0.341000 -12.635200 -21.293200
H -0.175100 -13.064200 -16.135700
C -0.006700 -12.230200 -13.694300
N 0.107600 -12.096400 -19.037100
C 0.155900 -11.965700 -12.342200
H 0.327400 -14.080700 -23.082300
C 0.637600 -13.590700 -21.336200
C 0.730700 -13.299000 -15.876800
H 0.828800 -14.257800 -15.984700
N 0.835200 -14.250500 -22.459700
H 0.883000 -11.742300 -9.949300
C 0.924800 -12.950900 -14.426000
C 1.060500 -13.043100 -19.142500
C 1.293100 -12.425300 -11.685000
N 1.338700 -13.806200 -20.236800
H 1.400800 -11.689500 -16.960400
H 1.458700 -14.857700 -22.537500
O 1.519700 -12.229600 -10.361000
C 1.703800 -12.598000 -16.807300
N 1.824100 -13.282700 -18.078600
C 2.074100 -13.384000 -13.745500
C 2.255300 -13.128100 -12.401000
H 2.439000 -13.898600 -18.136500
H 2.575500 -12.554600 -16.384100
H 2.727400 -13.854900 -14.210300
H 3.024600 -13.425600 -11.972100
H -14.008200 -6.682300 -35.345300
C -13.254100 -7.224800 -35.291900
H -12.830700 -7.448400 -33.226500
H -12.799600 -7.628400 -37.203400
C -12.594300 -7.653700 -34.101900
C -12.584100 -7.750500 -36.307400
C -11.561400 -8.416700 -34.501700
O -11.527100 -8.501400 -35.855000
N -10.540100 -9.183200 -32.387600
C -10.536700 -9.122100 -33.752100
N -9.541200 -9.745400 -34.364900
C -9.444200 -9.885800 -32.111900
N -8.944200 -10.256600 -30.926000
H -8.851700 -10.568600 -21.778600
N -8.836600 -10.218200 -33.277200
H -8.686100 -9.348700 -23.820600
O -8.545700 -11.393900 -22.178400
H -8.399600 -11.647400 -28.423400
C -8.289500 -10.098800 -24.201400
C -8.174700 -11.283100 -23.469000
H -8.126300 -10.101900 -28.498800
H -7.872400 -9.255100 -25.975200
C -7.807100 -10.050400 -25.496600
C -7.741200 -10.851200 -31.014300
C -7.711700 -10.976700 -28.558100
C -7.660800 -10.926100 -33.309300
C -7.639200 -12.414200 -24.082200
H -7.629500 -11.151000 -35.144900
H -7.598200 -13.217400 -23.616100
C -7.224900 -11.162500 -26.103600
N -7.185400 -11.286200 -34.461000
C -7.173300 -12.345400 -25.374800
N -7.110700 -11.146300 -29.868700
N -7.070300 -11.192600 -32.150700
H -6.816100 -13.107300 -25.770700
C -6.644200 -11.113700 -27.485500
H -6.526100 -11.774500 -34.486200
H -6.304300 -11.506300 -29.889000
H -6.136200 -11.923800 -27.645300
H -6.034200 -10.361900 -27.546400
