40
Fragment
H -5.493500 -8.953900 -23.140000
C -4.749500 -9.513100 -23.109300
H -4.646600 -10.300500 -24.954100
C -4.276600 -10.260100 -24.101100
H -3.964400 -9.343500 -21.147400
C -3.895300 -9.733800 -21.989100
O -3.174300 -10.959800 -23.698900
C -2.970700 -10.620500 -22.393700
C -1.887400 -11.311500 -21.712100
N -1.579200 -11.059500 -20.409500
N -1.176600 -12.246500 -22.317000
H -0.767500 -11.914200 -14.125200
C -0.585700 -11.919900 -20.163500
H -0.490600 -11.484700 -11.878700
N -0.341000 -12.635200 -21.293200
H -0.175100 -13.064200 -16.135700
C -0.006700 -12.230200 -13.694300
N 0.107600 -12.096400 -19.037100
C 0.155900 -11.965700 -12.342200
H 0.327400 -14.080700 -23.082300
C 0.637600 -13.590700 -21.336200
C 0.730700 -13.299000 -15.876800
H 0.828800 -14.257800 -15.984700
N 0.835200 -14.250500 -22.459700
H 0.883000 -11.742300 -9.949300
C 0.924800 -12.950900 -14.426000
C 1.060500 -13.043100 -19.142500
C 1.293100 -12.425300 -11.685000
N 1.338700 -13.806200 -20.236800
H 1.400800 -11.689500 -16.960400
H 1.458700 -14.857700 -22.537500
O 1.519700 -12.229600 -10.361000
C 1.703800 -12.598000 -16.807300
N 1.824100 -13.282700 -18.078600
C 2.074100 -13.384000 -13.745500
C 2.255300 -13.128100 -12.401000
H 2.439000 -13.898600 -18.136500
H 2.575500 -12.554600 -16.384100
H 2.727400 -13.854900 -14.210300
H 3.024600 -13.425600 -11.972100
3
Fragment
H 3.246300 -11.224000 -9.949300
O 3.933900 -10.915400 -9.786700
H 3.969100 -10.223300 -10.278600
43
Fragment
H -5.493500 -8.953900 -23.140000
C -4.749500 -9.513100 -23.109300
H -4.646600 -10.300500 -24.954100
C -4.276600 -10.260100 -24.101100
H -3.964400 -9.343500 -21.147400
C -3.895300 -9.733800 -21.989100
O -3.174300 -10.959800 -23.698900
C -2.970700 -10.620500 -22.393700
C -1.887400 -11.311500 -21.712100
N -1.579200 -11.059500 -20.409500
N -1.176600 -12.246500 -22.317000
H -0.767500 -11.914200 -14.125200
C -0.585700 -11.919900 -20.163500
H -0.490600 -11.484700 -11.878700
N -0.341000 -12.635200 -21.293200
H -0.175100 -13.064200 -16.135700
C -0.006700 -12.230200 -13.694300
N 0.107600 -12.096400 -19.037100
C 0.155900 -11.965700 -12.342200
H 0.327400 -14.080700 -23.082300
C 0.637600 -13.590700 -21.336200
C 0.730700 -13.299000 -15.876800
H 0.828800 -14.257800 -15.984700
N 0.835200 -14.250500 -22.459700
H 0.883000 -11.742300 -9.949300
C 0.924800 -12.950900 -14.426000
C 1.060500 -13.043100 -19.142500
C 1.293100 -12.425300 -11.685000
N 1.338700 -13.806200 -20.236800
H 1.400800 -11.689500 -16.960400
H 1.458700 -14.857700 -22.537500
O 1.519700 -12.229600 -10.361000
C 1.703800 -12.598000 -16.807300
N 1.824100 -13.282700 -18.078600
C 2.074100 -13.384000 -13.745500
C 2.255300 -13.128100 -12.401000
H 2.439000 -13.898600 -18.136500
H 2.575500 -12.554600 -16.384100
H 2.727400 -13.854900 -14.210300
H 3.024600 -13.425600 -11.972100
H 3.246300 -11.224000 -9.949300
O 3.933900 -10.915400 -9.786700
H 3.969100 -10.223300 -10.278600
