40
Fragment
H -5.493500 -8.953900 -23.140000
C -4.749500 -9.513100 -23.109300
H -4.646600 -10.300500 -24.954100
C -4.276600 -10.260100 -24.101100
H -3.964400 -9.343500 -21.147400
C -3.895300 -9.733800 -21.989100
O -3.174300 -10.959800 -23.698900
C -2.970700 -10.620500 -22.393700
C -1.887400 -11.311500 -21.712100
N -1.579200 -11.059500 -20.409500
N -1.176600 -12.246500 -22.317000
H -0.767500 -11.914200 -14.125200
C -0.585700 -11.919900 -20.163500
H -0.490600 -11.484700 -11.878700
N -0.341000 -12.635200 -21.293200
H -0.175100 -13.064200 -16.135700
C -0.006700 -12.230200 -13.694300
N 0.107600 -12.096400 -19.037100
C 0.155900 -11.965700 -12.342200
H 0.327400 -14.080700 -23.082300
C 0.637600 -13.590700 -21.336200
C 0.730700 -13.299000 -15.876800
H 0.828800 -14.257800 -15.984700
N 0.835200 -14.250500 -22.459700
H 0.883000 -11.742300 -9.949300
C 0.924800 -12.950900 -14.426000
C 1.060500 -13.043100 -19.142500
C 1.293100 -12.425300 -11.685000
N 1.338700 -13.806200 -20.236800
H 1.400800 -11.689500 -16.960400
H 1.458700 -14.857700 -22.537500
O 1.519700 -12.229600 -10.361000
C 1.703800 -12.598000 -16.807300
N 1.824100 -13.282700 -18.078600
C 2.074100 -13.384000 -13.745500
C 2.255300 -13.128100 -12.401000
H 2.439000 -13.898600 -18.136500
H 2.575500 -12.554600 -16.384100
H 2.727400 -13.854900 -14.210300
H 3.024600 -13.425600 -11.972100
40
Fragment
H -4.849900 -9.927200 -13.623000
H -4.747900 -8.365300 -13.524100
H -4.579900 -8.782800 -11.280400
H -4.358000 -8.514600 -6.683200
C -4.239900 -9.175400 -13.683900
H -4.068000 -7.181700 -15.398700
N -3.813800 -9.096500 -9.018700
N -3.773400 -9.142800 -11.300700
C -3.710800 -7.943700 -15.794600
N -3.698700 -9.002900 -6.708400
C -3.659300 -9.126500 -15.065800
H -3.286000 -7.071700 -17.553300
H -3.254600 -9.138100 -6.024500
C -3.244900 -7.874900 -17.087200
C -3.223300 -9.363000 -7.860100
C -3.172400 -9.312400 -12.611300
C -3.142900 -9.437900 -10.155100
C -3.077100 -10.238600 -15.672800
H -3.011700 -11.034000 -15.194300
H -2.757900 -10.187200 -12.670600
C -2.709400 -9.006000 -17.700400
C -2.594700 -10.190300 -16.968000
H -2.484600 -8.641700 -12.746000
O -2.338400 -8.895200 -18.991000
H -2.198000 -10.940300 -17.348800
N -2.047500 -10.070900 -7.892200
H -2.032500 -9.720500 -19.390800
N -1.939900 -10.032500 -10.243400
C -1.439900 -10.403300 -9.057500
N -1.342900 -10.543700 -6.804500
C -0.347400 -11.166900 -7.417400
N -0.344000 -11.105900 -8.781800
O 0.643000 -11.787600 -5.314400
C 0.677300 -11.872400 -6.667700
C 1.700000 -12.538600 -4.862000
C 1.710100 -12.635400 -7.067600
H 1.915500 -12.660700 -3.966000
H 1.946600 -12.840700 -7.943000
C 2.370000 -13.064300 -5.877500
H 3.124000 -13.606800 -5.824100
80
Fragment
H -5.493500 -8.953900 -23.140000
C -4.749500 -9.513100 -23.109300
H -4.646600 -10.300500 -24.954100
C -4.276600 -10.260100 -24.101100
H -3.964400 -9.343500 -21.147400
C -3.895300 -9.733800 -21.989100
O -3.174300 -10.959800 -23.698900
C -2.970700 -10.620500 -22.393700
C -1.887400 -11.311500 -21.712100
N -1.579200 -11.059500 -20.409500
N -1.176600 -12.246500 -22.317000
H -0.767500 -11.914200 -14.125200
C -0.585700 -11.919900 -20.163500
H -0.490600 -11.484700 -11.878700
N -0.341000 -12.635200 -21.293200
H -0.175100 -13.064200 -16.135700
C -0.006700 -12.230200 -13.694300
N 0.107600 -12.096400 -19.037100
C 0.155900 -11.965700 -12.342200
H 0.327400 -14.080700 -23.082300
C 0.637600 -13.590700 -21.336200
C 0.730700 -13.299000 -15.876800
H 0.828800 -14.257800 -15.984700
N 0.835200 -14.250500 -22.459700
H 0.883000 -11.742300 -9.949300
C 0.924800 -12.950900 -14.426000
C 1.060500 -13.043100 -19.142500
C 1.293100 -12.425300 -11.685000
N 1.338700 -13.806200 -20.236800
H 1.400800 -11.689500 -16.960400
H 1.458700 -14.857700 -22.537500
O 1.519700 -12.229600 -10.361000
C 1.703800 -12.598000 -16.807300
N 1.824100 -13.282700 -18.078600
C 2.074100 -13.384000 -13.745500
C 2.255300 -13.128100 -12.401000
H 2.439000 -13.898600 -18.136500
H 2.575500 -12.554600 -16.384100
H 2.727400 -13.854900 -14.210300
H 3.024600 -13.425600 -11.972100
H -4.849900 -9.927200 -13.623000
H -4.747900 -8.365300 -13.524100
H -4.579900 -8.782800 -11.280400
H -4.358000 -8.514600 -6.683200
C -4.239900 -9.175400 -13.683900
H -4.068000 -7.181700 -15.398700
N -3.813800 -9.096500 -9.018700
N -3.773400 -9.142800 -11.300700
C -3.710800 -7.943700 -15.794600
N -3.698700 -9.002900 -6.708400
C -3.659300 -9.126500 -15.065800
H -3.286000 -7.071700 -17.553300
H -3.254600 -9.138100 -6.024500
C -3.244900 -7.874900 -17.087200
C -3.223300 -9.363000 -7.860100
C -3.172400 -9.312400 -12.611300
C -3.142900 -9.437900 -10.155100
C -3.077100 -10.238600 -15.672800
H -3.011700 -11.034000 -15.194300
H -2.757900 -10.187200 -12.670600
C -2.709400 -9.006000 -17.700400
C -2.594700 -10.190300 -16.968000
H -2.484600 -8.641700 -12.746000
O -2.338400 -8.895200 -18.991000
H -2.198000 -10.940300 -17.348800
N -2.047500 -10.070900 -7.892200
H -2.032500 -9.720500 -19.390800
N -1.939900 -10.032500 -10.243400
C -1.439900 -10.403300 -9.057500
N -1.342900 -10.543700 -6.804500
C -0.347400 -11.166900 -7.417400
N -0.344000 -11.105900 -8.781800
O 0.643000 -11.787600 -5.314400
C 0.677300 -11.872400 -6.667700
C 1.700000 -12.538600 -4.862000
C 1.710100 -12.635400 -7.067600
H 1.915500 -12.660700 -3.966000
H 1.946600 -12.840700 -7.943000
C 2.370000 -13.064300 -5.877500
H 3.124000 -13.606800 -5.824100
