40
Fragment
H -5.493500 -8.953900 -23.140000
C -4.749500 -9.513100 -23.109300
H -4.646600 -10.300500 -24.954100
C -4.276600 -10.260100 -24.101100
H -3.964400 -9.343500 -21.147400
C -3.895300 -9.733800 -21.989100
O -3.174300 -10.959800 -23.698900
C -2.970700 -10.620500 -22.393700
C -1.887400 -11.311500 -21.712100
N -1.579200 -11.059500 -20.409500
N -1.176600 -12.246500 -22.317000
H -0.767500 -11.914200 -14.125200
C -0.585700 -11.919900 -20.163500
H -0.490600 -11.484700 -11.878700
N -0.341000 -12.635200 -21.293200
H -0.175100 -13.064200 -16.135700
C -0.006700 -12.230200 -13.694300
N 0.107600 -12.096400 -19.037100
C 0.155900 -11.965700 -12.342200
H 0.327400 -14.080700 -23.082300
C 0.637600 -13.590700 -21.336200
C 0.730700 -13.299000 -15.876800
H 0.828800 -14.257800 -15.984700
N 0.835200 -14.250500 -22.459700
H 0.883000 -11.742300 -9.949300
C 0.924800 -12.950900 -14.426000
C 1.060500 -13.043100 -19.142500
C 1.293100 -12.425300 -11.685000
N 1.338700 -13.806200 -20.236800
H 1.400800 -11.689500 -16.960400
H 1.458700 -14.857700 -22.537500
O 1.519700 -12.229600 -10.361000
C 1.703800 -12.598000 -16.807300
N 1.824100 -13.282700 -18.078600
C 2.074100 -13.384000 -13.745500
C 2.255300 -13.128100 -12.401000
H 2.439000 -13.898600 -18.136500
H 2.575500 -12.554600 -16.384100
H 2.727400 -13.854900 -14.210300
H 3.024600 -13.425600 -11.972100
40
Fragment
H -3.057900 -6.863500 -29.197300
H -2.760700 -6.434200 -26.959100
H -2.608800 -7.734500 -24.785400
H -2.472300 -6.390500 -23.032900
C -2.288600 -7.161000 -28.768400
C -2.107400 -6.905100 -27.423900
N -1.857400 -7.006400 -23.090800
C -1.737200 -7.691000 -24.362100
O -1.553000 -8.059400 -30.808400
H -1.492000 -5.431400 -18.631900
H -1.434100 -8.599600 -24.209000
N -1.372100 -6.482900 -20.932600
C -1.326400 -7.863800 -29.484400
C -1.093800 -7.246000 -22.026900
C -0.958200 -7.338200 -26.743400
H -0.916300 -8.546800 -31.220100
N -0.868500 -6.038600 -18.709700
H -0.862100 -6.031300 -25.184700
C -0.764000 -6.990100 -25.292600
C -0.670900 -6.698400 -19.833200
H -0.360800 -6.208400 -18.087100
C -0.189200 -8.323300 -28.827200
N -0.140900 -8.192700 -22.132300
C -0.026700 -8.058900 -27.475100
H 0.141700 -7.224800 -25.033700
N 0.307700 -7.653900 -19.876200
H 0.457300 -8.804400 -29.290700
C 0.552400 -8.369100 -21.005900
H 0.734200 -8.374900 -27.044200
N 1.143300 -8.042600 -18.852400
N 1.545900 -9.229600 -20.759900
C 1.854100 -8.977600 -19.457300
C 2.937400 -9.668600 -18.775700
O 3.141000 -9.329200 -17.470500
C 3.862000 -10.555300 -19.180300
H 3.931000 -10.945600 -20.022100
C 4.243300 -10.029000 -17.068300
H 4.613300 -9.988600 -16.215300
C 4.716200 -10.776000 -18.060100
H 5.460200 -11.335200 -18.029500
80
Fragment
H -5.493500 -8.953900 -23.140000
C -4.749500 -9.513100 -23.109300
H -4.646600 -10.300500 -24.954100
C -4.276600 -10.260100 -24.101100
H -3.964400 -9.343500 -21.147400
C -3.895300 -9.733800 -21.989100
O -3.174300 -10.959800 -23.698900
C -2.970700 -10.620500 -22.393700
C -1.887400 -11.311500 -21.712100
N -1.579200 -11.059500 -20.409500
N -1.176600 -12.246500 -22.317000
H -0.767500 -11.914200 -14.125200
C -0.585700 -11.919900 -20.163500
H -0.490600 -11.484700 -11.878700
N -0.341000 -12.635200 -21.293200
H -0.175100 -13.064200 -16.135700
C -0.006700 -12.230200 -13.694300
N 0.107600 -12.096400 -19.037100
C 0.155900 -11.965700 -12.342200
H 0.327400 -14.080700 -23.082300
C 0.637600 -13.590700 -21.336200
C 0.730700 -13.299000 -15.876800
H 0.828800 -14.257800 -15.984700
N 0.835200 -14.250500 -22.459700
H 0.883000 -11.742300 -9.949300
C 0.924800 -12.950900 -14.426000
C 1.060500 -13.043100 -19.142500
C 1.293100 -12.425300 -11.685000
N 1.338700 -13.806200 -20.236800
H 1.400800 -11.689500 -16.960400
H 1.458700 -14.857700 -22.537500
O 1.519700 -12.229600 -10.361000
C 1.703800 -12.598000 -16.807300
N 1.824100 -13.282700 -18.078600
C 2.074100 -13.384000 -13.745500
C 2.255300 -13.128100 -12.401000
H 2.439000 -13.898600 -18.136500
H 2.575500 -12.554600 -16.384100
H 2.727400 -13.854900 -14.210300
H 3.024600 -13.425600 -11.972100
H -3.057900 -6.863500 -29.197300
H -2.760700 -6.434200 -26.959100
H -2.608800 -7.734500 -24.785400
H -2.472300 -6.390500 -23.032900
C -2.288600 -7.161000 -28.768400
C -2.107400 -6.905100 -27.423900
N -1.857400 -7.006400 -23.090800
C -1.737200 -7.691000 -24.362100
O -1.553000 -8.059400 -30.808400
H -1.492000 -5.431400 -18.631900
H -1.434100 -8.599600 -24.209000
N -1.372100 -6.482900 -20.932600
C -1.326400 -7.863800 -29.484400
C -1.093800 -7.246000 -22.026900
C -0.958200 -7.338200 -26.743400
H -0.916300 -8.546800 -31.220100
N -0.868500 -6.038600 -18.709700
H -0.862100 -6.031300 -25.184700
C -0.764000 -6.990100 -25.292600
C -0.670900 -6.698400 -19.833200
H -0.360800 -6.208400 -18.087100
C -0.189200 -8.323300 -28.827200
N -0.140900 -8.192700 -22.132300
C -0.026700 -8.058900 -27.475100
H 0.141700 -7.224800 -25.033700
N 0.307700 -7.653900 -19.876200
H 0.457300 -8.804400 -29.290700
C 0.552400 -8.369100 -21.005900
H 0.734200 -8.374900 -27.044200
N 1.143300 -8.042600 -18.852400
N 1.545900 -9.229600 -20.759900
C 1.854100 -8.977600 -19.457300
C 2.937400 -9.668600 -18.775700
O 3.141000 -9.329200 -17.470500
C 3.862000 -10.555300 -19.180300
H 3.931000 -10.945600 -20.022100
C 4.243300 -10.029000 -17.068300
H 4.613300 -9.988600 -16.215300
C 4.716200 -10.776000 -18.060100
H 5.460200 -11.335200 -18.029500
