16
Fragment
H -4.998800 -17.902200 -17.757700
N -4.857600 -19.875900 -14.922600
N -4.799600 -15.481800 -20.178100
C -4.787800 -17.196300 -17.157600
C -4.762300 -18.787800 -15.304700
C -4.734000 -15.671300 -19.056000
C -4.633600 -17.451100 -15.789700
C -4.627900 -15.896600 -17.626900
C -4.343000 -14.845400 -16.751400
C -4.329300 -16.388900 -14.909600
C -4.224700 -13.502500 -17.235500
C -4.186800 -15.091600 -15.383500
C -4.169200 -16.681800 -13.506500
N -4.137000 -12.419400 -17.617600
N -4.039400 -16.969900 -12.406600
H -3.985300 -14.380600 -14.786800
20
Fragment
H -6.816000 -5.862100 -20.148300
H -6.646100 -7.506300 -21.846200
H -6.598600 -9.410400 -23.429400
H -6.555300 -11.300900 -24.707200
O -6.500300 -6.288500 -19.497400
C -6.482600 -8.106400 -21.127800
C -6.439900 -9.995800 -22.697900
O -6.413200 -11.904900 -24.141800
C -6.382000 -7.619000 -19.835000
C -6.344900 -9.482500 -21.385600
C -6.301300 -11.354700 -22.912100
C -6.137200 -8.521200 -18.761100
C -6.090000 -10.388500 -20.294100
H -6.077400 -8.187900 -17.873600
C -6.046900 -12.249500 -21.855800
C -5.988500 -9.844400 -18.986400
C -5.950600 -11.755900 -20.572300
H -5.942700 -13.178300 -22.024500
H -5.812000 -10.424300 -18.254900
H -5.785100 -12.358000 -19.856200
36
Fragment
H -4.998800 -17.902200 -17.757700
N -4.857600 -19.875900 -14.922600
N -4.799600 -15.481800 -20.178100
C -4.787800 -17.196300 -17.157600
C -4.762300 -18.787800 -15.304700
C -4.734000 -15.671300 -19.056000
C -4.633600 -17.451100 -15.789700
C -4.627900 -15.896600 -17.626900
C -4.343000 -14.845400 -16.751400
C -4.329300 -16.388900 -14.909600
C -4.224700 -13.502500 -17.235500
C -4.186800 -15.091600 -15.383500
C -4.169200 -16.681800 -13.506500
N -4.137000 -12.419400 -17.617600
N -4.039400 -16.969900 -12.406600
H -3.985300 -14.380600 -14.786800
H -6.816000 -5.862100 -20.148300
H -6.646100 -7.506300 -21.846200
H -6.598600 -9.410400 -23.429400
H -6.555300 -11.300900 -24.707200
O -6.500300 -6.288500 -19.497400
C -6.482600 -8.106400 -21.127800
C -6.439900 -9.995800 -22.697900
O -6.413200 -11.904900 -24.141800
C -6.382000 -7.619000 -19.835000
C -6.344900 -9.482500 -21.385600
C -6.301300 -11.354700 -22.912100
C -6.137200 -8.521200 -18.761100
C -6.090000 -10.388500 -20.294100
H -6.077400 -8.187900 -17.873600
C -6.046900 -12.249500 -21.855800
C -5.988500 -9.844400 -18.986400
C -5.950600 -11.755900 -20.572300
H -5.942700 -13.178300 -22.024500
H -5.812000 -10.424300 -18.254900
H -5.785100 -12.358000 -19.856200
