16
Fragment
H -4.998800 -17.902200 -17.757700
N -4.857600 -19.875900 -14.922600
N -4.799600 -15.481800 -20.178100
C -4.787800 -17.196300 -17.157600
C -4.762300 -18.787800 -15.304700
C -4.734000 -15.671300 -19.056000
C -4.633600 -17.451100 -15.789700
C -4.627900 -15.896600 -17.626900
C -4.343000 -14.845400 -16.751400
C -4.329300 -16.388900 -14.909600
C -4.224700 -13.502500 -17.235500
C -4.186800 -15.091600 -15.383500
C -4.169200 -16.681800 -13.506500
N -4.137000 -12.419400 -17.617600
N -4.039400 -16.969900 -12.406600
H -3.985300 -14.380600 -14.786800
20
Fragment
H -3.294800 -18.170700 -10.874400
H -3.124900 -19.814900 -12.572300
H -3.077400 -21.719000 -14.155500
H -3.034000 -23.609500 -15.433300
O -2.979000 -18.597100 -10.223500
C -2.961300 -20.415000 -11.853900
C -2.918700 -22.304400 -13.424000
O -2.892000 -24.213500 -14.867900
C -2.860800 -19.927600 -10.561100
C -2.823600 -21.791100 -12.111700
C -2.780100 -23.663300 -13.638200
C -2.615900 -20.829800 -9.487200
C -2.568700 -22.697100 -11.020200
H -2.556100 -20.496500 -8.599700
C -2.525600 -24.558100 -12.581900
C -2.467300 -22.153000 -9.712500
C -2.429300 -24.064500 -11.298400
H -2.421500 -25.486900 -12.750600
H -2.290700 -22.732900 -8.981000
H -2.263900 -24.666600 -10.582300
36
Fragment
H -4.998800 -17.902200 -17.757700
N -4.857600 -19.875900 -14.922600
N -4.799600 -15.481800 -20.178100
C -4.787800 -17.196300 -17.157600
C -4.762300 -18.787800 -15.304700
C -4.734000 -15.671300 -19.056000
C -4.633600 -17.451100 -15.789700
C -4.627900 -15.896600 -17.626900
C -4.343000 -14.845400 -16.751400
C -4.329300 -16.388900 -14.909600
C -4.224700 -13.502500 -17.235500
C -4.186800 -15.091600 -15.383500
C -4.169200 -16.681800 -13.506500
N -4.137000 -12.419400 -17.617600
N -4.039400 -16.969900 -12.406600
H -3.985300 -14.380600 -14.786800
H -3.294800 -18.170700 -10.874400
H -3.124900 -19.814900 -12.572300
H -3.077400 -21.719000 -14.155500
H -3.034000 -23.609500 -15.433300
O -2.979000 -18.597100 -10.223500
C -2.961300 -20.415000 -11.853900
C -2.918700 -22.304400 -13.424000
O -2.892000 -24.213500 -14.867900
C -2.860800 -19.927600 -10.561100
C -2.823600 -21.791100 -12.111700
C -2.780100 -23.663300 -13.638200
C -2.615900 -20.829800 -9.487200
C -2.568700 -22.697100 -11.020200
H -2.556100 -20.496500 -8.599700
C -2.525600 -24.558100 -12.581900
C -2.467300 -22.153000 -9.712500
C -2.429300 -24.064500 -11.298400
H -2.421500 -25.486900 -12.750600
H -2.290700 -22.732900 -8.981000
H -2.263900 -24.666600 -10.582300
