16
Fragment
H -4.998800 -17.902200 -17.757700
N -4.857600 -19.875900 -14.922600
N -4.799600 -15.481800 -20.178100
C -4.787800 -17.196300 -17.157600
C -4.762300 -18.787800 -15.304700
C -4.734000 -15.671300 -19.056000
C -4.633600 -17.451100 -15.789700
C -4.627900 -15.896600 -17.626900
C -4.343000 -14.845400 -16.751400
C -4.329300 -16.388900 -14.909600
C -4.224700 -13.502500 -17.235500
C -4.186800 -15.091600 -15.383500
C -4.169200 -16.681800 -13.506500
N -4.137000 -12.419400 -17.617600
N -4.039400 -16.969900 -12.406600
H -3.985300 -14.380600 -14.786800
16
Fragment
H -6.578500 -20.534900 -13.034900
N -6.524400 -23.124200 -15.415100
N -6.426800 -18.573700 -10.204100
C -6.394600 -22.836100 -14.315200
C -6.377000 -21.245900 -12.438100
C -6.339000 -19.656800 -10.586200
C -6.234500 -22.543200 -12.912000
C -6.220800 -20.999700 -11.070200
C -5.935900 -22.050900 -10.194800
C -5.930200 -23.605400 -12.032000
C -5.829700 -21.825600 -8.765700
C -5.801400 -24.942100 -12.517000
C -5.776000 -23.350600 -10.664100
N -5.764100 -21.636100 -7.643500
N -5.706200 -26.030200 -12.899100
H -5.565000 -24.056500 -10.063900
32
Fragment
H -4.998800 -17.902200 -17.757700
N -4.857600 -19.875900 -14.922600
N -4.799600 -15.481800 -20.178100
C -4.787800 -17.196300 -17.157600
C -4.762300 -18.787800 -15.304700
C -4.734000 -15.671300 -19.056000
C -4.633600 -17.451100 -15.789700
C -4.627900 -15.896600 -17.626900
C -4.343000 -14.845400 -16.751400
C -4.329300 -16.388900 -14.909600
C -4.224700 -13.502500 -17.235500
C -4.186800 -15.091600 -15.383500
C -4.169200 -16.681800 -13.506500
N -4.137000 -12.419400 -17.617600
N -4.039400 -16.969900 -12.406600
H -3.985300 -14.380600 -14.786800
H -6.578500 -20.534900 -13.034900
N -6.524400 -23.124200 -15.415100
N -6.426800 -18.573700 -10.204100
C -6.394600 -22.836100 -14.315200
C -6.377000 -21.245900 -12.438100
C -6.339000 -19.656800 -10.586200
C -6.234500 -22.543200 -12.912000
C -6.220800 -20.999700 -11.070200
C -5.935900 -22.050900 -10.194800
C -5.930200 -23.605400 -12.032000
C -5.829700 -21.825600 -8.765700
C -5.801400 -24.942100 -12.517000
C -5.776000 -23.350600 -10.664100
N -5.764100 -21.636100 -7.643500
N -5.706200 -26.030200 -12.899100
H -5.565000 -24.056500 -10.063900
