16
Fragment
H -4.998800 -17.902200 -17.757700
N -4.857600 -19.875900 -14.922600
N -4.799600 -15.481800 -20.178100
C -4.787800 -17.196300 -17.157600
C -4.762300 -18.787800 -15.304700
C -4.734000 -15.671300 -19.056000
C -4.633600 -17.451100 -15.789700
C -4.627900 -15.896600 -17.626900
C -4.343000 -14.845400 -16.751400
C -4.329300 -16.388900 -14.909600
C -4.224700 -13.502500 -17.235500
C -4.186800 -15.091600 -15.383500
C -4.169200 -16.681800 -13.506500
N -4.137000 -12.419400 -17.617600
N -4.039400 -16.969900 -12.406600
H -3.985300 -14.380600 -14.786800
16
Fragment
H -6.578500 -8.226300 -13.034900
N -6.524400 -10.815600 -15.415100
N -6.426800 -6.265100 -10.204100
C -6.394600 -10.527500 -14.315200
C -6.377000 -8.937300 -12.438100
C -6.339000 -7.348200 -10.586200
C -6.234500 -10.234600 -12.912000
C -6.220800 -8.691100 -11.070200
C -5.935900 -9.742300 -10.194800
C -5.930200 -11.296800 -12.032000
C -5.829700 -9.517000 -8.765700
C -5.801400 -12.633500 -12.517000
C -5.776000 -11.042000 -10.664100
N -5.764100 -9.327500 -7.643500
N -5.706200 -13.721600 -12.899100
H -5.565000 -11.747900 -10.063900
32
Fragment
H -4.998800 -17.902200 -17.757700
N -4.857600 -19.875900 -14.922600
N -4.799600 -15.481800 -20.178100
C -4.787800 -17.196300 -17.157600
C -4.762300 -18.787800 -15.304700
C -4.734000 -15.671300 -19.056000
C -4.633600 -17.451100 -15.789700
C -4.627900 -15.896600 -17.626900
C -4.343000 -14.845400 -16.751400
C -4.329300 -16.388900 -14.909600
C -4.224700 -13.502500 -17.235500
C -4.186800 -15.091600 -15.383500
C -4.169200 -16.681800 -13.506500
N -4.137000 -12.419400 -17.617600
N -4.039400 -16.969900 -12.406600
H -3.985300 -14.380600 -14.786800
H -6.578500 -8.226300 -13.034900
N -6.524400 -10.815600 -15.415100
N -6.426800 -6.265100 -10.204100
C -6.394600 -10.527500 -14.315200
C -6.377000 -8.937300 -12.438100
C -6.339000 -7.348200 -10.586200
C -6.234500 -10.234600 -12.912000
C -6.220800 -8.691100 -11.070200
C -5.935900 -9.742300 -10.194800
C -5.930200 -11.296800 -12.032000
C -5.829700 -9.517000 -8.765700
C -5.801400 -12.633500 -12.517000
C -5.776000 -11.042000 -10.664100
N -5.764100 -9.327500 -7.643500
N -5.706200 -13.721600 -12.899100
H -5.565000 -11.747900 -10.063900
