15
Fragment
H -5.051300 -41.970800 -13.496800
H -4.977500 -43.484400 -13.663300
N -4.815200 -42.674800 -13.968500
N -4.390200 -46.013200 -15.120800
C -4.211100 -42.515500 -15.146000
C -4.114600 -44.969500 -15.510900
N -3.982200 -41.266500 -15.574200
C -3.823400 -43.645000 -15.938400
C -3.354700 -41.116000 -16.755000
H -3.337700 -39.191200 -16.702700
C -3.206900 -43.334400 -17.141400
N -3.098000 -39.886800 -17.186100
N -2.938800 -42.131400 -17.577800
Cl -2.734900 -44.627300 -18.196400
H -2.688400 -39.768400 -17.956200
15
Fragment
H -5.681600 -41.902700 -19.462300
Cl -5.635100 -37.043800 -19.222000
N -5.431200 -39.539700 -19.840700
N -5.272000 -41.784300 -20.232300
C -5.163100 -38.336700 -20.277000
H -5.032300 -42.479900 -20.715800
C -5.015300 -40.555100 -20.663400
C -4.546700 -38.026100 -21.480000
N -4.387800 -40.404600 -21.844200
C -4.255400 -36.701600 -21.907600
C -4.159000 -39.155600 -22.272400
N -3.979800 -35.657900 -22.297600
N -3.554800 -38.996300 -23.449900
H -3.392500 -38.186700 -23.755100
H -3.318700 -39.700300 -23.921600
30
Fragment
H -5.051300 -41.970800 -13.496800
H -4.977500 -43.484400 -13.663300
N -4.815200 -42.674800 -13.968500
N -4.390200 -46.013200 -15.120800
C -4.211100 -42.515500 -15.146000
C -4.114600 -44.969500 -15.510900
N -3.982200 -41.266500 -15.574200
C -3.823400 -43.645000 -15.938400
C -3.354700 -41.116000 -16.755000
H -3.337700 -39.191200 -16.702700
C -3.206900 -43.334400 -17.141400
N -3.098000 -39.886800 -17.186100
N -2.938800 -42.131400 -17.577800
Cl -2.734900 -44.627300 -18.196400
H -2.688400 -39.768400 -17.956200
H -5.681600 -41.902700 -19.462300
Cl -5.635100 -37.043800 -19.222000
N -5.431200 -39.539700 -19.840700
N -5.272000 -41.784300 -20.232300
C -5.163100 -38.336700 -20.277000
H -5.032300 -42.479900 -20.715800
C -5.015300 -40.555100 -20.663400
C -4.546700 -38.026100 -21.480000
N -4.387800 -40.404600 -21.844200
C -4.255400 -36.701600 -21.907600
C -4.159000 -39.155600 -22.272400
N -3.979800 -35.657900 -22.297600
N -3.554800 -38.996300 -23.449900
H -3.392500 -38.186700 -23.755100
H -3.318700 -39.700300 -23.921600
