15
Fragment
H -5.051300 -41.970800 -13.496800
H -4.977500 -43.484400 -13.663300
N -4.815200 -42.674800 -13.968500
N -4.390200 -46.013200 -15.120800
C -4.211100 -42.515500 -15.146000
C -4.114600 -44.969500 -15.510900
N -3.982200 -41.266500 -15.574200
C -3.823400 -43.645000 -15.938400
C -3.354700 -41.116000 -16.755000
H -3.337700 -39.191200 -16.702700
C -3.206900 -43.334400 -17.141400
N -3.098000 -39.886800 -17.186100
N -2.938800 -42.131400 -17.577800
Cl -2.734900 -44.627300 -18.196400
H -2.688400 -39.768400 -17.956200
15
Fragment
H -7.330400 -41.902700 -10.107700
Cl -7.283900 -37.043800 -9.867400
N -7.080000 -39.539700 -10.486000
N -6.920800 -41.784300 -10.877700
C -6.811900 -38.336700 -10.922400
H -6.681100 -42.479900 -11.361200
C -6.664100 -40.555100 -11.308800
C -6.195500 -38.026100 -12.125400
N -6.036600 -40.404600 -12.489600
C -5.904200 -36.701600 -12.552900
C -5.807800 -39.155600 -12.917800
N -5.628600 -35.657900 -12.943000
N -5.203600 -38.996300 -14.095300
H -5.041300 -38.186700 -14.400500
H -4.967500 -39.700300 -14.567000
30
Fragment
H -5.051300 -41.970800 -13.496800
H -4.977500 -43.484400 -13.663300
N -4.815200 -42.674800 -13.968500
N -4.390200 -46.013200 -15.120800
C -4.211100 -42.515500 -15.146000
C -4.114600 -44.969500 -15.510900
N -3.982200 -41.266500 -15.574200
C -3.823400 -43.645000 -15.938400
C -3.354700 -41.116000 -16.755000
H -3.337700 -39.191200 -16.702700
C -3.206900 -43.334400 -17.141400
N -3.098000 -39.886800 -17.186100
N -2.938800 -42.131400 -17.577800
Cl -2.734900 -44.627300 -18.196400
H -2.688400 -39.768400 -17.956200
H -7.330400 -41.902700 -10.107700
Cl -7.283900 -37.043800 -9.867400
N -7.080000 -39.539700 -10.486000
N -6.920800 -41.784300 -10.877700
C -6.811900 -38.336700 -10.922400
H -6.681100 -42.479900 -11.361200
C -6.664100 -40.555100 -11.308800
C -6.195500 -38.026100 -12.125400
N -6.036600 -40.404600 -12.489600
C -5.904200 -36.701600 -12.552900
C -5.807800 -39.155600 -12.917800
N -5.628600 -35.657900 -12.943000
N -5.203600 -38.996300 -14.095300
H -5.041300 -38.186700 -14.400500
H -4.967500 -39.700300 -14.567000
