15
Fragment
H -5.051300 -41.970800 -13.496800
H -4.977500 -43.484400 -13.663300
N -4.815200 -42.674800 -13.968500
N -4.390200 -46.013200 -15.120800
C -4.211100 -42.515500 -15.146000
C -4.114600 -44.969500 -15.510900
N -3.982200 -41.266500 -15.574200
C -3.823400 -43.645000 -15.938400
C -3.354700 -41.116000 -16.755000
H -3.337700 -39.191200 -16.702700
C -3.206900 -43.334400 -17.141400
N -3.098000 -39.886800 -17.186100
N -2.938800 -42.131400 -17.577800
Cl -2.734900 -44.627300 -18.196400
H -2.688400 -39.768400 -17.956200
15
Fragment
H -3.589100 -41.902700 -10.107700
Cl -3.542600 -37.043800 -9.867400
N -3.338700 -39.539700 -10.486000
N -3.179500 -41.784300 -10.877700
C -3.070600 -38.336700 -10.922400
H -2.939800 -42.479900 -11.361200
C -2.922800 -40.555100 -11.308800
C -2.454200 -38.026100 -12.125400
N -2.295300 -40.404600 -12.489600
C -2.162900 -36.701600 -12.552900
C -2.066500 -39.155600 -12.917800
N -1.887300 -35.657900 -12.943000
N -1.462300 -38.996300 -14.095300
H -1.300000 -38.186700 -14.400500
H -1.226200 -39.700300 -14.567000
30
Fragment
H -5.051300 -41.970800 -13.496800
H -4.977500 -43.484400 -13.663300
N -4.815200 -42.674800 -13.968500
N -4.390200 -46.013200 -15.120800
C -4.211100 -42.515500 -15.146000
C -4.114600 -44.969500 -15.510900
N -3.982200 -41.266500 -15.574200
C -3.823400 -43.645000 -15.938400
C -3.354700 -41.116000 -16.755000
H -3.337700 -39.191200 -16.702700
C -3.206900 -43.334400 -17.141400
N -3.098000 -39.886800 -17.186100
N -2.938800 -42.131400 -17.577800
Cl -2.734900 -44.627300 -18.196400
H -2.688400 -39.768400 -17.956200
H -3.589100 -41.902700 -10.107700
Cl -3.542600 -37.043800 -9.867400
N -3.338700 -39.539700 -10.486000
N -3.179500 -41.784300 -10.877700
C -3.070600 -38.336700 -10.922400
H -2.939800 -42.479900 -11.361200
C -2.922800 -40.555100 -11.308800
C -2.454200 -38.026100 -12.125400
N -2.295300 -40.404600 -12.489600
C -2.162900 -36.701600 -12.552900
C -2.066500 -39.155600 -12.917800
N -1.887300 -35.657900 -12.943000
N -1.462300 -38.996300 -14.095300
H -1.300000 -38.186700 -14.400500
H -1.226200 -39.700300 -14.567000
