15
Fragment
H -5.051300 -41.970800 -13.496800
H -4.977500 -43.484400 -13.663300
N -4.815200 -42.674800 -13.968500
N -4.390200 -46.013200 -15.120800
C -4.211100 -42.515500 -15.146000
C -4.114600 -44.969500 -15.510900
N -3.982200 -41.266500 -15.574200
C -3.823400 -43.645000 -15.938400
C -3.354700 -41.116000 -16.755000
H -3.337700 -39.191200 -16.702700
C -3.206900 -43.334400 -17.141400
N -3.098000 -39.886800 -17.186100
N -2.938800 -42.131400 -17.577800
Cl -2.734900 -44.627300 -18.196400
H -2.688400 -39.768400 -17.956200
15
Fragment
H -8.792600 -41.970800 -13.496800
H -8.718800 -43.484400 -13.663300
N -8.556500 -42.674800 -13.968500
N -8.131500 -46.013200 -15.120800
C -7.952400 -42.515500 -15.146000
C -7.855900 -44.969500 -15.510900
N -7.723500 -41.266500 -15.574200
C -7.564700 -43.645000 -15.938400
C -7.096000 -41.116000 -16.755000
H -7.079000 -39.191200 -16.702700
C -6.948200 -43.334400 -17.141400
N -6.839300 -39.886800 -17.186100
N -6.680100 -42.131400 -17.577800
Cl -6.476200 -44.627300 -18.196400
H -6.429700 -39.768400 -17.956200
30
Fragment
H -5.051300 -41.970800 -13.496800
H -4.977500 -43.484400 -13.663300
N -4.815200 -42.674800 -13.968500
N -4.390200 -46.013200 -15.120800
C -4.211100 -42.515500 -15.146000
C -4.114600 -44.969500 -15.510900
N -3.982200 -41.266500 -15.574200
C -3.823400 -43.645000 -15.938400
C -3.354700 -41.116000 -16.755000
H -3.337700 -39.191200 -16.702700
C -3.206900 -43.334400 -17.141400
N -3.098000 -39.886800 -17.186100
N -2.938800 -42.131400 -17.577800
Cl -2.734900 -44.627300 -18.196400
H -2.688400 -39.768400 -17.956200
H -8.792600 -41.970800 -13.496800
H -8.718800 -43.484400 -13.663300
N -8.556500 -42.674800 -13.968500
N -8.131500 -46.013200 -15.120800
C -7.952400 -42.515500 -15.146000
C -7.855900 -44.969500 -15.510900
N -7.723500 -41.266500 -15.574200
C -7.564700 -43.645000 -15.938400
C -7.096000 -41.116000 -16.755000
H -7.079000 -39.191200 -16.702700
C -6.948200 -43.334400 -17.141400
N -6.839300 -39.886800 -17.186100
N -6.680100 -42.131400 -17.577800
Cl -6.476200 -44.627300 -18.196400
H -6.429700 -39.768400 -17.956200
