13
Fragment
N -9.137500 -20.283000 -10.623600
N -8.680900 -19.103300 -10.935000
H -8.497000 -22.016300 -11.270200
N -8.378900 -21.157800 -11.295500
N -7.641300 -19.177900 -11.796100
C -7.477200 -20.473900 -12.006500
C -6.478400 -21.068900 -12.880400
N -6.378900 -22.391300 -13.066500
N -5.567800 -20.355000 -13.562100
N -5.350900 -22.410000 -13.891200
H -5.166700 -24.257000 -13.920900
O -4.840400 -23.505900 -14.454700
N -4.836600 -21.248100 -14.218100
3
Fragment
H -3.155400 -21.580700 -15.788000
O -2.684800 -22.016400 -16.144400
H -2.125500 -21.504800 -16.571600
16
Fragment
N -9.137500 -20.283000 -10.623600
N -8.680900 -19.103300 -10.935000
H -8.497000 -22.016300 -11.270200
N -8.378900 -21.157800 -11.295500
N -7.641300 -19.177900 -11.796100
C -7.477200 -20.473900 -12.006500
C -6.478400 -21.068900 -12.880400
N -6.378900 -22.391300 -13.066500
N -5.567800 -20.355000 -13.562100
N -5.350900 -22.410000 -13.891200
H -5.166700 -24.257000 -13.920900
O -4.840400 -23.505900 -14.454700
N -4.836600 -21.248100 -14.218100
H -3.155400 -21.580700 -15.788000
O -2.684800 -22.016400 -16.144400
H -2.125500 -21.504800 -16.571600
