13
Fragment
N -9.137500 -20.283000 -10.623600
N -8.680900 -19.103300 -10.935000
H -8.497000 -22.016300 -11.270200
N -8.378900 -21.157800 -11.295500
N -7.641300 -19.177900 -11.796100
C -7.477200 -20.473900 -12.006500
C -6.478400 -21.068900 -12.880400
N -6.378900 -22.391300 -13.066500
N -5.567800 -20.355000 -13.562100
N -5.350900 -22.410000 -13.891200
H -5.166700 -24.257000 -13.920900
O -4.840400 -23.505900 -14.454700
N -4.836600 -21.248100 -14.218100
13
Fragment
N -14.037300 -20.283000 -10.623600
N -13.580700 -19.103300 -10.935000
H -13.396800 -22.016300 -11.270200
N -13.278700 -21.157800 -11.295500
N -12.541100 -19.177900 -11.796100
C -12.377000 -20.473900 -12.006500
C -11.378200 -21.068900 -12.880400
N -11.278700 -22.391300 -13.066500
N -10.467600 -20.355000 -13.562100
N -10.250700 -22.410000 -13.891200
H -10.066500 -24.257000 -13.920900
O -9.740200 -23.505900 -14.454700
N -9.736400 -21.248100 -14.218100
26
Fragment
N -9.137500 -20.283000 -10.623600
N -8.680900 -19.103300 -10.935000
H -8.497000 -22.016300 -11.270200
N -8.378900 -21.157800 -11.295500
N -7.641300 -19.177900 -11.796100
C -7.477200 -20.473900 -12.006500
C -6.478400 -21.068900 -12.880400
N -6.378900 -22.391300 -13.066500
N -5.567800 -20.355000 -13.562100
N -5.350900 -22.410000 -13.891200
H -5.166700 -24.257000 -13.920900
O -4.840400 -23.505900 -14.454700
N -4.836600 -21.248100 -14.218100
N -14.037300 -20.283000 -10.623600
N -13.580700 -19.103300 -10.935000
H -13.396800 -22.016300 -11.270200
N -13.278700 -21.157800 -11.295500
N -12.541100 -19.177900 -11.796100
C -12.377000 -20.473900 -12.006500
C -11.378200 -21.068900 -12.880400
N -11.278700 -22.391300 -13.066500
N -10.467600 -20.355000 -13.562100
N -10.250700 -22.410000 -13.891200
H -10.066500 -24.257000 -13.920900
O -9.740200 -23.505900 -14.454700
N -9.736400 -21.248100 -14.218100
