13
Fragment
N -9.137500 -20.283000 -10.623600
N -8.680900 -19.103300 -10.935000
H -8.497000 -22.016300 -11.270200
N -8.378900 -21.157800 -11.295500
N -7.641300 -19.177900 -11.796100
C -7.477200 -20.473900 -12.006500
C -6.478400 -21.068900 -12.880400
N -6.378900 -22.391300 -13.066500
N -5.567800 -20.355000 -13.562100
N -5.350900 -22.410000 -13.891200
H -5.166700 -24.257000 -13.920900
O -4.840400 -23.505900 -14.454700
N -4.836600 -21.248100 -14.218100
13
Fragment
N -8.103200 -25.499800 -15.460600
N -7.646600 -26.679500 -15.772000
H -7.462700 -23.766500 -16.107200
N -7.344600 -24.625000 -16.132500
N -6.606900 -26.604900 -16.633100
C -6.442900 -25.308900 -16.843500
C -5.444100 -24.713900 -17.717400
N -5.344500 -23.391500 -17.903500
N -4.533500 -25.427800 -18.399100
N -4.316600 -23.372800 -18.728200
H -4.132400 -21.525800 -18.757900
O -3.806100 -22.276900 -19.291700
N -3.802300 -24.534700 -19.055100
26
Fragment
N -9.137500 -20.283000 -10.623600
N -8.680900 -19.103300 -10.935000
H -8.497000 -22.016300 -11.270200
N -8.378900 -21.157800 -11.295500
N -7.641300 -19.177900 -11.796100
C -7.477200 -20.473900 -12.006500
C -6.478400 -21.068900 -12.880400
N -6.378900 -22.391300 -13.066500
N -5.567800 -20.355000 -13.562100
N -5.350900 -22.410000 -13.891200
H -5.166700 -24.257000 -13.920900
O -4.840400 -23.505900 -14.454700
N -4.836600 -21.248100 -14.218100
N -8.103200 -25.499800 -15.460600
N -7.646600 -26.679500 -15.772000
H -7.462700 -23.766500 -16.107200
N -7.344600 -24.625000 -16.132500
N -6.606900 -26.604900 -16.633100
C -6.442900 -25.308900 -16.843500
C -5.444100 -24.713900 -17.717400
N -5.344500 -23.391500 -17.903500
N -4.533500 -25.427800 -18.399100
N -4.316600 -23.372800 -18.728200
H -4.132400 -21.525800 -18.757900
O -3.806100 -22.276900 -19.291700
N -3.802300 -24.534700 -19.055100
