13
Fragment
N -9.137500 -20.283000 -10.623600
N -8.680900 -19.103300 -10.935000
H -8.497000 -22.016300 -11.270200
N -8.378900 -21.157800 -11.295500
N -7.641300 -19.177900 -11.796100
C -7.477200 -20.473900 -12.006500
C -6.478400 -21.068900 -12.880400
N -6.378900 -22.391300 -13.066500
N -5.567800 -20.355000 -13.562100
N -5.350900 -22.410000 -13.891200
H -5.166700 -24.257000 -13.920900
O -4.840400 -23.505900 -14.454700
N -4.836600 -21.248100 -14.218100
13
Fragment
N -8.556700 -17.994300 -14.803900
O -8.552900 -15.736500 -14.567300
H -8.226600 -14.985400 -15.101100
N -8.042400 -16.832400 -15.130800
N -7.825500 -18.887400 -15.459900
N -7.014500 -16.851100 -15.955500
C -6.914900 -18.173500 -16.141700
C -5.916100 -18.768500 -17.015500
N -5.752100 -20.064500 -17.225900
N -5.014400 -18.084600 -17.726500
H -4.896300 -17.226100 -17.751800
N -4.712400 -20.139100 -18.087000
N -4.255800 -18.959400 -18.398400
26
Fragment
N -9.137500 -20.283000 -10.623600
N -8.680900 -19.103300 -10.935000
H -8.497000 -22.016300 -11.270200
N -8.378900 -21.157800 -11.295500
N -7.641300 -19.177900 -11.796100
C -7.477200 -20.473900 -12.006500
C -6.478400 -21.068900 -12.880400
N -6.378900 -22.391300 -13.066500
N -5.567800 -20.355000 -13.562100
N -5.350900 -22.410000 -13.891200
H -5.166700 -24.257000 -13.920900
O -4.840400 -23.505900 -14.454700
N -4.836600 -21.248100 -14.218100
N -8.556700 -17.994300 -14.803900
O -8.552900 -15.736500 -14.567300
H -8.226600 -14.985400 -15.101100
N -8.042400 -16.832400 -15.130800
N -7.825500 -18.887400 -15.459900
N -7.014500 -16.851100 -15.955500
C -6.914900 -18.173500 -16.141700
C -5.916100 -18.768500 -17.015500
N -5.752100 -20.064500 -17.225900
N -5.014400 -18.084600 -17.726500
H -4.896300 -17.226100 -17.751800
N -4.712400 -20.139100 -18.087000
N -4.255800 -18.959400 -18.398400
