21
Fragment
H -33.824000 -18.959400 -21.673800
H -33.406100 -20.280700 -20.938900
O -33.390200 -21.630100 -23.021600
C -33.083600 -19.469500 -21.339600
H -32.610800 -18.954800 -20.680500
H -32.438600 -22.927500 -24.617100
C -32.430100 -20.910000 -23.234800
N -32.172800 -19.799200 -22.450400
H -32.050500 -22.182100 -25.940600
C -31.762700 -22.401000 -25.051800
N -31.540100 -21.166400 -24.290800
C -31.085600 -19.014100 -22.748000
H -30.945700 -22.903300 -25.094800
N -30.666500 -17.922100 -22.047500
C -30.464000 -20.357500 -24.703300
C -30.280900 -19.259900 -23.827400
O -29.797200 -20.634300 -25.685200
C -29.594500 -17.499900 -22.736200
N -29.324300 -18.258200 -23.800000
H -29.091800 -16.755500 -22.496100
H -28.614600 -18.168700 -24.421300
22
Fragment
H -40.296300 -27.348600 -21.971400
O -39.720300 -26.768300 -21.912600
O -38.932600 -27.790500 -23.715400
C -38.861600 -26.898400 -22.908500
H -38.490100 -24.852600 -21.291300
C -37.816500 -24.867400 -21.930900
C -37.807000 -25.849100 -22.894200
O -37.398300 -21.379900 -18.898300
O -36.953200 -22.980400 -20.904100
C -36.822900 -23.897000 -21.911300
C -36.800400 -25.871800 -23.862700
H -36.794300 -26.529100 -24.521800
C -36.423500 -21.147800 -19.571000
C -35.991900 -21.962000 -20.750900
H -35.952900 -21.410900 -21.548500
H -35.861700 -19.740400 -18.670400
C -35.815100 -24.905200 -23.827400
C -35.811000 -23.910000 -22.860200
O -35.621000 -20.133900 -19.348200
H -35.141400 -23.263900 -22.848500
H -35.138600 -24.922000 -24.465700
H -35.113900 -22.345100 -20.595600
43
Fragment
H -33.824000 -18.959400 -21.673800
H -33.406100 -20.280700 -20.938900
O -33.390200 -21.630100 -23.021600
C -33.083600 -19.469500 -21.339600
H -32.610800 -18.954800 -20.680500
H -32.438600 -22.927500 -24.617100
C -32.430100 -20.910000 -23.234800
N -32.172800 -19.799200 -22.450400
H -32.050500 -22.182100 -25.940600
C -31.762700 -22.401000 -25.051800
N -31.540100 -21.166400 -24.290800
C -31.085600 -19.014100 -22.748000
H -30.945700 -22.903300 -25.094800
N -30.666500 -17.922100 -22.047500
C -30.464000 -20.357500 -24.703300
C -30.280900 -19.259900 -23.827400
O -29.797200 -20.634300 -25.685200
C -29.594500 -17.499900 -22.736200
N -29.324300 -18.258200 -23.800000
H -29.091800 -16.755500 -22.496100
H -28.614600 -18.168700 -24.421300
H -40.296300 -27.348600 -21.971400
O -39.720300 -26.768300 -21.912600
O -38.932600 -27.790500 -23.715400
C -38.861600 -26.898400 -22.908500
H -38.490100 -24.852600 -21.291300
C -37.816500 -24.867400 -21.930900
C -37.807000 -25.849100 -22.894200
O -37.398300 -21.379900 -18.898300
O -36.953200 -22.980400 -20.904100
C -36.822900 -23.897000 -21.911300
C -36.800400 -25.871800 -23.862700
H -36.794300 -26.529100 -24.521800
C -36.423500 -21.147800 -19.571000
C -35.991900 -21.962000 -20.750900
H -35.952900 -21.410900 -21.548500
H -35.861700 -19.740400 -18.670400
C -35.815100 -24.905200 -23.827400
C -35.811000 -23.910000 -22.860200
O -35.621000 -20.133900 -19.348200
H -35.141400 -23.263900 -22.848500
H -35.138600 -24.922000 -24.465700
H -35.113900 -22.345100 -20.595600
