32
Fragment
O -11.695200 -50.484900 -11.462100
H -11.691100 -45.983200 -11.184800
H -10.994800 -43.823400 -11.446700
C -10.848400 -45.805000 -11.536900
C -10.578800 -50.464900 -11.924600
O -10.556500 -48.113400 -11.750300
C -10.428200 -44.518700 -11.689600
H -10.353200 -52.211200 -12.080700
C -10.002700 -46.865400 -11.913400
O -9.918200 -51.544500 -12.282800
C -9.779600 -49.218500 -12.180500
H -9.578200 -49.138700 -13.125800
H -9.234000 -42.180100 -12.218600
C -9.142100 -44.219500 -12.213400
H -8.943200 -49.251100 -11.690500
C -8.742000 -46.626100 -12.403400
C -8.676000 -42.896000 -12.423300
C -8.287000 -45.294600 -12.557800
H -8.189200 -47.337500 -12.633200
C -7.427000 -42.649000 -12.918600
H -7.141300 -41.773300 -13.052100
C -6.988400 -45.015400 -13.058200
C -6.570800 -43.728400 -13.227300
H -6.416600 -45.715600 -13.274200
O -5.330700 -43.345900 -13.702600
H -4.737500 -44.987600 -14.645400
C -4.392500 -44.390000 -13.961900
H -4.234900 -44.904600 -13.155300
C -3.115000 -43.754600 -14.427700
O -2.908200 -42.576200 -14.439800
O -2.241900 -44.683800 -14.809300
H -1.536100 -44.323900 -15.020100
24
Fragment
H -19.083900 -42.260400 -9.172700
H -18.428700 -41.971300 -7.778000
H -18.350200 -40.900700 -8.919400
C -18.346000 -41.839900 -8.726000
O -17.804900 -44.521400 -8.665100
N -17.087100 -42.431400 -9.194300
C -16.931300 -43.802800 -9.128400
H -16.200300 -46.208000 -10.104100
N -16.116400 -40.307700 -9.915900
C -16.090200 -41.657600 -9.737300
H -15.729400 -46.068900 -8.615000
N -15.722900 -44.322800 -9.608000
C -15.568900 -45.784100 -9.517800
C -14.933800 -40.045100 -10.500500
C -14.930800 -42.202300 -10.198700
H -14.677500 -46.028700 -9.777200
H -14.661700 -39.190500 -10.743400
C -14.655500 -43.601000 -10.170100
N -14.192500 -41.136300 -10.695700
O -13.637600 -44.155500 -10.573400
H -12.888900 -41.690300 -12.111100
C -12.857500 -41.176400 -11.301000
H -12.570000 -40.282500 -11.500500
H -12.240700 -41.580600 -10.687800
56
Fragment
O -11.695200 -50.484900 -11.462100
H -11.691100 -45.983200 -11.184800
H -10.994800 -43.823400 -11.446700
C -10.848400 -45.805000 -11.536900
C -10.578800 -50.464900 -11.924600
O -10.556500 -48.113400 -11.750300
C -10.428200 -44.518700 -11.689600
H -10.353200 -52.211200 -12.080700
C -10.002700 -46.865400 -11.913400
O -9.918200 -51.544500 -12.282800
C -9.779600 -49.218500 -12.180500
H -9.578200 -49.138700 -13.125800
H -9.234000 -42.180100 -12.218600
C -9.142100 -44.219500 -12.213400
H -8.943200 -49.251100 -11.690500
C -8.742000 -46.626100 -12.403400
C -8.676000 -42.896000 -12.423300
C -8.287000 -45.294600 -12.557800
H -8.189200 -47.337500 -12.633200
C -7.427000 -42.649000 -12.918600
H -7.141300 -41.773300 -13.052100
C -6.988400 -45.015400 -13.058200
C -6.570800 -43.728400 -13.227300
H -6.416600 -45.715600 -13.274200
O -5.330700 -43.345900 -13.702600
H -4.737500 -44.987600 -14.645400
C -4.392500 -44.390000 -13.961900
H -4.234900 -44.904600 -13.155300
C -3.115000 -43.754600 -14.427700
O -2.908200 -42.576200 -14.439800
O -2.241900 -44.683800 -14.809300
H -1.536100 -44.323900 -15.020100
H -19.083900 -42.260400 -9.172700
H -18.428700 -41.971300 -7.778000
H -18.350200 -40.900700 -8.919400
C -18.346000 -41.839900 -8.726000
O -17.804900 -44.521400 -8.665100
N -17.087100 -42.431400 -9.194300
C -16.931300 -43.802800 -9.128400
H -16.200300 -46.208000 -10.104100
N -16.116400 -40.307700 -9.915900
C -16.090200 -41.657600 -9.737300
H -15.729400 -46.068900 -8.615000
N -15.722900 -44.322800 -9.608000
C -15.568900 -45.784100 -9.517800
C -14.933800 -40.045100 -10.500500
C -14.930800 -42.202300 -10.198700
H -14.677500 -46.028700 -9.777200
H -14.661700 -39.190500 -10.743400
C -14.655500 -43.601000 -10.170100
N -14.192500 -41.136300 -10.695700
O -13.637600 -44.155500 -10.573400
H -12.888900 -41.690300 -12.111100
C -12.857500 -41.176400 -11.301000
H -12.570000 -40.282500 -11.500500
H -12.240700 -41.580600 -10.687800
