32
Fragment
O -11.695200 -50.484900 -11.462100
H -11.691100 -45.983200 -11.184800
H -10.994800 -43.823400 -11.446700
C -10.848400 -45.805000 -11.536900
C -10.578800 -50.464900 -11.924600
O -10.556500 -48.113400 -11.750300
C -10.428200 -44.518700 -11.689600
H -10.353200 -52.211200 -12.080700
C -10.002700 -46.865400 -11.913400
O -9.918200 -51.544500 -12.282800
C -9.779600 -49.218500 -12.180500
H -9.578200 -49.138700 -13.125800
H -9.234000 -42.180100 -12.218600
C -9.142100 -44.219500 -12.213400
H -8.943200 -49.251100 -11.690500
C -8.742000 -46.626100 -12.403400
C -8.676000 -42.896000 -12.423300
C -8.287000 -45.294600 -12.557800
H -8.189200 -47.337500 -12.633200
C -7.427000 -42.649000 -12.918600
H -7.141300 -41.773300 -13.052100
C -6.988400 -45.015400 -13.058200
C -6.570800 -43.728400 -13.227300
H -6.416600 -45.715600 -13.274200
O -5.330700 -43.345900 -13.702600
H -4.737500 -44.987600 -14.645400
C -4.392500 -44.390000 -13.961900
H -4.234900 -44.904600 -13.155300
C -3.115000 -43.754600 -14.427700
O -2.908200 -42.576200 -14.439800
O -2.241900 -44.683800 -14.809300
H -1.536100 -44.323900 -15.020100
32
Fragment
O -21.132800 -50.484900 -11.462100
H -21.128700 -45.983200 -11.184800
H -20.432400 -43.823400 -11.446700
C -20.286000 -45.805000 -11.536900
C -20.016400 -50.464900 -11.924600
O -19.994100 -48.113400 -11.750300
C -19.865800 -44.518700 -11.689600
H -19.790800 -52.211200 -12.080700
C -19.440300 -46.865400 -11.913400
O -19.355800 -51.544500 -12.282800
C -19.217200 -49.218500 -12.180500
H -19.015800 -49.138700 -13.125800
H -18.671600 -42.180100 -12.218600
C -18.579700 -44.219500 -12.213400
H -18.380800 -49.251100 -11.690500
C -18.179600 -46.626100 -12.403400
C -18.113600 -42.896000 -12.423300
C -17.724600 -45.294600 -12.557800
H -17.626800 -47.337500 -12.633200
C -16.864600 -42.649000 -12.918600
H -16.578900 -41.773300 -13.052100
C -16.426000 -45.015400 -13.058200
C -16.008400 -43.728400 -13.227300
H -15.854200 -45.715600 -13.274200
O -14.768300 -43.345900 -13.702600
H -14.175100 -44.987600 -14.645400
C -13.830100 -44.390000 -13.961900
H -13.672500 -44.904600 -13.155300
C -12.552600 -43.754600 -14.427700
O -12.345800 -42.576200 -14.439800
O -11.679500 -44.683800 -14.809300
H -10.973700 -44.323900 -15.020100
64
Fragment
O -11.695200 -50.484900 -11.462100
H -11.691100 -45.983200 -11.184800
H -10.994800 -43.823400 -11.446700
C -10.848400 -45.805000 -11.536900
C -10.578800 -50.464900 -11.924600
O -10.556500 -48.113400 -11.750300
C -10.428200 -44.518700 -11.689600
H -10.353200 -52.211200 -12.080700
C -10.002700 -46.865400 -11.913400
O -9.918200 -51.544500 -12.282800
C -9.779600 -49.218500 -12.180500
H -9.578200 -49.138700 -13.125800
H -9.234000 -42.180100 -12.218600
C -9.142100 -44.219500 -12.213400
H -8.943200 -49.251100 -11.690500
C -8.742000 -46.626100 -12.403400
C -8.676000 -42.896000 -12.423300
C -8.287000 -45.294600 -12.557800
H -8.189200 -47.337500 -12.633200
C -7.427000 -42.649000 -12.918600
H -7.141300 -41.773300 -13.052100
C -6.988400 -45.015400 -13.058200
C -6.570800 -43.728400 -13.227300
H -6.416600 -45.715600 -13.274200
O -5.330700 -43.345900 -13.702600
H -4.737500 -44.987600 -14.645400
C -4.392500 -44.390000 -13.961900
H -4.234900 -44.904600 -13.155300
C -3.115000 -43.754600 -14.427700
O -2.908200 -42.576200 -14.439800
O -2.241900 -44.683800 -14.809300
H -1.536100 -44.323900 -15.020100
O -21.132800 -50.484900 -11.462100
H -21.128700 -45.983200 -11.184800
H -20.432400 -43.823400 -11.446700
C -20.286000 -45.805000 -11.536900
C -20.016400 -50.464900 -11.924600
O -19.994100 -48.113400 -11.750300
C -19.865800 -44.518700 -11.689600
H -19.790800 -52.211200 -12.080700
C -19.440300 -46.865400 -11.913400
O -19.355800 -51.544500 -12.282800
C -19.217200 -49.218500 -12.180500
H -19.015800 -49.138700 -13.125800
H -18.671600 -42.180100 -12.218600
C -18.579700 -44.219500 -12.213400
H -18.380800 -49.251100 -11.690500
C -18.179600 -46.626100 -12.403400
C -18.113600 -42.896000 -12.423300
C -17.724600 -45.294600 -12.557800
H -17.626800 -47.337500 -12.633200
C -16.864600 -42.649000 -12.918600
H -16.578900 -41.773300 -13.052100
C -16.426000 -45.015400 -13.058200
C -16.008400 -43.728400 -13.227300
H -15.854200 -45.715600 -13.274200
O -14.768300 -43.345900 -13.702600
H -14.175100 -44.987600 -14.645400
C -13.830100 -44.390000 -13.961900
H -13.672500 -44.904600 -13.155300
C -12.552600 -43.754600 -14.427700
O -12.345800 -42.576200 -14.439800
O -11.679500 -44.683800 -14.809300
H -10.973700 -44.323900 -15.020100
