21
Fragment
H -33.824000 -18.959400 -21.673800
H -33.406100 -20.280700 -20.938900
O -33.390200 -21.630100 -23.021600
C -33.083600 -19.469500 -21.339600
H -32.610800 -18.954800 -20.680500
H -32.438600 -22.927500 -24.617100
C -32.430100 -20.910000 -23.234800
N -32.172800 -19.799200 -22.450400
H -32.050500 -22.182100 -25.940600
C -31.762700 -22.401000 -25.051800
N -31.540100 -21.166400 -24.290800
C -31.085600 -19.014100 -22.748000
H -30.945700 -22.903300 -25.094800
N -30.666500 -17.922100 -22.047500
C -30.464000 -20.357500 -24.703300
C -30.280900 -19.259900 -23.827400
O -29.797200 -20.634300 -25.685200
C -29.594500 -17.499900 -22.736200
N -29.324300 -18.258200 -23.800000
H -29.091800 -16.755500 -22.496100
H -28.614600 -18.168700 -24.421300
22
Fragment
H -33.783300 -24.748900 -20.196200
O -33.291100 -24.094500 -20.229400
C -32.283400 -24.340100 -21.061600
O -32.223400 -25.325800 -21.745600
H -32.040800 -22.159500 -19.559200
C -31.309900 -22.232300 -20.129600
C -31.232200 -23.281200 -21.029000
O -30.733900 -18.845900 -16.952000
O -30.487500 -20.286800 -19.147600
C -30.296300 -21.292500 -20.080000
C -30.128600 -23.383100 -21.882600
H -30.066200 -24.088800 -22.484300
C -29.763100 -18.638300 -17.640500
C -29.394000 -19.442100 -18.855700
H -29.214600 -18.854300 -19.604900
C -29.211900 -21.379200 -20.924500
C -29.137000 -22.429300 -21.823900
H -29.101700 -17.275900 -16.743800
O -28.882700 -17.699000 -17.411700
H -28.599000 -19.970100 -18.679500
H -28.536800 -20.739500 -20.890600
H -28.406500 -22.492400 -22.395600
43
Fragment
H -33.824000 -18.959400 -21.673800
H -33.406100 -20.280700 -20.938900
O -33.390200 -21.630100 -23.021600
C -33.083600 -19.469500 -21.339600
H -32.610800 -18.954800 -20.680500
H -32.438600 -22.927500 -24.617100
C -32.430100 -20.910000 -23.234800
N -32.172800 -19.799200 -22.450400
H -32.050500 -22.182100 -25.940600
C -31.762700 -22.401000 -25.051800
N -31.540100 -21.166400 -24.290800
C -31.085600 -19.014100 -22.748000
H -30.945700 -22.903300 -25.094800
N -30.666500 -17.922100 -22.047500
C -30.464000 -20.357500 -24.703300
C -30.280900 -19.259900 -23.827400
O -29.797200 -20.634300 -25.685200
C -29.594500 -17.499900 -22.736200
N -29.324300 -18.258200 -23.800000
H -29.091800 -16.755500 -22.496100
H -28.614600 -18.168700 -24.421300
H -33.783300 -24.748900 -20.196200
O -33.291100 -24.094500 -20.229400
C -32.283400 -24.340100 -21.061600
O -32.223400 -25.325800 -21.745600
H -32.040800 -22.159500 -19.559200
C -31.309900 -22.232300 -20.129600
C -31.232200 -23.281200 -21.029000
O -30.733900 -18.845900 -16.952000
O -30.487500 -20.286800 -19.147600
C -30.296300 -21.292500 -20.080000
C -30.128600 -23.383100 -21.882600
H -30.066200 -24.088800 -22.484300
C -29.763100 -18.638300 -17.640500
C -29.394000 -19.442100 -18.855700
H -29.214600 -18.854300 -19.604900
C -29.211900 -21.379200 -20.924500
C -29.137000 -22.429300 -21.823900
H -29.101700 -17.275900 -16.743800
O -28.882700 -17.699000 -17.411700
H -28.599000 -19.970100 -18.679500
H -28.536800 -20.739500 -20.890600
H -28.406500 -22.492400 -22.395600
