21
Fragment
H -33.824000 -18.959400 -21.673800
H -33.406100 -20.280700 -20.938900
O -33.390200 -21.630100 -23.021600
C -33.083600 -19.469500 -21.339600
H -32.610800 -18.954800 -20.680500
H -32.438600 -22.927500 -24.617100
C -32.430100 -20.910000 -23.234800
N -32.172800 -19.799200 -22.450400
H -32.050500 -22.182100 -25.940600
C -31.762700 -22.401000 -25.051800
N -31.540100 -21.166400 -24.290800
C -31.085600 -19.014100 -22.748000
H -30.945700 -22.903300 -25.094800
N -30.666500 -17.922100 -22.047500
C -30.464000 -20.357500 -24.703300
C -30.280900 -19.259900 -23.827400
O -29.797200 -20.634300 -25.685200
C -29.594500 -17.499900 -22.736200
N -29.324300 -18.258200 -23.800000
H -29.091800 -16.755500 -22.496100
H -28.614600 -18.168700 -24.421300
22
Fragment
H -31.938400 -14.506100 -18.562000
H -31.913800 -11.929200 -14.692000
H -31.910900 -13.587300 -16.309200
O -31.431300 -16.717300 -19.809500
C -31.241400 -12.941300 -16.297400
C -31.237200 -11.946100 -15.330200
H -31.190700 -17.110900 -20.487300
H -31.099400 -15.440300 -17.609200
C -31.060500 -14.889300 -18.406700
C -30.628900 -15.703500 -19.586700
H -30.258100 -10.322100 -14.635800
C -30.252000 -10.979500 -15.295000
C -30.229500 -12.954200 -17.246300
O -30.099200 -13.870900 -18.253600
O -29.654100 -15.471300 -20.259400
C -29.245400 -11.002200 -16.263500
C -29.235800 -11.983800 -17.226800
H -28.562300 -11.998700 -17.866300
C -28.190800 -9.952800 -16.249100
O -28.119800 -9.060800 -15.442200
O -27.332100 -10.083000 -17.245000
H -26.756100 -9.502700 -17.186300
43
Fragment
H -33.824000 -18.959400 -21.673800
H -33.406100 -20.280700 -20.938900
O -33.390200 -21.630100 -23.021600
C -33.083600 -19.469500 -21.339600
H -32.610800 -18.954800 -20.680500
H -32.438600 -22.927500 -24.617100
C -32.430100 -20.910000 -23.234800
N -32.172800 -19.799200 -22.450400
H -32.050500 -22.182100 -25.940600
C -31.762700 -22.401000 -25.051800
N -31.540100 -21.166400 -24.290800
C -31.085600 -19.014100 -22.748000
H -30.945700 -22.903300 -25.094800
N -30.666500 -17.922100 -22.047500
C -30.464000 -20.357500 -24.703300
C -30.280900 -19.259900 -23.827400
O -29.797200 -20.634300 -25.685200
C -29.594500 -17.499900 -22.736200
N -29.324300 -18.258200 -23.800000
H -29.091800 -16.755500 -22.496100
H -28.614600 -18.168700 -24.421300
H -31.938400 -14.506100 -18.562000
H -31.913800 -11.929200 -14.692000
H -31.910900 -13.587300 -16.309200
O -31.431300 -16.717300 -19.809500
C -31.241400 -12.941300 -16.297400
C -31.237200 -11.946100 -15.330200
H -31.190700 -17.110900 -20.487300
H -31.099400 -15.440300 -17.609200
C -31.060500 -14.889300 -18.406700
C -30.628900 -15.703500 -19.586700
H -30.258100 -10.322100 -14.635800
C -30.252000 -10.979500 -15.295000
C -30.229500 -12.954200 -17.246300
O -30.099200 -13.870900 -18.253600
O -29.654100 -15.471300 -20.259400
C -29.245400 -11.002200 -16.263500
C -29.235800 -11.983800 -17.226800
H -28.562300 -11.998700 -17.866300
C -28.190800 -9.952800 -16.249100
O -28.119800 -9.060800 -15.442200
O -27.332100 -10.083000 -17.245000
H -26.756100 -9.502700 -17.186300
