21
Fragment
H -33.824000 -18.959400 -21.673800
H -33.406100 -20.280700 -20.938900
O -33.390200 -21.630100 -23.021600
C -33.083600 -19.469500 -21.339600
H -32.610800 -18.954800 -20.680500
H -32.438600 -22.927500 -24.617100
C -32.430100 -20.910000 -23.234800
N -32.172800 -19.799200 -22.450400
H -32.050500 -22.182100 -25.940600
C -31.762700 -22.401000 -25.051800
N -31.540100 -21.166400 -24.290800
C -31.085600 -19.014100 -22.748000
H -30.945700 -22.903300 -25.094800
N -30.666500 -17.922100 -22.047500
C -30.464000 -20.357500 -24.703300
C -30.280900 -19.259900 -23.827400
O -29.797200 -20.634300 -25.685200
C -29.594500 -17.499900 -22.736200
N -29.324300 -18.258200 -23.800000
H -29.091800 -16.755500 -22.496100
H -28.614600 -18.168700 -24.421300
22
Fragment
H -38.645900 -14.358800 -16.762100
H -38.515600 -16.111700 -18.267000
H -38.453400 -16.881200 -20.478100
O -38.169600 -19.152300 -21.745900
H -37.950700 -19.575300 -22.413800
C -37.915400 -14.422000 -17.333800
C -37.840500 -15.472000 -18.233100
H -37.837700 -17.997000 -19.552700
C -37.658400 -17.409200 -20.301900
C -37.289200 -18.213000 -21.517100
H -36.986200 -12.762400 -16.673300
C -36.923700 -13.468100 -17.275100
C -36.756000 -15.558800 -19.077600
O -36.564900 -16.564400 -20.010100
O -36.318500 -18.005400 -22.205700
C -35.820200 -13.570000 -18.128700
C -35.742500 -14.619000 -19.028000
H -35.011500 -14.691800 -19.598400
O -34.828900 -11.525500 -17.412100
C -34.768900 -12.511100 -18.096100
O -33.761300 -12.756700 -18.928300
H -33.269000 -12.102400 -18.961400
43
Fragment
H -33.824000 -18.959400 -21.673800
H -33.406100 -20.280700 -20.938900
O -33.390200 -21.630100 -23.021600
C -33.083600 -19.469500 -21.339600
H -32.610800 -18.954800 -20.680500
H -32.438600 -22.927500 -24.617100
C -32.430100 -20.910000 -23.234800
N -32.172800 -19.799200 -22.450400
H -32.050500 -22.182100 -25.940600
C -31.762700 -22.401000 -25.051800
N -31.540100 -21.166400 -24.290800
C -31.085600 -19.014100 -22.748000
H -30.945700 -22.903300 -25.094800
N -30.666500 -17.922100 -22.047500
C -30.464000 -20.357500 -24.703300
C -30.280900 -19.259900 -23.827400
O -29.797200 -20.634300 -25.685200
C -29.594500 -17.499900 -22.736200
N -29.324300 -18.258200 -23.800000
H -29.091800 -16.755500 -22.496100
H -28.614600 -18.168700 -24.421300
H -38.645900 -14.358800 -16.762100
H -38.515600 -16.111700 -18.267000
H -38.453400 -16.881200 -20.478100
O -38.169600 -19.152300 -21.745900
H -37.950700 -19.575300 -22.413800
C -37.915400 -14.422000 -17.333800
C -37.840500 -15.472000 -18.233100
H -37.837700 -17.997000 -19.552700
C -37.658400 -17.409200 -20.301900
C -37.289200 -18.213000 -21.517100
H -36.986200 -12.762400 -16.673300
C -36.923700 -13.468100 -17.275100
C -36.756000 -15.558800 -19.077600
O -36.564900 -16.564400 -20.010100
O -36.318500 -18.005400 -22.205700
C -35.820200 -13.570000 -18.128700
C -35.742500 -14.619000 -19.028000
H -35.011500 -14.691800 -19.598400
O -34.828900 -11.525500 -17.412100
C -34.768900 -12.511100 -18.096100
O -33.761300 -12.756700 -18.928300
H -33.269000 -12.102400 -18.961400
