32
Fragment
O -11.695200 -50.484900 -11.462100
H -11.691100 -45.983200 -11.184800
H -10.994800 -43.823400 -11.446700
C -10.848400 -45.805000 -11.536900
C -10.578800 -50.464900 -11.924600
O -10.556500 -48.113400 -11.750300
C -10.428200 -44.518700 -11.689600
H -10.353200 -52.211200 -12.080700
C -10.002700 -46.865400 -11.913400
O -9.918200 -51.544500 -12.282800
C -9.779600 -49.218500 -12.180500
H -9.578200 -49.138700 -13.125800
H -9.234000 -42.180100 -12.218600
C -9.142100 -44.219500 -12.213400
H -8.943200 -49.251100 -11.690500
C -8.742000 -46.626100 -12.403400
C -8.676000 -42.896000 -12.423300
C -8.287000 -45.294600 -12.557800
H -8.189200 -47.337500 -12.633200
C -7.427000 -42.649000 -12.918600
H -7.141300 -41.773300 -13.052100
C -6.988400 -45.015400 -13.058200
C -6.570800 -43.728400 -13.227300
H -6.416600 -45.715600 -13.274200
O -5.330700 -43.345900 -13.702600
H -4.737500 -44.987600 -14.645400
C -4.392500 -44.390000 -13.961900
H -4.234900 -44.904600 -13.155300
C -3.115000 -43.754600 -14.427700
O -2.908200 -42.576200 -14.439800
O -2.241900 -44.683800 -14.809300
H -1.536100 -44.323900 -15.020100
24
Fragment
H -3.803400 -38.711400 -15.331400
H -3.474100 -40.009500 -14.518700
C -3.186500 -39.115600 -14.718200
H -3.155100 -38.601700 -13.908200
O -2.406500 -36.136500 -15.445800
N -1.851600 -39.155700 -15.323600
C -1.388600 -36.691000 -15.849200
H -1.382400 -41.101500 -15.275900
H -1.366600 -34.263300 -16.242100
C -1.113300 -38.089700 -15.820600
C -1.110300 -40.246900 -15.518800
C -0.475200 -34.507900 -16.501400
N -0.321200 -35.969200 -16.411200
H -0.314700 -34.223100 -17.404300
C 0.046100 -38.634400 -16.282000
N 0.072300 -39.984300 -16.103300
H 0.156200 -34.084000 -15.915100
C 0.887200 -36.489200 -16.890800
N 1.043000 -37.860600 -16.824900
O 1.760800 -35.770600 -17.354200
C 2.301900 -38.452100 -17.293300
H 2.306100 -39.391300 -17.099900
H 2.384600 -38.320700 -18.241200
H 3.039800 -38.031600 -16.846600
56
Fragment
O -11.695200 -50.484900 -11.462100
H -11.691100 -45.983200 -11.184800
H -10.994800 -43.823400 -11.446700
C -10.848400 -45.805000 -11.536900
C -10.578800 -50.464900 -11.924600
O -10.556500 -48.113400 -11.750300
C -10.428200 -44.518700 -11.689600
H -10.353200 -52.211200 -12.080700
C -10.002700 -46.865400 -11.913400
O -9.918200 -51.544500 -12.282800
C -9.779600 -49.218500 -12.180500
H -9.578200 -49.138700 -13.125800
H -9.234000 -42.180100 -12.218600
C -9.142100 -44.219500 -12.213400
H -8.943200 -49.251100 -11.690500
C -8.742000 -46.626100 -12.403400
C -8.676000 -42.896000 -12.423300
C -8.287000 -45.294600 -12.557800
H -8.189200 -47.337500 -12.633200
C -7.427000 -42.649000 -12.918600
H -7.141300 -41.773300 -13.052100
C -6.988400 -45.015400 -13.058200
C -6.570800 -43.728400 -13.227300
H -6.416600 -45.715600 -13.274200
O -5.330700 -43.345900 -13.702600
H -4.737500 -44.987600 -14.645400
C -4.392500 -44.390000 -13.961900
H -4.234900 -44.904600 -13.155300
C -3.115000 -43.754600 -14.427700
O -2.908200 -42.576200 -14.439800
O -2.241900 -44.683800 -14.809300
H -1.536100 -44.323900 -15.020100
H -3.803400 -38.711400 -15.331400
H -3.474100 -40.009500 -14.518700
C -3.186500 -39.115600 -14.718200
H -3.155100 -38.601700 -13.908200
O -2.406500 -36.136500 -15.445800
N -1.851600 -39.155700 -15.323600
C -1.388600 -36.691000 -15.849200
H -1.382400 -41.101500 -15.275900
H -1.366600 -34.263300 -16.242100
C -1.113300 -38.089700 -15.820600
C -1.110300 -40.246900 -15.518800
C -0.475200 -34.507900 -16.501400
N -0.321200 -35.969200 -16.411200
H -0.314700 -34.223100 -17.404300
C 0.046100 -38.634400 -16.282000
N 0.072300 -39.984300 -16.103300
H 0.156200 -34.084000 -15.915100
C 0.887200 -36.489200 -16.890800
N 1.043000 -37.860600 -16.824900
O 1.760800 -35.770600 -17.354200
C 2.301900 -38.452100 -17.293300
H 2.306100 -39.391300 -17.099900
H 2.384600 -38.320700 -18.241200
H 3.039800 -38.031600 -16.846600
