39
Fragment
O -14.809000 -11.653300 -19.158800
O -14.588600 -12.221600 -21.282400
N -14.113700 -11.785700 -20.203600
H -13.888300 -10.405100 -22.811000
H -13.038000 -10.746700 -24.338100
C -12.905700 -10.501400 -23.275600
C -12.757800 -11.437000 -20.128900
H -12.626300 -12.572300 -22.789200
H -12.400600 -11.077300 -17.967300
O -12.291200 -9.199100 -23.146600
C -12.098000 -11.629000 -22.638400
C -12.028900 -11.140400 -18.982200
N -11.843500 -11.445400 -21.194100
H -11.409600 -9.194300 -23.563700
H -11.121300 -11.712200 -23.123500
N -10.724700 -10.969900 -19.302800
C -10.631600 -11.132800 -20.645200
O -10.395800 -10.652500 -16.092300
H -9.675000 -10.783500 -18.277000
H -9.451200 -10.335100 -22.262100
H -9.364700 -10.663600 -13.759400
C -9.364300 -11.024000 -21.414200
C -9.218600 -10.790400 -16.425100
H -9.060100 -12.001200 -21.811000
O -8.853800 -10.864600 -17.748500
H -8.581800 -10.659400 -20.748500
H -8.459000 -10.655300 -11.654800
C -8.347000 -10.804300 -14.112700
C -8.082700 -10.890900 -15.491700
O -7.509600 -10.796000 -11.827400
C -7.309200 -10.888800 -13.194200
C -6.764600 -11.070400 -15.949600
H -6.535600 -11.151500 -17.008000
C -5.985000 -11.084300 -13.639800
C -5.735700 -11.170900 -15.024300
H -5.143200 -11.435000 -11.872200
O -4.899700 -11.187500 -12.817800
O -4.441500 -11.376100 -15.468600
H -3.872800 -11.489000 -14.682000
39
Fragment
O -1.980500 -12.604200 -12.365400
O -1.760200 -12.035900 -14.489000
N -1.285200 -12.471800 -13.410200
H -1.059800 -13.852400 -16.017500
H -0.209600 -13.510700 -17.544700
C -0.077200 -13.756100 -16.482200
C 0.070600 -12.820400 -13.335500
H 0.202100 -11.685200 -15.995800
H 0.427800 -13.180100 -11.173800
O 0.537300 -15.058300 -16.353100
C 0.730500 -12.628400 -15.845000
C 0.799500 -13.117000 -12.188800
N 0.985000 -12.812100 -14.400700
H 1.418900 -15.063200 -16.770300
H 1.707200 -12.545300 -16.330000
N 2.103700 -13.287500 -12.509400
C 2.196800 -13.124700 -13.851800
O 2.432700 -13.605000 -9.298800
H 3.153400 -13.474000 -11.483600
H 3.377300 -13.922400 -15.468600
H 3.463800 -13.593900 -6.966000
C 3.464100 -13.233500 -14.620800
C 3.609800 -13.467000 -9.631700
H 3.768300 -12.256200 -15.017500
O 3.974600 -13.392900 -10.955100
H 4.246600 -13.598000 -13.955100
H 4.369400 -13.602200 -4.861400
C 4.481500 -13.453200 -7.319200
C 4.745700 -13.366500 -8.698300
O 5.318800 -13.461500 -5.033900
C 5.519300 -13.368600 -6.400800
C 6.063800 -13.187000 -9.156200
H 6.292900 -13.106000 -10.214600
C 6.843400 -13.173200 -6.846400
C 7.092800 -13.086500 -8.230900
H 7.685300 -12.822500 -5.078800
O 7.928700 -13.069900 -6.024400
O 8.386900 -12.881400 -8.675200
H 8.955600 -12.768400 -7.888500
78
Fragment
O -14.809000 -11.653300 -19.158800
O -14.588600 -12.221600 -21.282400
N -14.113700 -11.785700 -20.203600
H -13.888300 -10.405100 -22.811000
H -13.038000 -10.746700 -24.338100
C -12.905700 -10.501400 -23.275600
C -12.757800 -11.437000 -20.128900
H -12.626300 -12.572300 -22.789200
H -12.400600 -11.077300 -17.967300
O -12.291200 -9.199100 -23.146600
C -12.098000 -11.629000 -22.638400
C -12.028900 -11.140400 -18.982200
N -11.843500 -11.445400 -21.194100
H -11.409600 -9.194300 -23.563700
H -11.121300 -11.712200 -23.123500
N -10.724700 -10.969900 -19.302800
C -10.631600 -11.132800 -20.645200
O -10.395800 -10.652500 -16.092300
H -9.675000 -10.783500 -18.277000
H -9.451200 -10.335100 -22.262100
H -9.364700 -10.663600 -13.759400
C -9.364300 -11.024000 -21.414200
C -9.218600 -10.790400 -16.425100
H -9.060100 -12.001200 -21.811000
O -8.853800 -10.864600 -17.748500
H -8.581800 -10.659400 -20.748500
H -8.459000 -10.655300 -11.654800
C -8.347000 -10.804300 -14.112700
C -8.082700 -10.890900 -15.491700
O -7.509600 -10.796000 -11.827400
C -7.309200 -10.888800 -13.194200
C -6.764600 -11.070400 -15.949600
H -6.535600 -11.151500 -17.008000
C -5.985000 -11.084300 -13.639800
C -5.735700 -11.170900 -15.024300
H -5.143200 -11.435000 -11.872200
O -4.899700 -11.187500 -12.817800
O -4.441500 -11.376100 -15.468600
H -3.872800 -11.489000 -14.682000
O -1.980500 -12.604200 -12.365400
O -1.760200 -12.035900 -14.489000
N -1.285200 -12.471800 -13.410200
H -1.059800 -13.852400 -16.017500
H -0.209600 -13.510700 -17.544700
C -0.077200 -13.756100 -16.482200
C 0.070600 -12.820400 -13.335500
H 0.202100 -11.685200 -15.995800
H 0.427800 -13.180100 -11.173800
O 0.537300 -15.058300 -16.353100
C 0.730500 -12.628400 -15.845000
C 0.799500 -13.117000 -12.188800
N 0.985000 -12.812100 -14.400700
H 1.418900 -15.063200 -16.770300
H 1.707200 -12.545300 -16.330000
N 2.103700 -13.287500 -12.509400
C 2.196800 -13.124700 -13.851800
O 2.432700 -13.605000 -9.298800
H 3.153400 -13.474000 -11.483600
H 3.377300 -13.922400 -15.468600
H 3.463800 -13.593900 -6.966000
C 3.464100 -13.233500 -14.620800
C 3.609800 -13.467000 -9.631700
H 3.768300 -12.256200 -15.017500
O 3.974600 -13.392900 -10.955100
H 4.246600 -13.598000 -13.955100
H 4.369400 -13.602200 -4.861400
C 4.481500 -13.453200 -7.319200
C 4.745700 -13.366500 -8.698300
O 5.318800 -13.461500 -5.033900
C 5.519300 -13.368600 -6.400800
C 6.063800 -13.187000 -9.156200
H 6.292900 -13.106000 -10.214600
C 6.843400 -13.173200 -6.846400
C 7.092800 -13.086500 -8.230900
H 7.685300 -12.822500 -5.078800
O 7.928700 -13.069900 -6.024400
O 8.386900 -12.881400 -8.675200
H 8.955600 -12.768400 -7.888500
