39
Fragment
O -14.809000 -11.653300 -19.158800
O -14.588600 -12.221600 -21.282400
N -14.113700 -11.785700 -20.203600
H -13.888300 -10.405100 -22.811000
H -13.038000 -10.746700 -24.338100
C -12.905700 -10.501400 -23.275600
C -12.757800 -11.437000 -20.128900
H -12.626300 -12.572300 -22.789200
H -12.400600 -11.077300 -17.967300
O -12.291200 -9.199100 -23.146600
C -12.098000 -11.629000 -22.638400
C -12.028900 -11.140400 -18.982200
N -11.843500 -11.445400 -21.194100
H -11.409600 -9.194300 -23.563700
H -11.121300 -11.712200 -23.123500
N -10.724700 -10.969900 -19.302800
C -10.631600 -11.132800 -20.645200
O -10.395800 -10.652500 -16.092300
H -9.675000 -10.783500 -18.277000
H -9.451200 -10.335100 -22.262100
H -9.364700 -10.663600 -13.759400
C -9.364300 -11.024000 -21.414200
C -9.218600 -10.790400 -16.425100
H -9.060100 -12.001200 -21.811000
O -8.853800 -10.864600 -17.748500
H -8.581800 -10.659400 -20.748500
H -8.459000 -10.655300 -11.654800
C -8.347000 -10.804300 -14.112700
C -8.082700 -10.890900 -15.491700
O -7.509600 -10.796000 -11.827400
C -7.309200 -10.888800 -13.194200
C -6.764600 -11.070400 -15.949600
H -6.535600 -11.151500 -17.008000
C -5.985000 -11.084300 -13.639800
C -5.735700 -11.170900 -15.024300
H -5.143200 -11.435000 -11.872200
O -4.899700 -11.187500 -12.817800
O -4.441500 -11.376100 -15.468600
H -3.872800 -11.489000 -14.682000
39
Fragment
H -23.872300 -8.023700 -32.872000
O -23.303600 -7.910700 -32.085400
O -22.845500 -7.722200 -34.736100
H -22.602000 -7.969600 -35.681800
C -22.009500 -7.705600 -32.529600
C -21.760200 -7.618900 -33.914100
H -21.209600 -7.686100 -30.546000
C -20.980600 -7.605100 -31.604400
C -20.436000 -7.423500 -34.359800
O -20.235500 -7.330600 -35.726600
C -19.662400 -7.425600 -32.062300
C -19.398200 -7.338900 -33.441300
H -19.286200 -7.189900 -35.899200
H -19.163300 -7.194100 -26.805500
O -18.891400 -7.399200 -29.805500
H -18.685100 -8.535900 -25.743000
C -18.526600 -7.325100 -31.128800
C -18.380900 -7.558600 -26.139700
H -18.380500 -7.198200 -33.794600
H -18.294000 -6.869700 -25.291900
H -18.070200 -7.318100 -29.276900
O -17.349400 -7.187100 -31.461700
C -17.113500 -7.667400 -26.908800
N -17.020400 -7.504600 -28.251100
H -16.623900 -8.246800 -24.430500
H -16.335600 -5.728900 -23.990300
N -15.901700 -7.980000 -26.359900
C -15.716200 -7.675100 -28.571800
C -15.647200 -8.163700 -24.915600
O -15.454000 -5.733800 -24.407400
H -15.344600 -7.612000 -29.586700
H -15.118900 -9.106900 -24.764800
C -14.987300 -7.971700 -27.425100
C -14.839500 -7.036000 -24.278300
H -14.707200 -7.281400 -23.215900
H -13.856900 -6.939700 -24.743000
N -13.631500 -8.320300 -27.350300
O -13.156600 -8.756200 -26.271500
O -12.936200 -8.187900 -28.395200
78
Fragment
O -14.809000 -11.653300 -19.158800
O -14.588600 -12.221600 -21.282400
N -14.113700 -11.785700 -20.203600
H -13.888300 -10.405100 -22.811000
H -13.038000 -10.746700 -24.338100
C -12.905700 -10.501400 -23.275600
C -12.757800 -11.437000 -20.128900
H -12.626300 -12.572300 -22.789200
H -12.400600 -11.077300 -17.967300
O -12.291200 -9.199100 -23.146600
C -12.098000 -11.629000 -22.638400
C -12.028900 -11.140400 -18.982200
N -11.843500 -11.445400 -21.194100
H -11.409600 -9.194300 -23.563700
H -11.121300 -11.712200 -23.123500
N -10.724700 -10.969900 -19.302800
C -10.631600 -11.132800 -20.645200
O -10.395800 -10.652500 -16.092300
H -9.675000 -10.783500 -18.277000
H -9.451200 -10.335100 -22.262100
H -9.364700 -10.663600 -13.759400
C -9.364300 -11.024000 -21.414200
C -9.218600 -10.790400 -16.425100
H -9.060100 -12.001200 -21.811000
O -8.853800 -10.864600 -17.748500
H -8.581800 -10.659400 -20.748500
H -8.459000 -10.655300 -11.654800
C -8.347000 -10.804300 -14.112700
C -8.082700 -10.890900 -15.491700
O -7.509600 -10.796000 -11.827400
C -7.309200 -10.888800 -13.194200
C -6.764600 -11.070400 -15.949600
H -6.535600 -11.151500 -17.008000
C -5.985000 -11.084300 -13.639800
C -5.735700 -11.170900 -15.024300
H -5.143200 -11.435000 -11.872200
O -4.899700 -11.187500 -12.817800
O -4.441500 -11.376100 -15.468600
H -3.872800 -11.489000 -14.682000
H -23.872300 -8.023700 -32.872000
O -23.303600 -7.910700 -32.085400
O -22.845500 -7.722200 -34.736100
H -22.602000 -7.969600 -35.681800
C -22.009500 -7.705600 -32.529600
C -21.760200 -7.618900 -33.914100
H -21.209600 -7.686100 -30.546000
C -20.980600 -7.605100 -31.604400
C -20.436000 -7.423500 -34.359800
O -20.235500 -7.330600 -35.726600
C -19.662400 -7.425600 -32.062300
C -19.398200 -7.338900 -33.441300
H -19.286200 -7.189900 -35.899200
H -19.163300 -7.194100 -26.805500
O -18.891400 -7.399200 -29.805500
H -18.685100 -8.535900 -25.743000
C -18.526600 -7.325100 -31.128800
C -18.380900 -7.558600 -26.139700
H -18.380500 -7.198200 -33.794600
H -18.294000 -6.869700 -25.291900
H -18.070200 -7.318100 -29.276900
O -17.349400 -7.187100 -31.461700
C -17.113500 -7.667400 -26.908800
N -17.020400 -7.504600 -28.251100
H -16.623900 -8.246800 -24.430500
H -16.335600 -5.728900 -23.990300
N -15.901700 -7.980000 -26.359900
C -15.716200 -7.675100 -28.571800
C -15.647200 -8.163700 -24.915600
O -15.454000 -5.733800 -24.407400
H -15.344600 -7.612000 -29.586700
H -15.118900 -9.106900 -24.764800
C -14.987300 -7.971700 -27.425100
C -14.839500 -7.036000 -24.278300
H -14.707200 -7.281400 -23.215900
H -13.856900 -6.939700 -24.743000
N -13.631500 -8.320300 -27.350300
O -13.156600 -8.756200 -26.271500
O -12.936200 -8.187900 -28.395200
