39
Fragment
O -14.809000 -11.653300 -19.158800
O -14.588600 -12.221600 -21.282400
N -14.113700 -11.785700 -20.203600
H -13.888300 -10.405100 -22.811000
H -13.038000 -10.746700 -24.338100
C -12.905700 -10.501400 -23.275600
C -12.757800 -11.437000 -20.128900
H -12.626300 -12.572300 -22.789200
H -12.400600 -11.077300 -17.967300
O -12.291200 -9.199100 -23.146600
C -12.098000 -11.629000 -22.638400
C -12.028900 -11.140400 -18.982200
N -11.843500 -11.445400 -21.194100
H -11.409600 -9.194300 -23.563700
H -11.121300 -11.712200 -23.123500
N -10.724700 -10.969900 -19.302800
C -10.631600 -11.132800 -20.645200
O -10.395800 -10.652500 -16.092300
H -9.675000 -10.783500 -18.277000
H -9.451200 -10.335100 -22.262100
H -9.364700 -10.663600 -13.759400
C -9.364300 -11.024000 -21.414200
C -9.218600 -10.790400 -16.425100
H -9.060100 -12.001200 -21.811000
O -8.853800 -10.864600 -17.748500
H -8.581800 -10.659400 -20.748500
H -8.459000 -10.655300 -11.654800
C -8.347000 -10.804300 -14.112700
C -8.082700 -10.890900 -15.491700
O -7.509600 -10.796000 -11.827400
C -7.309200 -10.888800 -13.194200
C -6.764600 -11.070400 -15.949600
H -6.535600 -11.151500 -17.008000
C -5.985000 -11.084300 -13.639800
C -5.735700 -11.170900 -15.024300
H -5.143200 -11.435000 -11.872200
O -4.899700 -11.187500 -12.817800
O -4.441500 -11.376100 -15.468600
H -3.872800 -11.489000 -14.682000
39
Fragment
O -4.665600 -11.653300 -5.572000
O -4.445200 -12.221600 -7.695600
N -3.970200 -11.785700 -6.616800
H -3.744900 -10.405100 -9.224100
H -2.894600 -10.746700 -10.751300
C -2.762300 -10.501400 -9.688800
C -2.614400 -11.437000 -6.542100
H -2.482900 -12.572300 -9.202400
H -2.257200 -11.077300 -4.380400
O -2.147800 -9.199100 -9.559700
C -1.954600 -11.629000 -9.051600
C -1.885500 -11.140400 -5.395300
N -1.700100 -11.445400 -7.607300
H -1.266200 -9.194300 -9.976800
H -0.977900 -11.712200 -9.536600
N -0.581300 -10.969900 -5.716000
C -0.488200 -11.132800 -7.058400
O -0.252400 -10.652500 -2.505400
H 0.468400 -10.783500 -4.690200
H 0.692200 -10.335100 -8.675200
H 0.778700 -10.663600 -0.172600
C 0.779100 -11.024000 -7.827400
C 0.924800 -10.790400 -2.838300
H 1.083300 -12.001200 -8.224100
O 1.289600 -10.864600 -4.161700
H 1.561600 -10.659400 -7.161600
H 1.684400 -10.655300 1.932100
C 1.796400 -10.804300 -0.525800
C 2.060700 -10.890900 -1.904900
O 2.633800 -10.796000 1.759500
C 2.834300 -10.888800 0.392700
C 3.378800 -11.070400 -2.362800
H 3.607900 -11.151500 -3.421200
C 4.158400 -11.084300 -0.053000
C 4.407700 -11.170900 -1.437500
H 5.000200 -11.435000 1.714700
O 5.243700 -11.187500 0.769000
O 5.701900 -11.376100 -1.881800
H 6.270600 -11.489000 -1.095100
78
Fragment
O -14.809000 -11.653300 -19.158800
O -14.588600 -12.221600 -21.282400
N -14.113700 -11.785700 -20.203600
H -13.888300 -10.405100 -22.811000
H -13.038000 -10.746700 -24.338100
C -12.905700 -10.501400 -23.275600
C -12.757800 -11.437000 -20.128900
H -12.626300 -12.572300 -22.789200
H -12.400600 -11.077300 -17.967300
O -12.291200 -9.199100 -23.146600
C -12.098000 -11.629000 -22.638400
C -12.028900 -11.140400 -18.982200
N -11.843500 -11.445400 -21.194100
H -11.409600 -9.194300 -23.563700
H -11.121300 -11.712200 -23.123500
N -10.724700 -10.969900 -19.302800
C -10.631600 -11.132800 -20.645200
O -10.395800 -10.652500 -16.092300
H -9.675000 -10.783500 -18.277000
H -9.451200 -10.335100 -22.262100
H -9.364700 -10.663600 -13.759400
C -9.364300 -11.024000 -21.414200
C -9.218600 -10.790400 -16.425100
H -9.060100 -12.001200 -21.811000
O -8.853800 -10.864600 -17.748500
H -8.581800 -10.659400 -20.748500
H -8.459000 -10.655300 -11.654800
C -8.347000 -10.804300 -14.112700
C -8.082700 -10.890900 -15.491700
O -7.509600 -10.796000 -11.827400
C -7.309200 -10.888800 -13.194200
C -6.764600 -11.070400 -15.949600
H -6.535600 -11.151500 -17.008000
C -5.985000 -11.084300 -13.639800
C -5.735700 -11.170900 -15.024300
H -5.143200 -11.435000 -11.872200
O -4.899700 -11.187500 -12.817800
O -4.441500 -11.376100 -15.468600
H -3.872800 -11.489000 -14.682000
O -4.665600 -11.653300 -5.572000
O -4.445200 -12.221600 -7.695600
N -3.970200 -11.785700 -6.616800
H -3.744900 -10.405100 -9.224100
H -2.894600 -10.746700 -10.751300
C -2.762300 -10.501400 -9.688800
C -2.614400 -11.437000 -6.542100
H -2.482900 -12.572300 -9.202400
H -2.257200 -11.077300 -4.380400
O -2.147800 -9.199100 -9.559700
C -1.954600 -11.629000 -9.051600
C -1.885500 -11.140400 -5.395300
N -1.700100 -11.445400 -7.607300
H -1.266200 -9.194300 -9.976800
H -0.977900 -11.712200 -9.536600
N -0.581300 -10.969900 -5.716000
C -0.488200 -11.132800 -7.058400
O -0.252400 -10.652500 -2.505400
H 0.468400 -10.783500 -4.690200
H 0.692200 -10.335100 -8.675200
H 0.778700 -10.663600 -0.172600
C 0.779100 -11.024000 -7.827400
C 0.924800 -10.790400 -2.838300
H 1.083300 -12.001200 -8.224100
O 1.289600 -10.864600 -4.161700
H 1.561600 -10.659400 -7.161600
H 1.684400 -10.655300 1.932100
C 1.796400 -10.804300 -0.525800
C 2.060700 -10.890900 -1.904900
O 2.633800 -10.796000 1.759500
C 2.834300 -10.888800 0.392700
C 3.378800 -11.070400 -2.362800
H 3.607900 -11.151500 -3.421200
C 4.158400 -11.084300 -0.053000
C 4.407700 -11.170900 -1.437500
H 5.000200 -11.435000 1.714700
O 5.243700 -11.187500 0.769000
O 5.701900 -11.376100 -1.881800
H 6.270600 -11.489000 -1.095100
