39
Fragment
O -14.809000 -11.653300 -19.158800
O -14.588600 -12.221600 -21.282400
N -14.113700 -11.785700 -20.203600
H -13.888300 -10.405100 -22.811000
H -13.038000 -10.746700 -24.338100
C -12.905700 -10.501400 -23.275600
C -12.757800 -11.437000 -20.128900
H -12.626300 -12.572300 -22.789200
H -12.400600 -11.077300 -17.967300
O -12.291200 -9.199100 -23.146600
C -12.098000 -11.629000 -22.638400
C -12.028900 -11.140400 -18.982200
N -11.843500 -11.445400 -21.194100
H -11.409600 -9.194300 -23.563700
H -11.121300 -11.712200 -23.123500
N -10.724700 -10.969900 -19.302800
C -10.631600 -11.132800 -20.645200
O -10.395800 -10.652500 -16.092300
H -9.675000 -10.783500 -18.277000
H -9.451200 -10.335100 -22.262100
H -9.364700 -10.663600 -13.759400
C -9.364300 -11.024000 -21.414200
C -9.218600 -10.790400 -16.425100
H -9.060100 -12.001200 -21.811000
O -8.853800 -10.864600 -17.748500
H -8.581800 -10.659400 -20.748500
H -8.459000 -10.655300 -11.654800
C -8.347000 -10.804300 -14.112700
C -8.082700 -10.890900 -15.491700
O -7.509600 -10.796000 -11.827400
C -7.309200 -10.888800 -13.194200
C -6.764600 -11.070400 -15.949600
H -6.535600 -11.151500 -17.008000
C -5.985000 -11.084300 -13.639800
C -5.735700 -11.170900 -15.024300
H -5.143200 -11.435000 -11.872200
O -4.899700 -11.187500 -12.817800
O -4.441500 -11.376100 -15.468600
H -3.872800 -11.489000 -14.682000
39
Fragment
O -27.637400 -12.604200 -25.952200
O -27.417100 -12.035900 -28.075900
N -26.942100 -12.471800 -26.997100
H -26.716700 -13.852400 -29.604400
H -25.866500 -13.510700 -31.131600
C -25.734100 -13.756100 -30.069100
C -25.586300 -12.820400 -26.922300
H -25.454800 -11.685200 -29.582700
H -25.229100 -13.180100 -24.760700
O -25.119600 -15.058300 -29.940000
C -24.926400 -12.628400 -29.431800
C -24.857400 -13.117000 -25.775600
N -24.671900 -12.812100 -27.987600
H -24.238000 -15.063200 -30.357100
H -23.949700 -12.545300 -29.916900
N -23.553200 -13.287500 -26.096300
C -23.460100 -13.124700 -27.438600
O -23.224300 -13.605000 -22.885700
H -22.503500 -13.474000 -25.070500
H -22.279600 -13.922400 -29.055500
H -22.193100 -13.593900 -20.552800
C -22.192800 -13.233500 -28.207700
C -22.047100 -13.467000 -23.218600
H -21.888600 -12.256200 -28.604400
O -21.682300 -13.392900 -24.541900
H -21.410300 -13.598000 -27.541900
H -21.287500 -13.602200 -18.448200
C -21.175500 -13.453200 -20.906100
C -20.911200 -13.366500 -22.285200
O -20.338100 -13.461500 -18.620800
C -20.137600 -13.368600 -19.987600
C -19.593100 -13.187000 -22.743000
H -19.364000 -13.106000 -23.801400
C -18.813500 -13.173200 -20.433300
C -18.564100 -13.086500 -21.817800
H -17.971600 -12.822500 -18.665600
O -17.728200 -13.069900 -19.611300
O -17.270000 -12.881400 -22.262100
H -16.701300 -12.768400 -21.475400
78
Fragment
O -14.809000 -11.653300 -19.158800
O -14.588600 -12.221600 -21.282400
N -14.113700 -11.785700 -20.203600
H -13.888300 -10.405100 -22.811000
H -13.038000 -10.746700 -24.338100
C -12.905700 -10.501400 -23.275600
C -12.757800 -11.437000 -20.128900
H -12.626300 -12.572300 -22.789200
H -12.400600 -11.077300 -17.967300
O -12.291200 -9.199100 -23.146600
C -12.098000 -11.629000 -22.638400
C -12.028900 -11.140400 -18.982200
N -11.843500 -11.445400 -21.194100
H -11.409600 -9.194300 -23.563700
H -11.121300 -11.712200 -23.123500
N -10.724700 -10.969900 -19.302800
C -10.631600 -11.132800 -20.645200
O -10.395800 -10.652500 -16.092300
H -9.675000 -10.783500 -18.277000
H -9.451200 -10.335100 -22.262100
H -9.364700 -10.663600 -13.759400
C -9.364300 -11.024000 -21.414200
C -9.218600 -10.790400 -16.425100
H -9.060100 -12.001200 -21.811000
O -8.853800 -10.864600 -17.748500
H -8.581800 -10.659400 -20.748500
H -8.459000 -10.655300 -11.654800
C -8.347000 -10.804300 -14.112700
C -8.082700 -10.890900 -15.491700
O -7.509600 -10.796000 -11.827400
C -7.309200 -10.888800 -13.194200
C -6.764600 -11.070400 -15.949600
H -6.535600 -11.151500 -17.008000
C -5.985000 -11.084300 -13.639800
C -5.735700 -11.170900 -15.024300
H -5.143200 -11.435000 -11.872200
O -4.899700 -11.187500 -12.817800
O -4.441500 -11.376100 -15.468600
H -3.872800 -11.489000 -14.682000
O -27.637400 -12.604200 -25.952200
O -27.417100 -12.035900 -28.075900
N -26.942100 -12.471800 -26.997100
H -26.716700 -13.852400 -29.604400
H -25.866500 -13.510700 -31.131600
C -25.734100 -13.756100 -30.069100
C -25.586300 -12.820400 -26.922300
H -25.454800 -11.685200 -29.582700
H -25.229100 -13.180100 -24.760700
O -25.119600 -15.058300 -29.940000
C -24.926400 -12.628400 -29.431800
C -24.857400 -13.117000 -25.775600
N -24.671900 -12.812100 -27.987600
H -24.238000 -15.063200 -30.357100
H -23.949700 -12.545300 -29.916900
N -23.553200 -13.287500 -26.096300
C -23.460100 -13.124700 -27.438600
O -23.224300 -13.605000 -22.885700
H -22.503500 -13.474000 -25.070500
H -22.279600 -13.922400 -29.055500
H -22.193100 -13.593900 -20.552800
C -22.192800 -13.233500 -28.207700
C -22.047100 -13.467000 -23.218600
H -21.888600 -12.256200 -28.604400
O -21.682300 -13.392900 -24.541900
H -21.410300 -13.598000 -27.541900
H -21.287500 -13.602200 -18.448200
C -21.175500 -13.453200 -20.906100
C -20.911200 -13.366500 -22.285200
O -20.338100 -13.461500 -18.620800
C -20.137600 -13.368600 -19.987600
C -19.593100 -13.187000 -22.743000
H -19.364000 -13.106000 -23.801400
C -18.813500 -13.173200 -20.433300
C -18.564100 -13.086500 -21.817800
H -17.971600 -12.822500 -18.665600
O -17.728200 -13.069900 -19.611300
O -17.270000 -12.881400 -22.262100
H -16.701300 -12.768400 -21.475400
