33
Fragment
H -23.552900 -8.074700 -35.553900
H -23.325500 -9.388500 -36.023900
H -23.246800 -7.767900 -37.649300
H -23.053000 -9.153800 -34.551900
C -23.019500 -8.774900 -35.425200
N -22.344800 -7.396600 -37.721100
H -22.215100 -6.951500 -38.549900
N -21.629200 -8.410400 -35.749300
C -21.334900 -7.691200 -36.892300
H -21.046300 -3.607100 -36.944200
O -20.921000 -9.556300 -33.916100
C -20.657200 -8.857600 -34.876000
C -20.329300 -4.275400 -36.736400
C -20.027700 -7.324400 -37.122400
H -19.914000 -5.103900 -36.157500
H -19.785800 -2.341200 -39.173300
H -19.761000 -3.749900 -36.145100
N -19.673600 -6.700200 -38.317300
N -19.549700 -4.322500 -37.936300
C -19.385000 -5.420600 -38.676000
N -19.354400 -8.451400 -35.133300
H -19.339800 -2.291100 -37.983300
N -19.287400 -7.514300 -39.393500
C -19.163500 -3.060400 -38.475600
H -19.081900 -3.062700 -39.445500
C -19.001700 -7.646400 -36.216900
N -18.899700 -5.411500 -39.925400
N -18.866200 -6.721400 -40.316300
H -18.449400 -8.907000 -33.260500
H -18.431900 -9.856300 -33.757700
C -18.341600 -8.859200 -34.180800
O -17.809700 -7.304700 -36.360400
H -17.618800 -9.248700 -34.769600
33
Fragment
H -16.234300 -13.346500 -28.693500
H -16.234300 -12.128400 -28.154100
O -16.184800 -11.100100 -30.459900
C -15.743200 -12.560500 -28.186300
H -15.425500 -12.871800 -27.238700
H -15.329300 -6.435900 -31.897300
C -15.020400 -11.488200 -30.279300
N -15.010200 -10.659700 -34.388600
N -14.970800 -9.350500 -34.044700
C -14.758100 -6.940900 -32.691400
H -14.696900 -5.999300 -32.463800
N -14.688100 -12.235500 -29.151100
N -14.612300 -11.436600 -33.473200
C -14.529300 -9.342100 -32.780500
N -14.415600 -8.250100 -32.058100
N -14.287400 -10.614100 -32.406900
H -14.068800 -6.669800 -33.332200
C -13.962400 -11.221700 -31.157600
H -13.905600 -7.562100 -30.269400
C -13.615600 -8.186300 -30.828500
C -13.433400 -12.682000 -28.856700
H -13.373600 -7.106500 -30.739500
O -13.194400 -13.374600 -27.904200
H -13.188600 -8.806000 -30.420300
C -12.672700 -11.621900 -30.905200
N -12.416200 -12.295400 -29.742400
H -11.756000 -10.900400 -32.520700
N -11.683200 -11.380400 -31.751300
H -11.199400 -13.191500 -28.480700
C -11.053600 -12.720000 -29.398500
H -10.762200 -11.498800 -31.563300
H -10.717000 -13.343400 -29.999700
H -10.529000 -11.849700 -29.438100
66
Fragment
H -23.552900 -8.074700 -35.553900
H -23.325500 -9.388500 -36.023900
H -23.246800 -7.767900 -37.649300
H -23.053000 -9.153800 -34.551900
C -23.019500 -8.774900 -35.425200
N -22.344800 -7.396600 -37.721100
H -22.215100 -6.951500 -38.549900
N -21.629200 -8.410400 -35.749300
C -21.334900 -7.691200 -36.892300
H -21.046300 -3.607100 -36.944200
O -20.921000 -9.556300 -33.916100
C -20.657200 -8.857600 -34.876000
C -20.329300 -4.275400 -36.736400
C -20.027700 -7.324400 -37.122400
H -19.914000 -5.103900 -36.157500
H -19.785800 -2.341200 -39.173300
H -19.761000 -3.749900 -36.145100
N -19.673600 -6.700200 -38.317300
N -19.549700 -4.322500 -37.936300
C -19.385000 -5.420600 -38.676000
N -19.354400 -8.451400 -35.133300
H -19.339800 -2.291100 -37.983300
N -19.287400 -7.514300 -39.393500
C -19.163500 -3.060400 -38.475600
H -19.081900 -3.062700 -39.445500
C -19.001700 -7.646400 -36.216900
N -18.899700 -5.411500 -39.925400
N -18.866200 -6.721400 -40.316300
H -18.449400 -8.907000 -33.260500
H -18.431900 -9.856300 -33.757700
C -18.341600 -8.859200 -34.180800
O -17.809700 -7.304700 -36.360400
H -17.618800 -9.248700 -34.769600
H -16.234300 -13.346500 -28.693500
H -16.234300 -12.128400 -28.154100
O -16.184800 -11.100100 -30.459900
C -15.743200 -12.560500 -28.186300
H -15.425500 -12.871800 -27.238700
H -15.329300 -6.435900 -31.897300
C -15.020400 -11.488200 -30.279300
N -15.010200 -10.659700 -34.388600
N -14.970800 -9.350500 -34.044700
C -14.758100 -6.940900 -32.691400
H -14.696900 -5.999300 -32.463800
N -14.688100 -12.235500 -29.151100
N -14.612300 -11.436600 -33.473200
C -14.529300 -9.342100 -32.780500
N -14.415600 -8.250100 -32.058100
N -14.287400 -10.614100 -32.406900
H -14.068800 -6.669800 -33.332200
C -13.962400 -11.221700 -31.157600
H -13.905600 -7.562100 -30.269400
C -13.615600 -8.186300 -30.828500
C -13.433400 -12.682000 -28.856700
H -13.373600 -7.106500 -30.739500
O -13.194400 -13.374600 -27.904200
H -13.188600 -8.806000 -30.420300
C -12.672700 -11.621900 -30.905200
N -12.416200 -12.295400 -29.742400
H -11.756000 -10.900400 -32.520700
N -11.683200 -11.380400 -31.751300
H -11.199400 -13.191500 -28.480700
C -11.053600 -12.720000 -29.398500
H -10.762200 -11.498800 -31.563300
H -10.717000 -13.343400 -29.999700
H -10.529000 -11.849700 -29.438100
