39
Fragment
O -14.809000 -11.653300 -19.158800
O -14.588600 -12.221600 -21.282400
N -14.113700 -11.785700 -20.203600
H -13.888300 -10.405100 -22.811000
H -13.038000 -10.746700 -24.338100
C -12.905700 -10.501400 -23.275600
C -12.757800 -11.437000 -20.128900
H -12.626300 -12.572300 -22.789200
H -12.400600 -11.077300 -17.967300
O -12.291200 -9.199100 -23.146600
C -12.098000 -11.629000 -22.638400
C -12.028900 -11.140400 -18.982200
N -11.843500 -11.445400 -21.194100
H -11.409600 -9.194300 -23.563700
H -11.121300 -11.712200 -23.123500
N -10.724700 -10.969900 -19.302800
C -10.631600 -11.132800 -20.645200
O -10.395800 -10.652500 -16.092300
H -9.675000 -10.783500 -18.277000
H -9.451200 -10.335100 -22.262100
H -9.364700 -10.663600 -13.759400
C -9.364300 -11.024000 -21.414200
C -9.218600 -10.790400 -16.425100
H -9.060100 -12.001200 -21.811000
O -8.853800 -10.864600 -17.748500
H -8.581800 -10.659400 -20.748500
H -8.459000 -10.655300 -11.654800
C -8.347000 -10.804300 -14.112700
C -8.082700 -10.890900 -15.491700
O -7.509600 -10.796000 -11.827400
C -7.309200 -10.888800 -13.194200
C -6.764600 -11.070400 -15.949600
H -6.535600 -11.151500 -17.008000
C -5.985000 -11.084300 -13.639800
C -5.735700 -11.170900 -15.024300
H -5.143200 -11.435000 -11.872200
O -4.899700 -11.187500 -12.817800
O -4.441500 -11.376100 -15.468600
H -3.872800 -11.489000 -14.682000
39
Fragment
H -13.728900 -14.954400 -19.285200
O -13.160200 -14.841400 -18.498500
O -12.702000 -14.652900 -21.149300
H -12.458600 -14.900300 -22.094900
C -11.866100 -14.636300 -18.942800
C -11.616800 -14.549600 -20.327300
H -11.066200 -14.616800 -16.959100
C -10.837200 -14.535800 -18.017500
C -10.292600 -14.354200 -20.772900
O -10.092100 -14.261300 -22.139800
C -9.519000 -14.356300 -18.475400
C -9.254800 -14.269600 -19.854500
H -9.142800 -14.120600 -22.312300
H -9.019900 -14.124800 -13.218600
O -8.748000 -14.329900 -16.218600
H -8.541600 -15.466600 -12.156200
C -8.383200 -14.255800 -17.542000
C -8.237500 -14.489300 -12.552900
H -8.237100 -14.128900 -20.207700
H -8.150600 -13.800400 -11.705100
H -7.926800 -14.248800 -15.690100
O -7.206000 -14.117800 -17.874900
C -6.970100 -14.598100 -13.321900
N -6.877000 -14.435300 -14.664300
H -6.480500 -15.177500 -10.843700
H -6.192200 -12.659600 -10.403500
N -5.758300 -14.910700 -12.773000
C -5.572800 -14.605800 -14.984900
C -5.503800 -15.094400 -11.328700
O -5.310600 -12.664500 -10.820600
H -5.201200 -14.542700 -15.999900
H -4.975500 -16.037600 -11.177900
C -4.843900 -14.902400 -13.838200
C -4.696100 -13.966700 -10.691500
H -4.563700 -14.212100 -9.629000
H -3.713500 -13.870400 -11.156200
N -3.488100 -15.251000 -13.763500
O -3.013200 -15.686900 -12.684700
O -2.792800 -15.118600 -14.808300
78
Fragment
O -14.809000 -11.653300 -19.158800
O -14.588600 -12.221600 -21.282400
N -14.113700 -11.785700 -20.203600
H -13.888300 -10.405100 -22.811000
H -13.038000 -10.746700 -24.338100
C -12.905700 -10.501400 -23.275600
C -12.757800 -11.437000 -20.128900
H -12.626300 -12.572300 -22.789200
H -12.400600 -11.077300 -17.967300
O -12.291200 -9.199100 -23.146600
C -12.098000 -11.629000 -22.638400
C -12.028900 -11.140400 -18.982200
N -11.843500 -11.445400 -21.194100
H -11.409600 -9.194300 -23.563700
H -11.121300 -11.712200 -23.123500
N -10.724700 -10.969900 -19.302800
C -10.631600 -11.132800 -20.645200
O -10.395800 -10.652500 -16.092300
H -9.675000 -10.783500 -18.277000
H -9.451200 -10.335100 -22.262100
H -9.364700 -10.663600 -13.759400
C -9.364300 -11.024000 -21.414200
C -9.218600 -10.790400 -16.425100
H -9.060100 -12.001200 -21.811000
O -8.853800 -10.864600 -17.748500
H -8.581800 -10.659400 -20.748500
H -8.459000 -10.655300 -11.654800
C -8.347000 -10.804300 -14.112700
C -8.082700 -10.890900 -15.491700
O -7.509600 -10.796000 -11.827400
C -7.309200 -10.888800 -13.194200
C -6.764600 -11.070400 -15.949600
H -6.535600 -11.151500 -17.008000
C -5.985000 -11.084300 -13.639800
C -5.735700 -11.170900 -15.024300
H -5.143200 -11.435000 -11.872200
O -4.899700 -11.187500 -12.817800
O -4.441500 -11.376100 -15.468600
H -3.872800 -11.489000 -14.682000
H -13.728900 -14.954400 -19.285200
O -13.160200 -14.841400 -18.498500
O -12.702000 -14.652900 -21.149300
H -12.458600 -14.900300 -22.094900
C -11.866100 -14.636300 -18.942800
C -11.616800 -14.549600 -20.327300
H -11.066200 -14.616800 -16.959100
C -10.837200 -14.535800 -18.017500
C -10.292600 -14.354200 -20.772900
O -10.092100 -14.261300 -22.139800
C -9.519000 -14.356300 -18.475400
C -9.254800 -14.269600 -19.854500
H -9.142800 -14.120600 -22.312300
H -9.019900 -14.124800 -13.218600
O -8.748000 -14.329900 -16.218600
H -8.541600 -15.466600 -12.156200
C -8.383200 -14.255800 -17.542000
C -8.237500 -14.489300 -12.552900
H -8.237100 -14.128900 -20.207700
H -8.150600 -13.800400 -11.705100
H -7.926800 -14.248800 -15.690100
O -7.206000 -14.117800 -17.874900
C -6.970100 -14.598100 -13.321900
N -6.877000 -14.435300 -14.664300
H -6.480500 -15.177500 -10.843700
H -6.192200 -12.659600 -10.403500
N -5.758300 -14.910700 -12.773000
C -5.572800 -14.605800 -14.984900
C -5.503800 -15.094400 -11.328700
O -5.310600 -12.664500 -10.820600
H -5.201200 -14.542700 -15.999900
H -4.975500 -16.037600 -11.177900
C -4.843900 -14.902400 -13.838200
C -4.696100 -13.966700 -10.691500
H -4.563700 -14.212100 -9.629000
H -3.713500 -13.870400 -11.156200
N -3.488100 -15.251000 -13.763500
O -3.013200 -15.686900 -12.684700
O -2.792800 -15.118600 -14.808300
