33
Fragment
H -23.552900 -8.074700 -35.553900
H -23.325500 -9.388500 -36.023900
H -23.246800 -7.767900 -37.649300
H -23.053000 -9.153800 -34.551900
C -23.019500 -8.774900 -35.425200
N -22.344800 -7.396600 -37.721100
H -22.215100 -6.951500 -38.549900
N -21.629200 -8.410400 -35.749300
C -21.334900 -7.691200 -36.892300
H -21.046300 -3.607100 -36.944200
O -20.921000 -9.556300 -33.916100
C -20.657200 -8.857600 -34.876000
C -20.329300 -4.275400 -36.736400
C -20.027700 -7.324400 -37.122400
H -19.914000 -5.103900 -36.157500
H -19.785800 -2.341200 -39.173300
H -19.761000 -3.749900 -36.145100
N -19.673600 -6.700200 -38.317300
N -19.549700 -4.322500 -37.936300
C -19.385000 -5.420600 -38.676000
N -19.354400 -8.451400 -35.133300
H -19.339800 -2.291100 -37.983300
N -19.287400 -7.514300 -39.393500
C -19.163500 -3.060400 -38.475600
H -19.081900 -3.062700 -39.445500
C -19.001700 -7.646400 -36.216900
N -18.899700 -5.411500 -39.925400
N -18.866200 -6.721400 -40.316300
H -18.449400 -8.907000 -33.260500
H -18.431900 -9.856300 -33.757700
C -18.341600 -8.859200 -34.180800
O -17.809700 -7.304700 -36.360400
H -17.618800 -9.248700 -34.769600
33
Fragment
H -16.234300 -3.059600 -40.524100
H -16.234300 -1.841500 -41.063500
O -16.184800 -4.087900 -42.829900
C -15.743200 -2.627500 -40.556300
H -15.425500 -2.316200 -39.608700
H -15.329300 -8.752100 -44.267300
C -15.020400 -3.699800 -42.649300
N -15.010200 -4.528300 -46.758600
N -14.970800 -5.837500 -46.414700
C -14.758100 -8.247100 -45.061400
H -14.696900 -9.188700 -44.833800
N -14.688100 -2.952500 -41.521100
N -14.612300 -3.751400 -45.843200
C -14.529300 -5.845900 -45.150500
N -14.415600 -6.937900 -44.428100
N -14.287400 -4.573900 -44.776900
H -14.068800 -8.518200 -45.702200
C -13.962400 -3.966300 -43.527600
H -13.905600 -7.625900 -42.639400
C -13.615600 -7.001700 -43.198500
C -13.433400 -2.506000 -41.226700
H -13.373600 -8.081500 -43.109400
O -13.194400 -1.813400 -40.274200
H -13.188600 -6.382000 -42.790300
C -12.672700 -3.566100 -43.275200
N -12.416200 -2.892600 -42.112400
H -11.756000 -4.287600 -44.890700
N -11.683200 -3.807600 -44.121300
H -11.199400 -1.996500 -40.850700
C -11.053600 -2.468100 -41.768500
H -10.762200 -3.689200 -43.933300
H -10.717000 -1.844600 -42.369700
H -10.529000 -3.338300 -41.808100
66
Fragment
H -23.552900 -8.074700 -35.553900
H -23.325500 -9.388500 -36.023900
H -23.246800 -7.767900 -37.649300
H -23.053000 -9.153800 -34.551900
C -23.019500 -8.774900 -35.425200
N -22.344800 -7.396600 -37.721100
H -22.215100 -6.951500 -38.549900
N -21.629200 -8.410400 -35.749300
C -21.334900 -7.691200 -36.892300
H -21.046300 -3.607100 -36.944200
O -20.921000 -9.556300 -33.916100
C -20.657200 -8.857600 -34.876000
C -20.329300 -4.275400 -36.736400
C -20.027700 -7.324400 -37.122400
H -19.914000 -5.103900 -36.157500
H -19.785800 -2.341200 -39.173300
H -19.761000 -3.749900 -36.145100
N -19.673600 -6.700200 -38.317300
N -19.549700 -4.322500 -37.936300
C -19.385000 -5.420600 -38.676000
N -19.354400 -8.451400 -35.133300
H -19.339800 -2.291100 -37.983300
N -19.287400 -7.514300 -39.393500
C -19.163500 -3.060400 -38.475600
H -19.081900 -3.062700 -39.445500
C -19.001700 -7.646400 -36.216900
N -18.899700 -5.411500 -39.925400
N -18.866200 -6.721400 -40.316300
H -18.449400 -8.907000 -33.260500
H -18.431900 -9.856300 -33.757700
C -18.341600 -8.859200 -34.180800
O -17.809700 -7.304700 -36.360400
H -17.618800 -9.248700 -34.769600
H -16.234300 -3.059600 -40.524100
H -16.234300 -1.841500 -41.063500
O -16.184800 -4.087900 -42.829900
C -15.743200 -2.627500 -40.556300
H -15.425500 -2.316200 -39.608700
H -15.329300 -8.752100 -44.267300
C -15.020400 -3.699800 -42.649300
N -15.010200 -4.528300 -46.758600
N -14.970800 -5.837500 -46.414700
C -14.758100 -8.247100 -45.061400
H -14.696900 -9.188700 -44.833800
N -14.688100 -2.952500 -41.521100
N -14.612300 -3.751400 -45.843200
C -14.529300 -5.845900 -45.150500
N -14.415600 -6.937900 -44.428100
N -14.287400 -4.573900 -44.776900
H -14.068800 -8.518200 -45.702200
C -13.962400 -3.966300 -43.527600
H -13.905600 -7.625900 -42.639400
C -13.615600 -7.001700 -43.198500
C -13.433400 -2.506000 -41.226700
H -13.373600 -8.081500 -43.109400
O -13.194400 -1.813400 -40.274200
H -13.188600 -6.382000 -42.790300
C -12.672700 -3.566100 -43.275200
N -12.416200 -2.892600 -42.112400
H -11.756000 -4.287600 -44.890700
N -11.683200 -3.807600 -44.121300
H -11.199400 -1.996500 -40.850700
C -11.053600 -2.468100 -41.768500
H -10.762200 -3.689200 -43.933300
H -10.717000 -1.844600 -42.369700
H -10.529000 -3.338300 -41.808100
