39
Fragment
O -14.809000 -11.653300 -19.158800
O -14.588600 -12.221600 -21.282400
N -14.113700 -11.785700 -20.203600
H -13.888300 -10.405100 -22.811000
H -13.038000 -10.746700 -24.338100
C -12.905700 -10.501400 -23.275600
C -12.757800 -11.437000 -20.128900
H -12.626300 -12.572300 -22.789200
H -12.400600 -11.077300 -17.967300
O -12.291200 -9.199100 -23.146600
C -12.098000 -11.629000 -22.638400
C -12.028900 -11.140400 -18.982200
N -11.843500 -11.445400 -21.194100
H -11.409600 -9.194300 -23.563700
H -11.121300 -11.712200 -23.123500
N -10.724700 -10.969900 -19.302800
C -10.631600 -11.132800 -20.645200
O -10.395800 -10.652500 -16.092300
H -9.675000 -10.783500 -18.277000
H -9.451200 -10.335100 -22.262100
H -9.364700 -10.663600 -13.759400
C -9.364300 -11.024000 -21.414200
C -9.218600 -10.790400 -16.425100
H -9.060100 -12.001200 -21.811000
O -8.853800 -10.864600 -17.748500
H -8.581800 -10.659400 -20.748500
H -8.459000 -10.655300 -11.654800
C -8.347000 -10.804300 -14.112700
C -8.082700 -10.890900 -15.491700
O -7.509600 -10.796000 -11.827400
C -7.309200 -10.888800 -13.194200
C -6.764600 -11.070400 -15.949600
H -6.535600 -11.151500 -17.008000
C -5.985000 -11.084300 -13.639800
C -5.735700 -11.170900 -15.024300
H -5.143200 -11.435000 -11.872200
O -4.899700 -11.187500 -12.817800
O -4.441500 -11.376100 -15.468600
H -3.872800 -11.489000 -14.682000
39
Fragment
H -26.557400 -9.303100 -26.078600
O -25.988700 -9.416000 -25.291900
O -25.530500 -9.604600 -27.942700
H -25.287100 -9.357100 -28.888400
C -24.694600 -9.621200 -25.736200
C -24.445200 -9.707800 -27.120700
H -23.894700 -9.640600 -23.752500
C -23.665600 -9.721700 -24.810900
C -23.121100 -9.903300 -27.566400
O -22.920600 -9.996100 -28.933200
C -22.347500 -9.901200 -25.268800
C -22.083200 -9.987800 -26.647900
H -21.971200 -10.136800 -29.105800
H -21.848400 -10.132700 -20.012100
O -21.576400 -9.927500 -23.012100
H -21.370100 -8.790900 -18.949600
C -21.211600 -10.001700 -24.335400
C -21.065900 -9.768100 -19.346300
H -21.065500 -10.128500 -27.001200
H -20.979000 -10.457000 -18.498500
H -20.755200 -10.008600 -22.483500
O -20.034400 -10.139600 -24.668300
C -19.798600 -9.659300 -20.115300
N -19.705500 -9.822200 -21.457700
H -19.309000 -9.079900 -17.637100
H -19.020600 -11.597800 -17.196900
N -18.586700 -9.346700 -19.566400
C -18.401300 -9.651700 -21.778400
C -18.332300 -9.163100 -18.122100
O -18.139100 -11.593000 -17.614000
H -18.029600 -9.714800 -22.793300
H -17.803900 -8.219800 -17.971300
C -17.672400 -9.355100 -20.631600
C -17.524500 -10.290700 -17.484900
H -17.392200 -10.045400 -16.422400
H -16.541900 -10.387000 -17.949600
N -16.316600 -9.006400 -20.556900
O -15.841600 -8.570500 -19.478100
O -15.621300 -9.138800 -21.601700
78
Fragment
O -14.809000 -11.653300 -19.158800
O -14.588600 -12.221600 -21.282400
N -14.113700 -11.785700 -20.203600
H -13.888300 -10.405100 -22.811000
H -13.038000 -10.746700 -24.338100
C -12.905700 -10.501400 -23.275600
C -12.757800 -11.437000 -20.128900
H -12.626300 -12.572300 -22.789200
H -12.400600 -11.077300 -17.967300
O -12.291200 -9.199100 -23.146600
C -12.098000 -11.629000 -22.638400
C -12.028900 -11.140400 -18.982200
N -11.843500 -11.445400 -21.194100
H -11.409600 -9.194300 -23.563700
H -11.121300 -11.712200 -23.123500
N -10.724700 -10.969900 -19.302800
C -10.631600 -11.132800 -20.645200
O -10.395800 -10.652500 -16.092300
H -9.675000 -10.783500 -18.277000
H -9.451200 -10.335100 -22.262100
H -9.364700 -10.663600 -13.759400
C -9.364300 -11.024000 -21.414200
C -9.218600 -10.790400 -16.425100
H -9.060100 -12.001200 -21.811000
O -8.853800 -10.864600 -17.748500
H -8.581800 -10.659400 -20.748500
H -8.459000 -10.655300 -11.654800
C -8.347000 -10.804300 -14.112700
C -8.082700 -10.890900 -15.491700
O -7.509600 -10.796000 -11.827400
C -7.309200 -10.888800 -13.194200
C -6.764600 -11.070400 -15.949600
H -6.535600 -11.151500 -17.008000
C -5.985000 -11.084300 -13.639800
C -5.735700 -11.170900 -15.024300
H -5.143200 -11.435000 -11.872200
O -4.899700 -11.187500 -12.817800
O -4.441500 -11.376100 -15.468600
H -3.872800 -11.489000 -14.682000
H -26.557400 -9.303100 -26.078600
O -25.988700 -9.416000 -25.291900
O -25.530500 -9.604600 -27.942700
H -25.287100 -9.357100 -28.888400
C -24.694600 -9.621200 -25.736200
C -24.445200 -9.707800 -27.120700
H -23.894700 -9.640600 -23.752500
C -23.665600 -9.721700 -24.810900
C -23.121100 -9.903300 -27.566400
O -22.920600 -9.996100 -28.933200
C -22.347500 -9.901200 -25.268800
C -22.083200 -9.987800 -26.647900
H -21.971200 -10.136800 -29.105800
H -21.848400 -10.132700 -20.012100
O -21.576400 -9.927500 -23.012100
H -21.370100 -8.790900 -18.949600
C -21.211600 -10.001700 -24.335400
C -21.065900 -9.768100 -19.346300
H -21.065500 -10.128500 -27.001200
H -20.979000 -10.457000 -18.498500
H -20.755200 -10.008600 -22.483500
O -20.034400 -10.139600 -24.668300
C -19.798600 -9.659300 -20.115300
N -19.705500 -9.822200 -21.457700
H -19.309000 -9.079900 -17.637100
H -19.020600 -11.597800 -17.196900
N -18.586700 -9.346700 -19.566400
C -18.401300 -9.651700 -21.778400
C -18.332300 -9.163100 -18.122100
O -18.139100 -11.593000 -17.614000
H -18.029600 -9.714800 -22.793300
H -17.803900 -8.219800 -17.971300
C -17.672400 -9.355100 -20.631600
C -17.524500 -10.290700 -17.484900
H -17.392200 -10.045400 -16.422400
H -16.541900 -10.387000 -17.949600
N -16.316600 -9.006400 -20.556900
O -15.841600 -8.570500 -19.478100
O -15.621300 -9.138800 -21.601700
