3
Fragment
H -13.579200 -18.090800 -16.381600
O -12.908500 -18.291600 -15.769700
H -12.262100 -17.802400 -15.991300
30
Fragment
H -11.495200 -22.152000 -18.226800
H -11.456900 -22.484300 -16.045700
H -11.134300 -20.198700 -16.452600
H -10.752500 -18.781900 -14.567200
O -10.718900 -22.450800 -17.883500
C -10.614100 -22.211400 -16.487900
O -10.421500 -17.202400 -12.746500
C -10.339900 -20.745000 -16.186800
O -10.167900 -20.671600 -14.754500
C -10.088000 -18.232500 -12.142400
N -9.991800 -18.267700 -10.783400
C -9.953100 -19.336300 -14.334400
H -9.881400 -22.763500 -16.115500
H -9.811400 -18.741500 -8.361100
N -9.805700 -19.391200 -12.868900
C -9.612200 -19.398000 -10.170700
N -9.576900 -19.420400 -8.841600
H -9.461200 -18.261600 -16.750700
C -9.379600 -20.526700 -12.242000
H -9.261200 -20.179100 -8.441600
C -9.257000 -20.568100 -10.903900
H -9.247000 -20.221800 -17.856600
H -9.167800 -21.295900 -12.757600
C -9.107000 -20.203300 -16.877000
H -8.945300 -21.349000 -10.463000
N -8.802400 -18.828700 -16.457700
C -8.719400 -18.741900 -14.992300
H -8.628500 -17.793100 -14.724600
H -8.334200 -20.786000 -16.669100
H -7.914100 -19.226100 -14.679600
33
Fragment
H -13.579200 -18.090800 -16.381600
O -12.908500 -18.291600 -15.769700
H -12.262100 -17.802400 -15.991300
H -11.495200 -22.152000 -18.226800
H -11.456900 -22.484300 -16.045700
H -11.134300 -20.198700 -16.452600
H -10.752500 -18.781900 -14.567200
O -10.718900 -22.450800 -17.883500
C -10.614100 -22.211400 -16.487900
O -10.421500 -17.202400 -12.746500
C -10.339900 -20.745000 -16.186800
O -10.167900 -20.671600 -14.754500
C -10.088000 -18.232500 -12.142400
N -9.991800 -18.267700 -10.783400
C -9.953100 -19.336300 -14.334400
H -9.881400 -22.763500 -16.115500
H -9.811400 -18.741500 -8.361100
N -9.805700 -19.391200 -12.868900
C -9.612200 -19.398000 -10.170700
N -9.576900 -19.420400 -8.841600
H -9.461200 -18.261600 -16.750700
C -9.379600 -20.526700 -12.242000
H -9.261200 -20.179100 -8.441600
C -9.257000 -20.568100 -10.903900
H -9.247000 -20.221800 -17.856600
H -9.167800 -21.295900 -12.757600
C -9.107000 -20.203300 -16.877000
H -8.945300 -21.349000 -10.463000
N -8.802400 -18.828700 -16.457700
C -8.719400 -18.741900 -14.992300
H -8.628500 -17.793100 -14.724600
H -8.334200 -20.786000 -16.669100
H -7.914100 -19.226100 -14.679600
