3
Fragment
H -13.579200 -18.090800 -16.381600
O -12.908500 -18.291600 -15.769700
H -12.262100 -17.802400 -15.991300
30
Fragment
H -17.093600 -13.457300 -14.890100
H -16.673500 -15.017200 -12.900700
H -16.379200 -12.024400 -14.845200
C -16.288300 -12.973100 -14.577400
N -16.205300 -13.060000 -13.112100
H -16.062400 -15.580200 -19.106800
C -15.900700 -14.434600 -12.692800
H -15.839900 -15.527200 -16.812200
H -15.760700 -14.453000 -11.713200
C -15.750700 -14.799400 -18.665800
H -15.746500 -14.410300 -21.128200
C -15.628100 -14.758000 -17.327800
H -15.546500 -12.492800 -12.819100
N -15.430800 -13.651600 -20.728200
C -15.395500 -13.629200 -19.399100
N -15.202000 -13.622400 -16.700900
H -15.196300 -12.972800 -21.208600
H -15.126300 -16.994700 -13.454200
C -15.054600 -13.567500 -15.235400
N -15.015900 -12.498900 -18.786400
C -14.919700 -12.463700 -17.427300
O -14.839800 -14.902900 -14.815300
C -14.667800 -14.976300 -13.382900
O -14.586200 -11.433700 -16.823300
C -14.393600 -16.442700 -13.081900
O -14.288800 -16.682100 -11.686200
H -14.255200 -13.013100 -15.002500
H -13.873400 -14.430000 -13.117100
H -13.550800 -16.715500 -13.524000
H -13.512500 -16.383200 -11.343000
33
Fragment
H -13.579200 -18.090800 -16.381600
O -12.908500 -18.291600 -15.769700
H -12.262100 -17.802400 -15.991300
H -17.093600 -13.457300 -14.890100
H -16.673500 -15.017200 -12.900700
H -16.379200 -12.024400 -14.845200
C -16.288300 -12.973100 -14.577400
N -16.205300 -13.060000 -13.112100
H -16.062400 -15.580200 -19.106800
C -15.900700 -14.434600 -12.692800
H -15.839900 -15.527200 -16.812200
H -15.760700 -14.453000 -11.713200
C -15.750700 -14.799400 -18.665800
H -15.746500 -14.410300 -21.128200
C -15.628100 -14.758000 -17.327800
H -15.546500 -12.492800 -12.819100
N -15.430800 -13.651600 -20.728200
C -15.395500 -13.629200 -19.399100
N -15.202000 -13.622400 -16.700900
H -15.196300 -12.972800 -21.208600
H -15.126300 -16.994700 -13.454200
C -15.054600 -13.567500 -15.235400
N -15.015900 -12.498900 -18.786400
C -14.919700 -12.463700 -17.427300
O -14.839800 -14.902900 -14.815300
C -14.667800 -14.976300 -13.382900
O -14.586200 -11.433700 -16.823300
C -14.393600 -16.442700 -13.081900
O -14.288800 -16.682100 -11.686200
H -14.255200 -13.013100 -15.002500
H -13.873400 -14.430000 -13.117100
H -13.550800 -16.715500 -13.524000
H -13.512500 -16.383200 -11.343000
