3
Fragment
H -13.579200 -18.090800 -16.381600
O -12.908500 -18.291600 -15.769700
H -12.262100 -17.802400 -15.991300
30
Fragment
H -12.925600 -15.386400 -20.593600
H -12.505500 -13.826500 -22.583000
H -12.211300 -16.819400 -20.638500
C -12.120400 -15.870600 -20.906300
N -12.037400 -15.783800 -22.371600
H -11.894500 -13.263500 -16.376900
C -11.732800 -14.409200 -22.790900
H -11.671900 -13.316600 -18.671500
H -11.592700 -14.390700 -23.770500
C -11.582700 -14.044400 -16.817900
H -11.578600 -14.433400 -14.355500
C -11.460200 -14.085800 -18.155900
H -11.378500 -16.350900 -22.664600
N -11.262900 -15.192100 -14.755500
C -11.227500 -15.214500 -16.084600
N -11.034100 -15.221300 -18.782800
H -11.028400 -15.871000 -14.275100
H -10.958400 -11.849000 -22.029500
C -10.886700 -15.276200 -20.248300
N -10.847900 -16.344800 -16.697300
C -10.751700 -16.380000 -18.056400
O -10.671900 -13.940900 -20.668400
C -10.499900 -13.867500 -22.100800
O -10.418300 -17.410100 -18.660400
C -10.225600 -12.401100 -22.401800
O -10.120900 -12.161700 -23.797500
H -10.087300 -15.830600 -20.481200
H -9.705500 -14.413800 -22.366600
H -9.382900 -12.128200 -21.959700
H -9.344500 -12.460500 -24.140700
33
Fragment
H -13.579200 -18.090800 -16.381600
O -12.908500 -18.291600 -15.769700
H -12.262100 -17.802400 -15.991300
H -12.925600 -15.386400 -20.593600
H -12.505500 -13.826500 -22.583000
H -12.211300 -16.819400 -20.638500
C -12.120400 -15.870600 -20.906300
N -12.037400 -15.783800 -22.371600
H -11.894500 -13.263500 -16.376900
C -11.732800 -14.409200 -22.790900
H -11.671900 -13.316600 -18.671500
H -11.592700 -14.390700 -23.770500
C -11.582700 -14.044400 -16.817900
H -11.578600 -14.433400 -14.355500
C -11.460200 -14.085800 -18.155900
H -11.378500 -16.350900 -22.664600
N -11.262900 -15.192100 -14.755500
C -11.227500 -15.214500 -16.084600
N -11.034100 -15.221300 -18.782800
H -11.028400 -15.871000 -14.275100
H -10.958400 -11.849000 -22.029500
C -10.886700 -15.276200 -20.248300
N -10.847900 -16.344800 -16.697300
C -10.751700 -16.380000 -18.056400
O -10.671900 -13.940900 -20.668400
C -10.499900 -13.867500 -22.100800
O -10.418300 -17.410100 -18.660400
C -10.225600 -12.401100 -22.401800
O -10.120900 -12.161700 -23.797500
H -10.087300 -15.830600 -20.481200
H -9.705500 -14.413800 -22.366600
H -9.382900 -12.128200 -21.959700
H -9.344500 -12.460500 -24.140700
