29
Fragment
H -11.623700 -19.280100 -38.710700
O -11.070700 -19.697900 -39.146600
H -11.016300 -19.965100 -36.536900
H -10.714700 -20.560100 -29.943600
H -10.552000 -20.550700 -32.261100
H -10.342600 -20.782700 -34.411700
C -10.321400 -20.447000 -36.970400
C -10.206300 -20.409700 -38.355800
C -9.992800 -21.011400 -30.366100
C -9.893300 -21.003000 -31.747900
C -9.554900 -21.184600 -34.758100
C -9.408800 -21.197600 -36.216000
O -9.201500 -21.644200 -28.235100
C -9.188000 -21.097100 -39.009000
H -9.108800 -21.054100 -39.955000
C -9.043500 -21.675300 -29.589100
C -8.835700 -21.651700 -32.403700
C -8.690500 -21.682900 -33.861500
H -8.483300 -21.953700 -27.858500
C -8.386900 -21.904300 -36.872800
C -8.285800 -21.848800 -38.258400
C -7.979600 -22.325100 -30.217600
H -7.907000 -22.095800 -34.204600
C -7.885200 -22.298700 -31.605500
H -7.766000 -22.419300 -36.370000
H -7.325000 -22.780700 -29.700600
O -7.275800 -22.535200 -38.868300
H -7.244700 -22.252000 -39.693100
H -7.152000 -22.733400 -32.024400
17
Fragment
H -16.199000 -16.325600 -42.488000
H -15.838400 -16.186700 -40.191600
H -15.650200 -16.982200 -38.098100
C -15.495800 -16.835900 -42.103300
C -15.279700 -16.734600 -40.730600
N -14.843400 -16.995900 -37.874200
N -14.764100 -17.615200 -42.908800
N -14.642800 -16.988800 -36.468200
H -14.349500 -16.218300 -36.213700
C -14.228200 -17.452000 -40.163300
H -13.997100 -17.506200 -36.306600
C -13.861300 -17.360500 -38.710300
C -13.779500 -18.329100 -42.346900
C -13.465400 -18.267200 -40.996500
H -13.269500 -18.907700 -42.902100
H -12.741500 -18.771900 -40.645800
O -12.710900 -17.590300 -38.318200
46
Fragment
H -11.623700 -19.280100 -38.710700
O -11.070700 -19.697900 -39.146600
H -11.016300 -19.965100 -36.536900
H -10.714700 -20.560100 -29.943600
H -10.552000 -20.550700 -32.261100
H -10.342600 -20.782700 -34.411700
C -10.321400 -20.447000 -36.970400
C -10.206300 -20.409700 -38.355800
C -9.992800 -21.011400 -30.366100
C -9.893300 -21.003000 -31.747900
C -9.554900 -21.184600 -34.758100
C -9.408800 -21.197600 -36.216000
O -9.201500 -21.644200 -28.235100
C -9.188000 -21.097100 -39.009000
H -9.108800 -21.054100 -39.955000
C -9.043500 -21.675300 -29.589100
C -8.835700 -21.651700 -32.403700
C -8.690500 -21.682900 -33.861500
H -8.483300 -21.953700 -27.858500
C -8.386900 -21.904300 -36.872800
C -8.285800 -21.848800 -38.258400
C -7.979600 -22.325100 -30.217600
H -7.907000 -22.095800 -34.204600
C -7.885200 -22.298700 -31.605500
H -7.766000 -22.419300 -36.370000
H -7.325000 -22.780700 -29.700600
O -7.275800 -22.535200 -38.868300
H -7.244700 -22.252000 -39.693100
H -7.152000 -22.733400 -32.024400
H -16.199000 -16.325600 -42.488000
H -15.838400 -16.186700 -40.191600
H -15.650200 -16.982200 -38.098100
C -15.495800 -16.835900 -42.103300
C -15.279700 -16.734600 -40.730600
N -14.843400 -16.995900 -37.874200
N -14.764100 -17.615200 -42.908800
N -14.642800 -16.988800 -36.468200
H -14.349500 -16.218300 -36.213700
C -14.228200 -17.452000 -40.163300
H -13.997100 -17.506200 -36.306600
C -13.861300 -17.360500 -38.710300
C -13.779500 -18.329100 -42.346900
C -13.465400 -18.267200 -40.996500
H -13.269500 -18.907700 -42.902100
H -12.741500 -18.771900 -40.645800
O -12.710900 -17.590300 -38.318200
