29
Fragment
H -11.623700 -19.280100 -38.710700
O -11.070700 -19.697900 -39.146600
H -11.016300 -19.965100 -36.536900
H -10.714700 -20.560100 -29.943600
H -10.552000 -20.550700 -32.261100
H -10.342600 -20.782700 -34.411700
C -10.321400 -20.447000 -36.970400
C -10.206300 -20.409700 -38.355800
C -9.992800 -21.011400 -30.366100
C -9.893300 -21.003000 -31.747900
C -9.554900 -21.184600 -34.758100
C -9.408800 -21.197600 -36.216000
O -9.201500 -21.644200 -28.235100
C -9.188000 -21.097100 -39.009000
H -9.108800 -21.054100 -39.955000
C -9.043500 -21.675300 -29.589100
C -8.835700 -21.651700 -32.403700
C -8.690500 -21.682900 -33.861500
H -8.483300 -21.953700 -27.858500
C -8.386900 -21.904300 -36.872800
C -8.285800 -21.848800 -38.258400
C -7.979600 -22.325100 -30.217600
H -7.907000 -22.095800 -34.204600
C -7.885200 -22.298700 -31.605500
H -7.766000 -22.419300 -36.370000
H -7.325000 -22.780700 -29.700600
O -7.275800 -22.535200 -38.868300
H -7.244700 -22.252000 -39.693100
H -7.152000 -22.733400 -32.024400
29
Fragment
H -10.985700 -24.614700 -42.587300
H -10.893000 -25.096100 -50.255900
O -10.861900 -24.812900 -49.431200
H -10.812700 -24.567400 -40.263500
H -10.371700 -24.928800 -46.932900
C -10.252500 -25.049400 -42.168400
H -10.230700 -25.252300 -44.767500
C -10.158100 -25.023000 -40.780400
C -9.851900 -25.499300 -48.821300
C -9.750800 -25.443800 -47.435600
H -9.654400 -25.394400 -38.421300
C -9.447200 -25.665200 -44.424400
C -9.302000 -25.696400 -42.966500
C -9.094200 -25.672800 -40.151900
H -9.028900 -26.294000 -50.517900
C -8.949700 -26.251000 -49.571900
O -8.936200 -25.703900 -38.798000
C -8.728900 -26.150500 -46.778800
C -8.582800 -26.163500 -45.321000
C -8.244400 -26.345100 -42.310800
C -8.144900 -26.336700 -40.928900
C -7.931400 -26.938400 -48.918700
C -7.816300 -26.901100 -47.533200
H -7.795100 -26.565400 -44.974500
H -7.585700 -26.797400 -42.823900
H -7.423000 -26.788000 -40.506400
H -7.121400 -27.383000 -47.099700
O -7.067000 -27.650200 -49.709400
H -6.514000 -28.068000 -49.273600
58
Fragment
H -11.623700 -19.280100 -38.710700
O -11.070700 -19.697900 -39.146600
H -11.016300 -19.965100 -36.536900
H -10.714700 -20.560100 -29.943600
H -10.552000 -20.550700 -32.261100
H -10.342600 -20.782700 -34.411700
C -10.321400 -20.447000 -36.970400
C -10.206300 -20.409700 -38.355800
C -9.992800 -21.011400 -30.366100
C -9.893300 -21.003000 -31.747900
C -9.554900 -21.184600 -34.758100
C -9.408800 -21.197600 -36.216000
O -9.201500 -21.644200 -28.235100
C -9.188000 -21.097100 -39.009000
H -9.108800 -21.054100 -39.955000
C -9.043500 -21.675300 -29.589100
C -8.835700 -21.651700 -32.403700
C -8.690500 -21.682900 -33.861500
H -8.483300 -21.953700 -27.858500
C -8.386900 -21.904300 -36.872800
C -8.285800 -21.848800 -38.258400
C -7.979600 -22.325100 -30.217600
H -7.907000 -22.095800 -34.204600
C -7.885200 -22.298700 -31.605500
H -7.766000 -22.419300 -36.370000
H -7.325000 -22.780700 -29.700600
O -7.275800 -22.535200 -38.868300
H -7.244700 -22.252000 -39.693100
H -7.152000 -22.733400 -32.024400
H -10.985700 -24.614700 -42.587300
H -10.893000 -25.096100 -50.255900
O -10.861900 -24.812900 -49.431200
H -10.812700 -24.567400 -40.263500
H -10.371700 -24.928800 -46.932900
C -10.252500 -25.049400 -42.168400
H -10.230700 -25.252300 -44.767500
C -10.158100 -25.023000 -40.780400
C -9.851900 -25.499300 -48.821300
C -9.750800 -25.443800 -47.435600
H -9.654400 -25.394400 -38.421300
C -9.447200 -25.665200 -44.424400
C -9.302000 -25.696400 -42.966500
C -9.094200 -25.672800 -40.151900
H -9.028900 -26.294000 -50.517900
C -8.949700 -26.251000 -49.571900
O -8.936200 -25.703900 -38.798000
C -8.728900 -26.150500 -46.778800
C -8.582800 -26.163500 -45.321000
C -8.244400 -26.345100 -42.310800
C -8.144900 -26.336700 -40.928900
C -7.931400 -26.938400 -48.918700
C -7.816300 -26.901100 -47.533200
H -7.795100 -26.565400 -44.974500
H -7.585700 -26.797400 -42.823900
H -7.423000 -26.788000 -40.506400
H -7.121400 -27.383000 -47.099700
O -7.067000 -27.650200 -49.709400
H -6.514000 -28.068000 -49.273600
