29
Fragment
H -11.623700 -19.280100 -38.710700
O -11.070700 -19.697900 -39.146600
H -11.016300 -19.965100 -36.536900
H -10.714700 -20.560100 -29.943600
H -10.552000 -20.550700 -32.261100
H -10.342600 -20.782700 -34.411700
C -10.321400 -20.447000 -36.970400
C -10.206300 -20.409700 -38.355800
C -9.992800 -21.011400 -30.366100
C -9.893300 -21.003000 -31.747900
C -9.554900 -21.184600 -34.758100
C -9.408800 -21.197600 -36.216000
O -9.201500 -21.644200 -28.235100
C -9.188000 -21.097100 -39.009000
H -9.108800 -21.054100 -39.955000
C -9.043500 -21.675300 -29.589100
C -8.835700 -21.651700 -32.403700
C -8.690500 -21.682900 -33.861500
H -8.483300 -21.953700 -27.858500
C -8.386900 -21.904300 -36.872800
C -8.285800 -21.848800 -38.258400
C -7.979600 -22.325100 -30.217600
H -7.907000 -22.095800 -34.204600
C -7.885200 -22.298700 -31.605500
H -7.766000 -22.419300 -36.370000
H -7.325000 -22.780700 -29.700600
O -7.275800 -22.535200 -38.868300
H -7.244700 -22.252000 -39.693100
H -7.152000 -22.733400 -32.024400
29
Fragment
H -6.441500 -19.280100 -38.710700
O -5.888500 -19.697900 -39.146600
H -5.834100 -19.965100 -36.536900
H -5.532500 -20.560100 -29.943600
H -5.369800 -20.550700 -32.261100
H -5.160400 -20.782700 -34.411700
C -5.139200 -20.447000 -36.970400
C -5.024100 -20.409700 -38.355800
C -4.810600 -21.011400 -30.366100
C -4.711100 -21.003000 -31.747900
C -4.372700 -21.184600 -34.758100
C -4.226600 -21.197600 -36.216000
O -4.019300 -21.644200 -28.235100
C -4.005800 -21.097100 -39.009000
H -3.926600 -21.054100 -39.955000
C -3.861300 -21.675300 -29.589100
C -3.653500 -21.651700 -32.403700
C -3.508300 -21.682900 -33.861500
H -3.301100 -21.953700 -27.858500
C -3.204700 -21.904300 -36.872800
C -3.103600 -21.848800 -38.258400
C -2.797400 -22.325100 -30.217600
H -2.724800 -22.095800 -34.204600
C -2.703000 -22.298700 -31.605500
H -2.583800 -22.419300 -36.370000
H -2.142800 -22.780700 -29.700600
O -2.093600 -22.535200 -38.868300
H -2.062500 -22.252000 -39.693100
H -1.969800 -22.733400 -32.024400
58
Fragment
H -11.623700 -19.280100 -38.710700
O -11.070700 -19.697900 -39.146600
H -11.016300 -19.965100 -36.536900
H -10.714700 -20.560100 -29.943600
H -10.552000 -20.550700 -32.261100
H -10.342600 -20.782700 -34.411700
C -10.321400 -20.447000 -36.970400
C -10.206300 -20.409700 -38.355800
C -9.992800 -21.011400 -30.366100
C -9.893300 -21.003000 -31.747900
C -9.554900 -21.184600 -34.758100
C -9.408800 -21.197600 -36.216000
O -9.201500 -21.644200 -28.235100
C -9.188000 -21.097100 -39.009000
H -9.108800 -21.054100 -39.955000
C -9.043500 -21.675300 -29.589100
C -8.835700 -21.651700 -32.403700
C -8.690500 -21.682900 -33.861500
H -8.483300 -21.953700 -27.858500
C -8.386900 -21.904300 -36.872800
C -8.285800 -21.848800 -38.258400
C -7.979600 -22.325100 -30.217600
H -7.907000 -22.095800 -34.204600
C -7.885200 -22.298700 -31.605500
H -7.766000 -22.419300 -36.370000
H -7.325000 -22.780700 -29.700600
O -7.275800 -22.535200 -38.868300
H -7.244700 -22.252000 -39.693100
H -7.152000 -22.733400 -32.024400
H -6.441500 -19.280100 -38.710700
O -5.888500 -19.697900 -39.146600
H -5.834100 -19.965100 -36.536900
H -5.532500 -20.560100 -29.943600
H -5.369800 -20.550700 -32.261100
H -5.160400 -20.782700 -34.411700
C -5.139200 -20.447000 -36.970400
C -5.024100 -20.409700 -38.355800
C -4.810600 -21.011400 -30.366100
C -4.711100 -21.003000 -31.747900
C -4.372700 -21.184600 -34.758100
C -4.226600 -21.197600 -36.216000
O -4.019300 -21.644200 -28.235100
C -4.005800 -21.097100 -39.009000
H -3.926600 -21.054100 -39.955000
C -3.861300 -21.675300 -29.589100
C -3.653500 -21.651700 -32.403700
C -3.508300 -21.682900 -33.861500
H -3.301100 -21.953700 -27.858500
C -3.204700 -21.904300 -36.872800
C -3.103600 -21.848800 -38.258400
C -2.797400 -22.325100 -30.217600
H -2.724800 -22.095800 -34.204600
C -2.703000 -22.298700 -31.605500
H -2.583800 -22.419300 -36.370000
H -2.142800 -22.780700 -29.700600
O -2.093600 -22.535200 -38.868300
H -2.062500 -22.252000 -39.693100
H -1.969800 -22.733400 -32.024400
