29
Fragment
H -11.623700 -19.280100 -38.710700
O -11.070700 -19.697900 -39.146600
H -11.016300 -19.965100 -36.536900
H -10.714700 -20.560100 -29.943600
H -10.552000 -20.550700 -32.261100
H -10.342600 -20.782700 -34.411700
C -10.321400 -20.447000 -36.970400
C -10.206300 -20.409700 -38.355800
C -9.992800 -21.011400 -30.366100
C -9.893300 -21.003000 -31.747900
C -9.554900 -21.184600 -34.758100
C -9.408800 -21.197600 -36.216000
O -9.201500 -21.644200 -28.235100
C -9.188000 -21.097100 -39.009000
H -9.108800 -21.054100 -39.955000
C -9.043500 -21.675300 -29.589100
C -8.835700 -21.651700 -32.403700
C -8.690500 -21.682900 -33.861500
H -8.483300 -21.953700 -27.858500
C -8.386900 -21.904300 -36.872800
C -8.285800 -21.848800 -38.258400
C -7.979600 -22.325100 -30.217600
H -7.907000 -22.095800 -34.204600
C -7.885200 -22.298700 -31.605500
H -7.766000 -22.419300 -36.370000
H -7.325000 -22.780700 -29.700600
O -7.275800 -22.535200 -38.868300
H -7.244700 -22.252000 -39.693100
H -7.152000 -22.733400 -32.024400
29
Fragment
H -14.214800 -20.176600 -24.666400
O -13.661800 -19.758800 -24.230500
H -13.607400 -19.491600 -26.840200
H -13.305800 -18.896600 -33.433500
H -13.143100 -18.906100 -31.116000
H -12.933700 -18.674100 -28.965400
C -12.912500 -19.009800 -26.406700
C -12.797400 -19.047000 -25.021300
C -12.583900 -18.445400 -33.011000
C -12.484400 -18.453800 -31.629200
C -12.146000 -18.272100 -28.619000
C -11.999900 -18.259200 -27.161100
O -11.792600 -17.812500 -35.142000
C -11.779100 -18.359700 -24.368100
H -11.699900 -18.402600 -23.422100
C -11.634600 -17.781400 -33.788000
C -11.426800 -17.805100 -30.973400
C -11.281600 -17.773800 -29.515600
H -11.074400 -17.503000 -35.518600
C -10.978000 -17.552400 -26.504300
C -10.876900 -17.608000 -25.118700
C -10.570700 -17.131600 -33.159500
H -10.498100 -17.361000 -29.172500
C -10.476300 -17.158000 -31.771600
H -10.357100 -17.037400 -27.007100
H -9.916100 -16.676000 -33.676500
O -9.866900 -16.921600 -24.508800
H -9.835800 -17.204700 -23.684000
H -9.743100 -16.723300 -31.352700
58
Fragment
H -11.623700 -19.280100 -38.710700
O -11.070700 -19.697900 -39.146600
H -11.016300 -19.965100 -36.536900
H -10.714700 -20.560100 -29.943600
H -10.552000 -20.550700 -32.261100
H -10.342600 -20.782700 -34.411700
C -10.321400 -20.447000 -36.970400
C -10.206300 -20.409700 -38.355800
C -9.992800 -21.011400 -30.366100
C -9.893300 -21.003000 -31.747900
C -9.554900 -21.184600 -34.758100
C -9.408800 -21.197600 -36.216000
O -9.201500 -21.644200 -28.235100
C -9.188000 -21.097100 -39.009000
H -9.108800 -21.054100 -39.955000
C -9.043500 -21.675300 -29.589100
C -8.835700 -21.651700 -32.403700
C -8.690500 -21.682900 -33.861500
H -8.483300 -21.953700 -27.858500
C -8.386900 -21.904300 -36.872800
C -8.285800 -21.848800 -38.258400
C -7.979600 -22.325100 -30.217600
H -7.907000 -22.095800 -34.204600
C -7.885200 -22.298700 -31.605500
H -7.766000 -22.419300 -36.370000
H -7.325000 -22.780700 -29.700600
O -7.275800 -22.535200 -38.868300
H -7.244700 -22.252000 -39.693100
H -7.152000 -22.733400 -32.024400
H -14.214800 -20.176600 -24.666400
O -13.661800 -19.758800 -24.230500
H -13.607400 -19.491600 -26.840200
H -13.305800 -18.896600 -33.433500
H -13.143100 -18.906100 -31.116000
H -12.933700 -18.674100 -28.965400
C -12.912500 -19.009800 -26.406700
C -12.797400 -19.047000 -25.021300
C -12.583900 -18.445400 -33.011000
C -12.484400 -18.453800 -31.629200
C -12.146000 -18.272100 -28.619000
C -11.999900 -18.259200 -27.161100
O -11.792600 -17.812500 -35.142000
C -11.779100 -18.359700 -24.368100
H -11.699900 -18.402600 -23.422100
C -11.634600 -17.781400 -33.788000
C -11.426800 -17.805100 -30.973400
C -11.281600 -17.773800 -29.515600
H -11.074400 -17.503000 -35.518600
C -10.978000 -17.552400 -26.504300
C -10.876900 -17.608000 -25.118700
C -10.570700 -17.131600 -33.159500
H -10.498100 -17.361000 -29.172500
C -10.476300 -17.158000 -31.771600
H -10.357100 -17.037400 -27.007100
H -9.916100 -16.676000 -33.676500
O -9.866900 -16.921600 -24.508800
H -9.835800 -17.204700 -23.684000
H -9.743100 -16.723300 -31.352700
