26
Fragment
H -2.842000 -12.694700 -15.407200
H -2.839500 -12.813700 -12.889400
H -2.826400 -11.789900 -10.932000
C -2.819300 -11.767000 -15.352600
C -2.818600 -11.885100 -12.867900
H -2.814600 -11.486500 -17.288600
C -2.806500 -11.277300 -11.706900
C -2.803500 -11.043700 -16.470800
C -2.801600 -11.159300 -14.113800
C -2.772400 -9.675400 -16.465400
C -2.766300 -9.735500 -14.042300
C -2.764300 -9.868500 -11.591600
H -2.763100 -9.204700 -17.268000
H -2.754800 -9.635100 -9.545700
C -2.753600 -8.971300 -15.222100
C -2.751700 -9.104300 -12.771400
C -2.745600 -9.164400 -10.348300
C -2.716400 -7.680600 -12.699900
C -2.714500 -7.796100 -10.342900
C -2.711400 -7.562500 -15.106800
H -2.703300 -7.353300 -9.525100
C -2.699300 -6.954700 -13.945800
C -2.698600 -7.072800 -11.461100
H -2.691600 -7.050000 -15.881800
H -2.678500 -6.026100 -13.924400
H -2.676000 -6.145200 -11.406600
26
Fragment
H -1.970300 -11.015100 -7.587400
H -1.941300 -13.085100 -1.313000
N -1.269100 -13.402500 -9.196200
H -1.259800 -14.348700 -1.941300
C -1.227100 -13.540700 -8.062000
N -1.205500 -16.383500 -6.260100
C -1.204400 -15.250300 -6.412100
C -1.202700 -13.835000 -6.667700
C -1.189600 -13.398700 -1.820700
C -1.184800 -12.939600 -5.619300
C -1.179400 -13.465000 -4.279500
H -1.179300 -14.389900 -4.179400
C -1.174300 -12.720800 -3.166700
C -1.174000 -11.490000 -5.771200
H -1.169000 -9.821000 -4.758500
C -1.168800 -10.745800 -4.658400
C -1.163400 -11.271200 -3.318600
C -1.158600 -10.812100 -7.117300
C -1.145600 -10.375900 -2.270200
C -1.143800 -8.960500 -2.525900
N -1.142800 -7.827400 -2.677800
C -1.121100 -10.670200 -0.875900
H -1.088400 -9.862200 -6.996600
N -1.079200 -10.808400 0.258300
H -0.407000 -11.125800 -7.624900
H -0.377900 -13.195700 -1.350500
52
Fragment
H -2.842000 -12.694700 -15.407200
H -2.839500 -12.813700 -12.889400
H -2.826400 -11.789900 -10.932000
C -2.819300 -11.767000 -15.352600
C -2.818600 -11.885100 -12.867900
H -2.814600 -11.486500 -17.288600
C -2.806500 -11.277300 -11.706900
C -2.803500 -11.043700 -16.470800
C -2.801600 -11.159300 -14.113800
C -2.772400 -9.675400 -16.465400
C -2.766300 -9.735500 -14.042300
C -2.764300 -9.868500 -11.591600
H -2.763100 -9.204700 -17.268000
H -2.754800 -9.635100 -9.545700
C -2.753600 -8.971300 -15.222100
C -2.751700 -9.104300 -12.771400
C -2.745600 -9.164400 -10.348300
C -2.716400 -7.680600 -12.699900
C -2.714500 -7.796100 -10.342900
C -2.711400 -7.562500 -15.106800
H -2.703300 -7.353300 -9.525100
C -2.699300 -6.954700 -13.945800
C -2.698600 -7.072800 -11.461100
H -2.691600 -7.050000 -15.881800
H -2.678500 -6.026100 -13.924400
H -2.676000 -6.145200 -11.406600
H -1.970300 -11.015100 -7.587400
H -1.941300 -13.085100 -1.313000
N -1.269100 -13.402500 -9.196200
H -1.259800 -14.348700 -1.941300
C -1.227100 -13.540700 -8.062000
N -1.205500 -16.383500 -6.260100
C -1.204400 -15.250300 -6.412100
C -1.202700 -13.835000 -6.667700
C -1.189600 -13.398700 -1.820700
C -1.184800 -12.939600 -5.619300
C -1.179400 -13.465000 -4.279500
H -1.179300 -14.389900 -4.179400
C -1.174300 -12.720800 -3.166700
C -1.174000 -11.490000 -5.771200
H -1.169000 -9.821000 -4.758500
C -1.168800 -10.745800 -4.658400
C -1.163400 -11.271200 -3.318600
C -1.158600 -10.812100 -7.117300
C -1.145600 -10.375900 -2.270200
C -1.143800 -8.960500 -2.525900
N -1.142800 -7.827400 -2.677800
C -1.121100 -10.670200 -0.875900
H -1.088400 -9.862200 -6.996600
N -1.079200 -10.808400 0.258300
H -0.407000 -11.125800 -7.624900
H -0.377900 -13.195700 -1.350500
