32
Fragment
H -12.354700 -20.363900 -13.193900
H -12.313000 -18.309500 -9.343600
H -12.264700 -19.437300 -11.351600
H -12.263000 -21.465000 -15.221900
C -11.981400 -17.882700 -10.100800
C -11.968400 -19.937900 -13.924800
C -11.953800 -18.561000 -11.315200
C -11.921300 -20.602500 -15.152700
H -11.569300 -16.155100 -9.191600
C -11.529000 -16.601900 -10.006200
C -11.474000 -17.963300 -12.480800
C -11.456300 -18.669700 -13.768200
C -11.383700 -20.003600 -16.249600
H -11.352700 -20.459700 -17.058800
C -10.995300 -15.945700 -11.146100
C -10.963100 -16.633800 -12.391200
C -10.904900 -18.001800 -14.916000
C -10.872700 -18.689900 -16.161000
H -10.515300 -14.175900 -10.248400
C -10.484300 -14.632000 -11.057600
C -10.411700 -15.965900 -13.539000
C -10.394000 -16.672300 -14.826300
C -10.339000 -18.033700 -17.300900
H -10.298700 -18.480500 -18.115500
C -9.946600 -14.033100 -12.154400
C -9.914200 -16.074600 -15.992000
C -9.899600 -14.697700 -13.382300
C -9.886500 -16.752900 -17.206300
H -9.605000 -13.170600 -12.085200
H -9.603300 -15.198300 -15.955600
H -9.555000 -16.326100 -17.963500
H -9.513300 -14.271700 -14.113200
22
Fragment
H -16.493100 -26.040900 -10.765400
H -15.867300 -27.444600 -11.073000
N -15.713100 -29.373000 -15.892700
C -15.693700 -26.501500 -11.030100
H -15.616900 -27.639500 -13.401400
C -15.385300 -28.278300 -15.818900
C -15.307900 -26.766100 -13.479800
C -15.256400 -26.011700 -12.380100
H -15.000000 -26.332800 -10.388500
N -14.956000 -27.012000 -15.878600
C -14.905100 -26.291100 -14.794900
C -14.757200 -24.637100 -12.512200
N -14.706300 -23.916200 -11.428500
H -14.662300 -24.595400 -16.918600
C -14.406000 -24.916400 -14.927000
C -14.354400 -24.162000 -13.827300
C -14.277000 -22.649900 -11.488200
H -14.045400 -23.288700 -13.905700
C -13.968700 -24.426700 -16.277000
N -13.949200 -21.555200 -11.414400
H -13.795100 -23.483600 -16.234100
H -13.169300 -24.887200 -16.541700
54
Fragment
H -12.354700 -20.363900 -13.193900
H -12.313000 -18.309500 -9.343600
H -12.264700 -19.437300 -11.351600
H -12.263000 -21.465000 -15.221900
C -11.981400 -17.882700 -10.100800
C -11.968400 -19.937900 -13.924800
C -11.953800 -18.561000 -11.315200
C -11.921300 -20.602500 -15.152700
H -11.569300 -16.155100 -9.191600
C -11.529000 -16.601900 -10.006200
C -11.474000 -17.963300 -12.480800
C -11.456300 -18.669700 -13.768200
C -11.383700 -20.003600 -16.249600
H -11.352700 -20.459700 -17.058800
C -10.995300 -15.945700 -11.146100
C -10.963100 -16.633800 -12.391200
C -10.904900 -18.001800 -14.916000
C -10.872700 -18.689900 -16.161000
H -10.515300 -14.175900 -10.248400
C -10.484300 -14.632000 -11.057600
C -10.411700 -15.965900 -13.539000
C -10.394000 -16.672300 -14.826300
C -10.339000 -18.033700 -17.300900
H -10.298700 -18.480500 -18.115500
C -9.946600 -14.033100 -12.154400
C -9.914200 -16.074600 -15.992000
C -9.899600 -14.697700 -13.382300
C -9.886500 -16.752900 -17.206300
H -9.605000 -13.170600 -12.085200
H -9.603300 -15.198300 -15.955600
H -9.555000 -16.326100 -17.963500
H -9.513300 -14.271700 -14.113200
H -16.493100 -26.040900 -10.765400
H -15.867300 -27.444600 -11.073000
N -15.713100 -29.373000 -15.892700
C -15.693700 -26.501500 -11.030100
H -15.616900 -27.639500 -13.401400
C -15.385300 -28.278300 -15.818900
C -15.307900 -26.766100 -13.479800
C -15.256400 -26.011700 -12.380100
H -15.000000 -26.332800 -10.388500
N -14.956000 -27.012000 -15.878600
C -14.905100 -26.291100 -14.794900
C -14.757200 -24.637100 -12.512200
N -14.706300 -23.916200 -11.428500
H -14.662300 -24.595400 -16.918600
C -14.406000 -24.916400 -14.927000
C -14.354400 -24.162000 -13.827300
C -14.277000 -22.649900 -11.488200
H -14.045400 -23.288700 -13.905700
C -13.968700 -24.426700 -16.277000
N -13.949200 -21.555200 -11.414400
H -13.795100 -23.483600 -16.234100
H -13.169300 -24.887200 -16.541700
