32
Fragment
H -12.354700 -20.363900 -13.193900
H -12.313000 -18.309500 -9.343600
H -12.264700 -19.437300 -11.351600
H -12.263000 -21.465000 -15.221900
C -11.981400 -17.882700 -10.100800
C -11.968400 -19.937900 -13.924800
C -11.953800 -18.561000 -11.315200
C -11.921300 -20.602500 -15.152700
H -11.569300 -16.155100 -9.191600
C -11.529000 -16.601900 -10.006200
C -11.474000 -17.963300 -12.480800
C -11.456300 -18.669700 -13.768200
C -11.383700 -20.003600 -16.249600
H -11.352700 -20.459700 -17.058800
C -10.995300 -15.945700 -11.146100
C -10.963100 -16.633800 -12.391200
C -10.904900 -18.001800 -14.916000
C -10.872700 -18.689900 -16.161000
H -10.515300 -14.175900 -10.248400
C -10.484300 -14.632000 -11.057600
C -10.411700 -15.965900 -13.539000
C -10.394000 -16.672300 -14.826300
C -10.339000 -18.033700 -17.300900
H -10.298700 -18.480500 -18.115500
C -9.946600 -14.033100 -12.154400
C -9.914200 -16.074600 -15.992000
C -9.899600 -14.697700 -13.382300
C -9.886500 -16.752900 -17.206300
H -9.605000 -13.170600 -12.085200
H -9.603300 -15.198300 -15.955600
H -9.555000 -16.326100 -17.963500
H -9.513300 -14.271700 -14.113200
32
Fragment
H -10.194200 -16.965000 -4.091500
H -10.152400 -14.910600 -0.241200
H -10.104200 -16.038400 -2.249200
H -10.102500 -18.066100 -6.119500
C -9.820900 -14.483800 -0.998400
C -9.807900 -16.539000 -4.822400
C -9.793300 -15.162100 -2.212800
C -9.760800 -17.203600 -6.050300
H -9.408800 -12.756200 -0.089200
C -9.368500 -13.202900 -0.903900
C -9.313500 -14.564400 -3.378400
C -9.295800 -15.270800 -4.665800
C -9.223200 -16.604700 -7.147200
H -9.192200 -17.060800 -7.956400
C -8.834800 -12.546800 -2.043800
C -8.802600 -13.234900 -3.288800
C -8.744400 -14.602900 -5.813600
C -8.712200 -15.291000 -7.058600
H -8.354800 -10.777000 -1.146000
C -8.323800 -11.233100 -1.955200
C -8.251200 -12.567000 -4.436600
C -8.233500 -13.273300 -5.723900
C -8.178500 -14.634800 -8.198500
H -8.138100 -15.081600 -9.013200
C -7.786100 -10.634200 -3.052000
C -7.753700 -12.675700 -6.889600
C -7.739100 -11.298800 -4.279900
C -7.726000 -13.353900 -8.103900
H -7.444500 -9.771700 -2.982800
H -7.442800 -11.799400 -6.853200
H -7.394500 -12.927200 -8.861200
H -7.352800 -10.872700 -5.010900
64
Fragment
H -12.354700 -20.363900 -13.193900
H -12.313000 -18.309500 -9.343600
H -12.264700 -19.437300 -11.351600
H -12.263000 -21.465000 -15.221900
C -11.981400 -17.882700 -10.100800
C -11.968400 -19.937900 -13.924800
C -11.953800 -18.561000 -11.315200
C -11.921300 -20.602500 -15.152700
H -11.569300 -16.155100 -9.191600
C -11.529000 -16.601900 -10.006200
C -11.474000 -17.963300 -12.480800
C -11.456300 -18.669700 -13.768200
C -11.383700 -20.003600 -16.249600
H -11.352700 -20.459700 -17.058800
C -10.995300 -15.945700 -11.146100
C -10.963100 -16.633800 -12.391200
C -10.904900 -18.001800 -14.916000
C -10.872700 -18.689900 -16.161000
H -10.515300 -14.175900 -10.248400
C -10.484300 -14.632000 -11.057600
C -10.411700 -15.965900 -13.539000
C -10.394000 -16.672300 -14.826300
C -10.339000 -18.033700 -17.300900
H -10.298700 -18.480500 -18.115500
C -9.946600 -14.033100 -12.154400
C -9.914200 -16.074600 -15.992000
C -9.899600 -14.697700 -13.382300
C -9.886500 -16.752900 -17.206300
H -9.605000 -13.170600 -12.085200
H -9.603300 -15.198300 -15.955600
H -9.555000 -16.326100 -17.963500
H -9.513300 -14.271700 -14.113200
H -10.194200 -16.965000 -4.091500
H -10.152400 -14.910600 -0.241200
H -10.104200 -16.038400 -2.249200
H -10.102500 -18.066100 -6.119500
C -9.820900 -14.483800 -0.998400
C -9.807900 -16.539000 -4.822400
C -9.793300 -15.162100 -2.212800
C -9.760800 -17.203600 -6.050300
H -9.408800 -12.756200 -0.089200
C -9.368500 -13.202900 -0.903900
C -9.313500 -14.564400 -3.378400
C -9.295800 -15.270800 -4.665800
C -9.223200 -16.604700 -7.147200
H -9.192200 -17.060800 -7.956400
C -8.834800 -12.546800 -2.043800
C -8.802600 -13.234900 -3.288800
C -8.744400 -14.602900 -5.813600
C -8.712200 -15.291000 -7.058600
H -8.354800 -10.777000 -1.146000
C -8.323800 -11.233100 -1.955200
C -8.251200 -12.567000 -4.436600
C -8.233500 -13.273300 -5.723900
C -8.178500 -14.634800 -8.198500
H -8.138100 -15.081600 -9.013200
C -7.786100 -10.634200 -3.052000
C -7.753700 -12.675700 -6.889600
C -7.739100 -11.298800 -4.279900
C -7.726000 -13.353900 -8.103900
H -7.444500 -9.771700 -2.982800
H -7.442800 -11.799400 -6.853200
H -7.394500 -12.927200 -8.861200
H -7.352800 -10.872700 -5.010900
