32
Fragment
H -12.734100 -18.606100 -9.230800
H -12.714200 -20.690900 -13.067800
H -12.674400 -19.741600 -11.250700
H -12.627400 -21.788600 -15.104800
C -12.371600 -18.193700 -9.981700
C -12.335800 -18.876800 -11.204200
C -12.316700 -20.270800 -13.795800
C -12.269100 -20.934400 -15.028200
H -11.923000 -16.473900 -9.075000
C -11.876800 -16.925600 -9.886900
C -11.808400 -18.297100 -12.344800
C -11.781500 -18.998100 -13.637400
C -11.704800 -20.342100 -16.115700
H -11.677500 -20.796700 -16.926500
C -11.296600 -16.292600 -11.005900
C -11.261500 -16.978600 -12.259500
C -11.193200 -18.354300 -14.768100
C -11.158100 -19.040300 -16.021700
H -10.777100 -14.536200 -10.101100
C -10.749800 -14.990800 -10.911900
C -10.673200 -16.334800 -13.390200
C -10.646200 -17.035800 -14.682800
C -10.577900 -18.407300 -17.140700
H -10.531600 -18.859000 -17.952600
C -10.185500 -14.398500 -11.999400
C -10.137900 -15.062100 -13.231800
C -10.118800 -16.456100 -15.823400
C -10.083100 -17.139200 -17.045900
H -9.827200 -13.544300 -11.922800
H -9.780200 -15.591300 -15.776900
H -9.740500 -14.642000 -13.959800
H -9.720600 -16.726800 -17.796800
16
Fragment
Cl -10.778500 -22.341000 -19.737700
N -10.750300 -25.256800 -24.661800
H -10.649400 -23.474500 -22.241000
C -10.396400 -24.167900 -24.634000
C -10.309600 -22.615400 -22.345100
C -10.230300 -21.811300 -21.275200
N -9.938100 -22.912100 -24.737400
C -9.880200 -22.180300 -23.657700
C -9.689600 -20.454400 -21.388300
N -9.631700 -19.722600 -20.308600
C -9.339500 -20.823400 -23.770800
C -9.260200 -20.019300 -22.700900
C -9.173400 -18.466800 -20.412000
H -8.920300 -19.160200 -22.805000
N -8.819500 -17.377900 -20.384200
Cl -8.791300 -20.293700 -25.308300
48
Fragment
H -12.734100 -18.606100 -9.230800
H -12.714200 -20.690900 -13.067800
H -12.674400 -19.741600 -11.250700
H -12.627400 -21.788600 -15.104800
C -12.371600 -18.193700 -9.981700
C -12.335800 -18.876800 -11.204200
C -12.316700 -20.270800 -13.795800
C -12.269100 -20.934400 -15.028200
H -11.923000 -16.473900 -9.075000
C -11.876800 -16.925600 -9.886900
C -11.808400 -18.297100 -12.344800
C -11.781500 -18.998100 -13.637400
C -11.704800 -20.342100 -16.115700
H -11.677500 -20.796700 -16.926500
C -11.296600 -16.292600 -11.005900
C -11.261500 -16.978600 -12.259500
C -11.193200 -18.354300 -14.768100
C -11.158100 -19.040300 -16.021700
H -10.777100 -14.536200 -10.101100
C -10.749800 -14.990800 -10.911900
C -10.673200 -16.334800 -13.390200
C -10.646200 -17.035800 -14.682800
C -10.577900 -18.407300 -17.140700
H -10.531600 -18.859000 -17.952600
C -10.185500 -14.398500 -11.999400
C -10.137900 -15.062100 -13.231800
C -10.118800 -16.456100 -15.823400
C -10.083100 -17.139200 -17.045900
H -9.827200 -13.544300 -11.922800
H -9.780200 -15.591300 -15.776900
H -9.740500 -14.642000 -13.959800
H -9.720600 -16.726800 -17.796800
Cl -10.778500 -22.341000 -19.737700
N -10.750300 -25.256800 -24.661800
H -10.649400 -23.474500 -22.241000
C -10.396400 -24.167900 -24.634000
C -10.309600 -22.615400 -22.345100
C -10.230300 -21.811300 -21.275200
N -9.938100 -22.912100 -24.737400
C -9.880200 -22.180300 -23.657700
C -9.689600 -20.454400 -21.388300
N -9.631700 -19.722600 -20.308600
C -9.339500 -20.823400 -23.770800
C -9.260200 -20.019300 -22.700900
C -9.173400 -18.466800 -20.412000
H -8.920300 -19.160200 -22.805000
N -8.819500 -17.377900 -20.384200
Cl -8.791300 -20.293700 -25.308300
