26
Fragment
H -2.842000 -12.694700 -15.407200
H -2.839500 -12.813700 -12.889400
H -2.826400 -11.789900 -10.932000
C -2.819300 -11.767000 -15.352600
C -2.818600 -11.885100 -12.867900
H -2.814600 -11.486500 -17.288600
C -2.806500 -11.277300 -11.706900
C -2.803500 -11.043700 -16.470800
C -2.801600 -11.159300 -14.113800
C -2.772400 -9.675400 -16.465400
C -2.766300 -9.735500 -14.042300
C -2.764300 -9.868500 -11.591600
H -2.763100 -9.204700 -17.268000
H -2.754800 -9.635100 -9.545700
C -2.753600 -8.971300 -15.222100
C -2.751700 -9.104300 -12.771400
C -2.745600 -9.164400 -10.348300
C -2.716400 -7.680600 -12.699900
C -2.714500 -7.796100 -10.342900
C -2.711400 -7.562500 -15.106800
H -2.703300 -7.353300 -9.525100
C -2.699300 -6.954700 -13.945800
C -2.698600 -7.072800 -11.461100
H -2.691600 -7.050000 -15.881800
H -2.678500 -6.026100 -13.924400
H -2.676000 -6.145200 -11.406600
26
Fragment
H -4.245100 -14.609600 -25.463200
H -4.216100 -16.679500 -19.188800
N -3.543900 -16.996900 -27.072000
H -3.534700 -17.943100 -19.817100
C -3.502000 -17.135100 -25.937800
N -3.480300 -19.977900 -24.135900
C -3.479200 -18.844700 -24.287900
C -3.477500 -17.429400 -24.543500
C -3.464500 -16.993100 -19.696500
C -3.459600 -16.534100 -23.495100
C -3.454300 -17.059500 -22.155300
H -3.454100 -17.984300 -22.055200
C -3.449100 -16.315300 -21.042500
C -3.448800 -15.084400 -23.647000
H -3.443800 -13.415400 -22.634400
C -3.443600 -14.340200 -22.534200
C -3.438300 -14.865600 -21.194500
C -3.433400 -14.406500 -24.993100
C -3.420400 -13.970300 -20.146000
C -3.418600 -12.554900 -20.401700
N -3.417600 -11.421800 -20.553600
C -3.395900 -14.264600 -18.751700
H -3.363200 -13.456600 -24.872400
N -3.354000 -14.402800 -17.617500
H -2.681800 -14.720200 -25.500700
H -2.652800 -16.790100 -19.226300
52
Fragment
H -2.842000 -12.694700 -15.407200
H -2.839500 -12.813700 -12.889400
H -2.826400 -11.789900 -10.932000
C -2.819300 -11.767000 -15.352600
C -2.818600 -11.885100 -12.867900
H -2.814600 -11.486500 -17.288600
C -2.806500 -11.277300 -11.706900
C -2.803500 -11.043700 -16.470800
C -2.801600 -11.159300 -14.113800
C -2.772400 -9.675400 -16.465400
C -2.766300 -9.735500 -14.042300
C -2.764300 -9.868500 -11.591600
H -2.763100 -9.204700 -17.268000
H -2.754800 -9.635100 -9.545700
C -2.753600 -8.971300 -15.222100
C -2.751700 -9.104300 -12.771400
C -2.745600 -9.164400 -10.348300
C -2.716400 -7.680600 -12.699900
C -2.714500 -7.796100 -10.342900
C -2.711400 -7.562500 -15.106800
H -2.703300 -7.353300 -9.525100
C -2.699300 -6.954700 -13.945800
C -2.698600 -7.072800 -11.461100
H -2.691600 -7.050000 -15.881800
H -2.678500 -6.026100 -13.924400
H -2.676000 -6.145200 -11.406600
H -4.245100 -14.609600 -25.463200
H -4.216100 -16.679500 -19.188800
N -3.543900 -16.996900 -27.072000
H -3.534700 -17.943100 -19.817100
C -3.502000 -17.135100 -25.937800
N -3.480300 -19.977900 -24.135900
C -3.479200 -18.844700 -24.287900
C -3.477500 -17.429400 -24.543500
C -3.464500 -16.993100 -19.696500
C -3.459600 -16.534100 -23.495100
C -3.454300 -17.059500 -22.155300
H -3.454100 -17.984300 -22.055200
C -3.449100 -16.315300 -21.042500
C -3.448800 -15.084400 -23.647000
H -3.443800 -13.415400 -22.634400
C -3.443600 -14.340200 -22.534200
C -3.438300 -14.865600 -21.194500
C -3.433400 -14.406500 -24.993100
C -3.420400 -13.970300 -20.146000
C -3.418600 -12.554900 -20.401700
N -3.417600 -11.421800 -20.553600
C -3.395900 -14.264600 -18.751700
H -3.363200 -13.456600 -24.872400
N -3.354000 -14.402800 -17.617500
H -2.681800 -14.720200 -25.500700
H -2.652800 -16.790100 -19.226300
