32
Fragment
H -12.734100 -18.606100 -9.230800
H -12.714200 -20.690900 -13.067800
H -12.674400 -19.741600 -11.250700
H -12.627400 -21.788600 -15.104800
C -12.371600 -18.193700 -9.981700
C -12.335800 -18.876800 -11.204200
C -12.316700 -20.270800 -13.795800
C -12.269100 -20.934400 -15.028200
H -11.923000 -16.473900 -9.075000
C -11.876800 -16.925600 -9.886900
C -11.808400 -18.297100 -12.344800
C -11.781500 -18.998100 -13.637400
C -11.704800 -20.342100 -16.115700
H -11.677500 -20.796700 -16.926500
C -11.296600 -16.292600 -11.005900
C -11.261500 -16.978600 -12.259500
C -11.193200 -18.354300 -14.768100
C -11.158100 -19.040300 -16.021700
H -10.777100 -14.536200 -10.101100
C -10.749800 -14.990800 -10.911900
C -10.673200 -16.334800 -13.390200
C -10.646200 -17.035800 -14.682800
C -10.577900 -18.407300 -17.140700
H -10.531600 -18.859000 -17.952600
C -10.185500 -14.398500 -11.999400
C -10.137900 -15.062100 -13.231800
C -10.118800 -16.456100 -15.823400
C -10.083100 -17.139200 -17.045900
H -9.827200 -13.544300 -11.922800
H -9.780200 -15.591300 -15.776900
H -9.740500 -14.642000 -13.959800
H -9.720600 -16.726800 -17.796800
32
Fragment
H -14.961200 -22.257000 -18.240000
H -14.941300 -24.341800 -22.077000
H -14.901600 -23.392500 -20.259900
H -14.854600 -25.439500 -24.114000
C -14.598700 -21.844600 -18.990900
C -14.563000 -22.527700 -20.213400
C -14.543900 -23.921700 -22.805000
C -14.496300 -24.585300 -24.037400
H -14.150200 -20.124800 -18.084200
C -14.103900 -20.576500 -18.896100
C -14.035600 -21.948000 -21.354000
C -14.008600 -22.649000 -22.646600
C -13.932000 -23.993000 -25.124900
H -13.904700 -24.447600 -25.935700
C -13.523700 -19.943500 -20.015100
C -13.488600 -20.629500 -21.268700
C -13.420300 -22.005200 -23.777300
C -13.385200 -22.691200 -25.030900
H -13.004300 -18.187100 -19.110300
C -12.977000 -18.641700 -19.921100
C -12.900300 -19.985700 -22.399400
C -12.873400 -20.686700 -23.692000
C -12.805000 -22.058200 -26.149900
H -12.758800 -22.509900 -26.961800
C -12.412700 -18.049400 -21.008600
C -12.365100 -18.713000 -22.241000
C -12.346000 -20.107000 -24.832600
C -12.310200 -20.790100 -26.055100
H -12.054400 -17.195200 -20.932000
H -12.007300 -19.242200 -24.786100
H -11.967600 -18.292900 -22.969000
H -11.947700 -20.377700 -26.806000
64
Fragment
H -12.734100 -18.606100 -9.230800
H -12.714200 -20.690900 -13.067800
H -12.674400 -19.741600 -11.250700
H -12.627400 -21.788600 -15.104800
C -12.371600 -18.193700 -9.981700
C -12.335800 -18.876800 -11.204200
C -12.316700 -20.270800 -13.795800
C -12.269100 -20.934400 -15.028200
H -11.923000 -16.473900 -9.075000
C -11.876800 -16.925600 -9.886900
C -11.808400 -18.297100 -12.344800
C -11.781500 -18.998100 -13.637400
C -11.704800 -20.342100 -16.115700
H -11.677500 -20.796700 -16.926500
C -11.296600 -16.292600 -11.005900
C -11.261500 -16.978600 -12.259500
C -11.193200 -18.354300 -14.768100
C -11.158100 -19.040300 -16.021700
H -10.777100 -14.536200 -10.101100
C -10.749800 -14.990800 -10.911900
C -10.673200 -16.334800 -13.390200
C -10.646200 -17.035800 -14.682800
C -10.577900 -18.407300 -17.140700
H -10.531600 -18.859000 -17.952600
C -10.185500 -14.398500 -11.999400
C -10.137900 -15.062100 -13.231800
C -10.118800 -16.456100 -15.823400
C -10.083100 -17.139200 -17.045900
H -9.827200 -13.544300 -11.922800
H -9.780200 -15.591300 -15.776900
H -9.740500 -14.642000 -13.959800
H -9.720600 -16.726800 -17.796800
H -14.961200 -22.257000 -18.240000
H -14.941300 -24.341800 -22.077000
H -14.901600 -23.392500 -20.259900
H -14.854600 -25.439500 -24.114000
C -14.598700 -21.844600 -18.990900
C -14.563000 -22.527700 -20.213400
C -14.543900 -23.921700 -22.805000
C -14.496300 -24.585300 -24.037400
H -14.150200 -20.124800 -18.084200
C -14.103900 -20.576500 -18.896100
C -14.035600 -21.948000 -21.354000
C -14.008600 -22.649000 -22.646600
C -13.932000 -23.993000 -25.124900
H -13.904700 -24.447600 -25.935700
C -13.523700 -19.943500 -20.015100
C -13.488600 -20.629500 -21.268700
C -13.420300 -22.005200 -23.777300
C -13.385200 -22.691200 -25.030900
H -13.004300 -18.187100 -19.110300
C -12.977000 -18.641700 -19.921100
C -12.900300 -19.985700 -22.399400
C -12.873400 -20.686700 -23.692000
C -12.805000 -22.058200 -26.149900
H -12.758800 -22.509900 -26.961800
C -12.412700 -18.049400 -21.008600
C -12.365100 -18.713000 -22.241000
C -12.346000 -20.107000 -24.832600
C -12.310200 -20.790100 -26.055100
H -12.054400 -17.195200 -20.932000
H -12.007300 -19.242200 -24.786100
H -11.967600 -18.292900 -22.969000
H -11.947700 -20.377700 -26.806000
