32
Fragment
H -12.354700 -20.363900 -13.193900
H -12.313000 -18.309500 -9.343600
H -12.264700 -19.437300 -11.351600
H -12.263000 -21.465000 -15.221900
C -11.981400 -17.882700 -10.100800
C -11.968400 -19.937900 -13.924800
C -11.953800 -18.561000 -11.315200
C -11.921300 -20.602500 -15.152700
H -11.569300 -16.155100 -9.191600
C -11.529000 -16.601900 -10.006200
C -11.474000 -17.963300 -12.480800
C -11.456300 -18.669700 -13.768200
C -11.383700 -20.003600 -16.249600
H -11.352700 -20.459700 -17.058800
C -10.995300 -15.945700 -11.146100
C -10.963100 -16.633800 -12.391200
C -10.904900 -18.001800 -14.916000
C -10.872700 -18.689900 -16.161000
H -10.515300 -14.175900 -10.248400
C -10.484300 -14.632000 -11.057600
C -10.411700 -15.965900 -13.539000
C -10.394000 -16.672300 -14.826300
C -10.339000 -18.033700 -17.300900
H -10.298700 -18.480500 -18.115500
C -9.946600 -14.033100 -12.154400
C -9.914200 -16.074600 -15.992000
C -9.899600 -14.697700 -13.382300
C -9.886500 -16.752900 -17.206300
H -9.605000 -13.170600 -12.085200
H -9.603300 -15.198300 -15.955600
H -9.555000 -16.326100 -17.963500
H -9.513300 -14.271700 -14.113200
22
Fragment
H -8.698700 -9.748400 -10.765400
H -8.072900 -11.152000 -11.073000
N -7.918700 -13.080400 -15.892700
C -7.899300 -10.208900 -11.030100
H -7.822500 -11.346900 -13.401400
C -7.591000 -11.985700 -15.818900
C -7.513500 -10.473600 -13.479800
C -7.462000 -9.719200 -12.380100
H -7.205600 -10.040200 -10.388500
N -7.161700 -10.719400 -15.878600
C -7.110700 -9.998500 -14.794900
C -6.962800 -8.344500 -12.512200
N -6.911900 -7.623600 -11.428500
H -6.868000 -8.302800 -16.918600
C -6.611600 -8.623800 -14.927000
C -6.560000 -7.869400 -13.827300
C -6.482600 -6.357300 -11.488200
H -6.251000 -6.996100 -13.905700
C -6.174300 -8.134100 -16.277000
N -6.154800 -5.262600 -11.414400
H -6.000700 -7.191000 -16.234100
H -5.374900 -8.594700 -16.541700
54
Fragment
H -12.354700 -20.363900 -13.193900
H -12.313000 -18.309500 -9.343600
H -12.264700 -19.437300 -11.351600
H -12.263000 -21.465000 -15.221900
C -11.981400 -17.882700 -10.100800
C -11.968400 -19.937900 -13.924800
C -11.953800 -18.561000 -11.315200
C -11.921300 -20.602500 -15.152700
H -11.569300 -16.155100 -9.191600
C -11.529000 -16.601900 -10.006200
C -11.474000 -17.963300 -12.480800
C -11.456300 -18.669700 -13.768200
C -11.383700 -20.003600 -16.249600
H -11.352700 -20.459700 -17.058800
C -10.995300 -15.945700 -11.146100
C -10.963100 -16.633800 -12.391200
C -10.904900 -18.001800 -14.916000
C -10.872700 -18.689900 -16.161000
H -10.515300 -14.175900 -10.248400
C -10.484300 -14.632000 -11.057600
C -10.411700 -15.965900 -13.539000
C -10.394000 -16.672300 -14.826300
C -10.339000 -18.033700 -17.300900
H -10.298700 -18.480500 -18.115500
C -9.946600 -14.033100 -12.154400
C -9.914200 -16.074600 -15.992000
C -9.899600 -14.697700 -13.382300
C -9.886500 -16.752900 -17.206300
H -9.605000 -13.170600 -12.085200
H -9.603300 -15.198300 -15.955600
H -9.555000 -16.326100 -17.963500
H -9.513300 -14.271700 -14.113200
H -8.698700 -9.748400 -10.765400
H -8.072900 -11.152000 -11.073000
N -7.918700 -13.080400 -15.892700
C -7.899300 -10.208900 -11.030100
H -7.822500 -11.346900 -13.401400
C -7.591000 -11.985700 -15.818900
C -7.513500 -10.473600 -13.479800
C -7.462000 -9.719200 -12.380100
H -7.205600 -10.040200 -10.388500
N -7.161700 -10.719400 -15.878600
C -7.110700 -9.998500 -14.794900
C -6.962800 -8.344500 -12.512200
N -6.911900 -7.623600 -11.428500
H -6.868000 -8.302800 -16.918600
C -6.611600 -8.623800 -14.927000
C -6.560000 -7.869400 -13.827300
C -6.482600 -6.357300 -11.488200
H -6.251000 -6.996100 -13.905700
C -6.174300 -8.134100 -16.277000
N -6.154800 -5.262600 -11.414400
H -6.000700 -7.191000 -16.234100
H -5.374900 -8.594700 -16.541700
