32
Fragment
H -12.734100 -18.606100 -9.230800
H -12.714200 -20.690900 -13.067800
H -12.674400 -19.741600 -11.250700
H -12.627400 -21.788600 -15.104800
C -12.371600 -18.193700 -9.981700
C -12.335800 -18.876800 -11.204200
C -12.316700 -20.270800 -13.795800
C -12.269100 -20.934400 -15.028200
H -11.923000 -16.473900 -9.075000
C -11.876800 -16.925600 -9.886900
C -11.808400 -18.297100 -12.344800
C -11.781500 -18.998100 -13.637400
C -11.704800 -20.342100 -16.115700
H -11.677500 -20.796700 -16.926500
C -11.296600 -16.292600 -11.005900
C -11.261500 -16.978600 -12.259500
C -11.193200 -18.354300 -14.768100
C -11.158100 -19.040300 -16.021700
H -10.777100 -14.536200 -10.101100
C -10.749800 -14.990800 -10.911900
C -10.673200 -16.334800 -13.390200
C -10.646200 -17.035800 -14.682800
C -10.577900 -18.407300 -17.140700
H -10.531600 -18.859000 -17.952600
C -10.185500 -14.398500 -11.999400
C -10.137900 -15.062100 -13.231800
C -10.118800 -16.456100 -15.823400
C -10.083100 -17.139200 -17.045900
H -9.827200 -13.544300 -11.922800
H -9.780200 -15.591300 -15.776900
H -9.740500 -14.642000 -13.959800
H -9.720600 -16.726800 -17.796800
16
Fragment
Cl -14.028300 -23.166000 -1.719300
N -14.000100 -26.081700 -6.643400
H -13.899200 -24.299400 -4.222600
C -13.646200 -24.992900 -6.615600
C -13.559400 -23.440400 -4.326700
C -13.480100 -22.636200 -3.256800
N -13.187900 -23.737100 -6.719000
C -13.130000 -23.005200 -5.639300
C -12.939400 -21.279400 -3.369900
N -12.881500 -20.547500 -2.290200
C -12.589300 -21.648400 -5.752400
C -12.510000 -20.844200 -4.682500
C -12.423200 -19.291700 -2.393600
H -12.170100 -19.985100 -4.786600
N -12.069300 -18.202900 -2.365800
Cl -12.041100 -21.118600 -7.289900
48
Fragment
H -12.734100 -18.606100 -9.230800
H -12.714200 -20.690900 -13.067800
H -12.674400 -19.741600 -11.250700
H -12.627400 -21.788600 -15.104800
C -12.371600 -18.193700 -9.981700
C -12.335800 -18.876800 -11.204200
C -12.316700 -20.270800 -13.795800
C -12.269100 -20.934400 -15.028200
H -11.923000 -16.473900 -9.075000
C -11.876800 -16.925600 -9.886900
C -11.808400 -18.297100 -12.344800
C -11.781500 -18.998100 -13.637400
C -11.704800 -20.342100 -16.115700
H -11.677500 -20.796700 -16.926500
C -11.296600 -16.292600 -11.005900
C -11.261500 -16.978600 -12.259500
C -11.193200 -18.354300 -14.768100
C -11.158100 -19.040300 -16.021700
H -10.777100 -14.536200 -10.101100
C -10.749800 -14.990800 -10.911900
C -10.673200 -16.334800 -13.390200
C -10.646200 -17.035800 -14.682800
C -10.577900 -18.407300 -17.140700
H -10.531600 -18.859000 -17.952600
C -10.185500 -14.398500 -11.999400
C -10.137900 -15.062100 -13.231800
C -10.118800 -16.456100 -15.823400
C -10.083100 -17.139200 -17.045900
H -9.827200 -13.544300 -11.922800
H -9.780200 -15.591300 -15.776900
H -9.740500 -14.642000 -13.959800
H -9.720600 -16.726800 -17.796800
Cl -14.028300 -23.166000 -1.719300
N -14.000100 -26.081700 -6.643400
H -13.899200 -24.299400 -4.222600
C -13.646200 -24.992900 -6.615600
C -13.559400 -23.440400 -4.326700
C -13.480100 -22.636200 -3.256800
N -13.187900 -23.737100 -6.719000
C -13.130000 -23.005200 -5.639300
C -12.939400 -21.279400 -3.369900
N -12.881500 -20.547500 -2.290200
C -12.589300 -21.648400 -5.752400
C -12.510000 -20.844200 -4.682500
C -12.423200 -19.291700 -2.393600
H -12.170100 -19.985100 -4.786600
N -12.069300 -18.202900 -2.365800
Cl -12.041100 -21.118600 -7.289900
