26
Fragment
H -2.842000 -12.694700 -15.407200
H -2.839500 -12.813700 -12.889400
H -2.826400 -11.789900 -10.932000
C -2.819300 -11.767000 -15.352600
C -2.818600 -11.885100 -12.867900
H -2.814600 -11.486500 -17.288600
C -2.806500 -11.277300 -11.706900
C -2.803500 -11.043700 -16.470800
C -2.801600 -11.159300 -14.113800
C -2.772400 -9.675400 -16.465400
C -2.766300 -9.735500 -14.042300
C -2.764300 -9.868500 -11.591600
H -2.763100 -9.204700 -17.268000
H -2.754800 -9.635100 -9.545700
C -2.753600 -8.971300 -15.222100
C -2.751700 -9.104300 -12.771400
C -2.745600 -9.164400 -10.348300
C -2.716400 -7.680600 -12.699900
C -2.714500 -7.796100 -10.342900
C -2.711400 -7.562500 -15.106800
H -2.703300 -7.353300 -9.525100
C -2.699300 -6.954700 -13.945800
C -2.698600 -7.072800 -11.461100
H -2.691600 -7.050000 -15.881800
H -2.678500 -6.026100 -13.924400
H -2.676000 -6.145200 -11.406600
26
Fragment
H -5.140000 -5.644100 -25.463200
H -5.111000 -7.714000 -19.188800
N -4.438800 -8.031500 -27.072000
H -4.429500 -8.977600 -19.817100
C -4.396800 -8.169600 -25.937800
N -4.375200 -11.012500 -24.135900
C -4.374100 -9.879300 -24.287900
C -4.372400 -8.463900 -24.543500
C -4.359300 -8.027700 -19.696500
C -4.354500 -7.568600 -23.495100
C -4.349100 -8.094000 -22.155300
H -4.349000 -9.018800 -22.055200
C -4.344000 -7.349800 -21.042500
C -4.343700 -6.119000 -23.647000
H -4.338700 -4.450000 -22.634400
C -4.338500 -5.374800 -22.534200
C -4.333100 -5.900200 -21.194500
C -4.328300 -5.441100 -24.993100
C -4.315300 -5.004800 -20.146000
C -4.313500 -3.589500 -20.401700
N -4.312500 -2.456300 -20.553600
C -4.290800 -5.299200 -18.751700
H -4.258100 -4.491100 -24.872400
N -4.248900 -5.437300 -17.617500
H -3.576700 -5.754800 -25.500700
H -3.547600 -7.824700 -19.226300
52
Fragment
H -2.842000 -12.694700 -15.407200
H -2.839500 -12.813700 -12.889400
H -2.826400 -11.789900 -10.932000
C -2.819300 -11.767000 -15.352600
C -2.818600 -11.885100 -12.867900
H -2.814600 -11.486500 -17.288600
C -2.806500 -11.277300 -11.706900
C -2.803500 -11.043700 -16.470800
C -2.801600 -11.159300 -14.113800
C -2.772400 -9.675400 -16.465400
C -2.766300 -9.735500 -14.042300
C -2.764300 -9.868500 -11.591600
H -2.763100 -9.204700 -17.268000
H -2.754800 -9.635100 -9.545700
C -2.753600 -8.971300 -15.222100
C -2.751700 -9.104300 -12.771400
C -2.745600 -9.164400 -10.348300
C -2.716400 -7.680600 -12.699900
C -2.714500 -7.796100 -10.342900
C -2.711400 -7.562500 -15.106800
H -2.703300 -7.353300 -9.525100
C -2.699300 -6.954700 -13.945800
C -2.698600 -7.072800 -11.461100
H -2.691600 -7.050000 -15.881800
H -2.678500 -6.026100 -13.924400
H -2.676000 -6.145200 -11.406600
H -5.140000 -5.644100 -25.463200
H -5.111000 -7.714000 -19.188800
N -4.438800 -8.031500 -27.072000
H -4.429500 -8.977600 -19.817100
C -4.396800 -8.169600 -25.937800
N -4.375200 -11.012500 -24.135900
C -4.374100 -9.879300 -24.287900
C -4.372400 -8.463900 -24.543500
C -4.359300 -8.027700 -19.696500
C -4.354500 -7.568600 -23.495100
C -4.349100 -8.094000 -22.155300
H -4.349000 -9.018800 -22.055200
C -4.344000 -7.349800 -21.042500
C -4.343700 -6.119000 -23.647000
H -4.338700 -4.450000 -22.634400
C -4.338500 -5.374800 -22.534200
C -4.333100 -5.900200 -21.194500
C -4.328300 -5.441100 -24.993100
C -4.315300 -5.004800 -20.146000
C -4.313500 -3.589500 -20.401700
N -4.312500 -2.456300 -20.553600
C -4.290800 -5.299200 -18.751700
H -4.258100 -4.491100 -24.872400
N -4.248900 -5.437300 -17.617500
H -3.576700 -5.754800 -25.500700
H -3.547600 -7.824700 -19.226300
