26
Fragment
H -2.842000 -12.694700 -15.407200
H -2.839500 -12.813700 -12.889400
H -2.826400 -11.789900 -10.932000
C -2.819300 -11.767000 -15.352600
C -2.818600 -11.885100 -12.867900
H -2.814600 -11.486500 -17.288600
C -2.806500 -11.277300 -11.706900
C -2.803500 -11.043700 -16.470800
C -2.801600 -11.159300 -14.113800
C -2.772400 -9.675400 -16.465400
C -2.766300 -9.735500 -14.042300
C -2.764300 -9.868500 -11.591600
H -2.763100 -9.204700 -17.268000
H -2.754800 -9.635100 -9.545700
C -2.753600 -8.971300 -15.222100
C -2.751700 -9.104300 -12.771400
C -2.745600 -9.164400 -10.348300
C -2.716400 -7.680600 -12.699900
C -2.714500 -7.796100 -10.342900
C -2.711400 -7.562500 -15.106800
H -2.703300 -7.353300 -9.525100
C -2.699300 -6.954700 -13.945800
C -2.698600 -7.072800 -11.461100
H -2.691600 -7.050000 -15.881800
H -2.678500 -6.026100 -13.924400
H -2.676000 -6.145200 -11.406600
26
Fragment
H -2.865200 -2.049700 -7.587400
H -2.836100 -4.119600 -1.313000
N -2.163900 -4.437000 -9.196200
H -2.154700 -5.383200 -1.941300
C -2.122000 -4.575200 -8.062000
N -2.100300 -7.418000 -6.260100
C -2.099300 -6.284900 -6.412100
C -2.097500 -4.869500 -6.667700
C -2.084500 -4.433300 -1.820700
C -2.079700 -3.974200 -5.619300
C -2.074300 -4.499600 -4.279500
H -2.074100 -5.424400 -4.179400
C -2.069100 -3.755400 -3.166700
C -2.068800 -2.524600 -5.771200
H -2.063800 -0.855500 -4.758500
C -2.063700 -1.780400 -4.658400
C -2.058300 -2.305700 -3.318600
C -2.053500 -1.846700 -7.117300
C -2.040400 -1.410400 -2.270200
C -2.038700 0.004900 -2.525900
N -2.037600 1.138100 -2.677800
C -2.016000 -1.704700 -0.875900
H -1.983300 -0.896700 -6.996600
N -1.974000 -1.842900 0.258300
H -1.301800 -2.160300 -7.624900
H -1.272800 -4.230300 -1.350500
52
Fragment
H -2.842000 -12.694700 -15.407200
H -2.839500 -12.813700 -12.889400
H -2.826400 -11.789900 -10.932000
C -2.819300 -11.767000 -15.352600
C -2.818600 -11.885100 -12.867900
H -2.814600 -11.486500 -17.288600
C -2.806500 -11.277300 -11.706900
C -2.803500 -11.043700 -16.470800
C -2.801600 -11.159300 -14.113800
C -2.772400 -9.675400 -16.465400
C -2.766300 -9.735500 -14.042300
C -2.764300 -9.868500 -11.591600
H -2.763100 -9.204700 -17.268000
H -2.754800 -9.635100 -9.545700
C -2.753600 -8.971300 -15.222100
C -2.751700 -9.104300 -12.771400
C -2.745600 -9.164400 -10.348300
C -2.716400 -7.680600 -12.699900
C -2.714500 -7.796100 -10.342900
C -2.711400 -7.562500 -15.106800
H -2.703300 -7.353300 -9.525100
C -2.699300 -6.954700 -13.945800
C -2.698600 -7.072800 -11.461100
H -2.691600 -7.050000 -15.881800
H -2.678500 -6.026100 -13.924400
H -2.676000 -6.145200 -11.406600
H -2.865200 -2.049700 -7.587400
H -2.836100 -4.119600 -1.313000
N -2.163900 -4.437000 -9.196200
H -2.154700 -5.383200 -1.941300
C -2.122000 -4.575200 -8.062000
N -2.100300 -7.418000 -6.260100
C -2.099300 -6.284900 -6.412100
C -2.097500 -4.869500 -6.667700
C -2.084500 -4.433300 -1.820700
C -2.079700 -3.974200 -5.619300
C -2.074300 -4.499600 -4.279500
H -2.074100 -5.424400 -4.179400
C -2.069100 -3.755400 -3.166700
C -2.068800 -2.524600 -5.771200
H -2.063800 -0.855500 -4.758500
C -2.063700 -1.780400 -4.658400
C -2.058300 -2.305700 -3.318600
C -2.053500 -1.846700 -7.117300
C -2.040400 -1.410400 -2.270200
C -2.038700 0.004900 -2.525900
N -2.037600 1.138100 -2.677800
C -2.016000 -1.704700 -0.875900
H -1.983300 -0.896700 -6.996600
N -1.974000 -1.842900 0.258300
H -1.301800 -2.160300 -7.624900
H -1.272800 -4.230300 -1.350500
