26
Fragment
H -2.842000 -12.694700 -15.407200
H -2.839500 -12.813700 -12.889400
H -2.826400 -11.789900 -10.932000
C -2.819300 -11.767000 -15.352600
C -2.818600 -11.885100 -12.867900
H -2.814600 -11.486500 -17.288600
C -2.806500 -11.277300 -11.706900
C -2.803500 -11.043700 -16.470800
C -2.801600 -11.159300 -14.113800
C -2.772400 -9.675400 -16.465400
C -2.766300 -9.735500 -14.042300
C -2.764300 -9.868500 -11.591600
H -2.763100 -9.204700 -17.268000
H -2.754800 -9.635100 -9.545700
C -2.753600 -8.971300 -15.222100
C -2.751700 -9.104300 -12.771400
C -2.745600 -9.164400 -10.348300
C -2.716400 -7.680600 -12.699900
C -2.714500 -7.796100 -10.342900
C -2.711400 -7.562500 -15.106800
H -2.703300 -7.353300 -9.525100
C -2.699300 -6.954700 -13.945800
C -2.698600 -7.072800 -11.461100
H -2.691600 -7.050000 -15.881800
H -2.678500 -6.026100 -13.924400
H -2.676000 -6.145200 -11.406600
26
Fragment
H -1.947100 -21.660100 -15.407200
H -1.944600 -21.779200 -12.889400
H -1.931500 -20.755300 -10.932000
C -1.924400 -20.732400 -15.352600
C -1.923800 -20.850500 -12.867900
H -1.919700 -20.452000 -17.288600
C -1.911700 -20.242800 -11.706900
C -1.908600 -20.009200 -16.470800
C -1.906700 -20.124700 -14.113800
C -1.877500 -18.640800 -16.465400
C -1.871400 -18.701000 -14.042300
C -1.869400 -18.834000 -11.591600
H -1.868300 -18.170200 -17.268000
H -1.859900 -18.600500 -9.545700
C -1.858800 -17.936800 -15.222100
C -1.856800 -18.069700 -12.771400
C -1.850700 -18.129900 -10.348300
C -1.821500 -16.646000 -12.699900
C -1.819600 -16.761600 -10.342900
C -1.816500 -16.528000 -15.106800
H -1.808500 -16.318700 -9.525100
C -1.804400 -15.920200 -13.945800
C -1.803800 -16.038300 -11.461100
H -1.796700 -16.015400 -15.881800
H -1.783600 -14.991500 -13.924400
H -1.781100 -15.110600 -11.406600
52
Fragment
H -2.842000 -12.694700 -15.407200
H -2.839500 -12.813700 -12.889400
H -2.826400 -11.789900 -10.932000
C -2.819300 -11.767000 -15.352600
C -2.818600 -11.885100 -12.867900
H -2.814600 -11.486500 -17.288600
C -2.806500 -11.277300 -11.706900
C -2.803500 -11.043700 -16.470800
C -2.801600 -11.159300 -14.113800
C -2.772400 -9.675400 -16.465400
C -2.766300 -9.735500 -14.042300
C -2.764300 -9.868500 -11.591600
H -2.763100 -9.204700 -17.268000
H -2.754800 -9.635100 -9.545700
C -2.753600 -8.971300 -15.222100
C -2.751700 -9.104300 -12.771400
C -2.745600 -9.164400 -10.348300
C -2.716400 -7.680600 -12.699900
C -2.714500 -7.796100 -10.342900
C -2.711400 -7.562500 -15.106800
H -2.703300 -7.353300 -9.525100
C -2.699300 -6.954700 -13.945800
C -2.698600 -7.072800 -11.461100
H -2.691600 -7.050000 -15.881800
H -2.678500 -6.026100 -13.924400
H -2.676000 -6.145200 -11.406600
H -1.947100 -21.660100 -15.407200
H -1.944600 -21.779200 -12.889400
H -1.931500 -20.755300 -10.932000
C -1.924400 -20.732400 -15.352600
C -1.923800 -20.850500 -12.867900
H -1.919700 -20.452000 -17.288600
C -1.911700 -20.242800 -11.706900
C -1.908600 -20.009200 -16.470800
C -1.906700 -20.124700 -14.113800
C -1.877500 -18.640800 -16.465400
C -1.871400 -18.701000 -14.042300
C -1.869400 -18.834000 -11.591600
H -1.868300 -18.170200 -17.268000
H -1.859900 -18.600500 -9.545700
C -1.858800 -17.936800 -15.222100
C -1.856800 -18.069700 -12.771400
C -1.850700 -18.129900 -10.348300
C -1.821500 -16.646000 -12.699900
C -1.819600 -16.761600 -10.342900
C -1.816500 -16.528000 -15.106800
H -1.808500 -16.318700 -9.525100
C -1.804400 -15.920200 -13.945800
C -1.803800 -16.038300 -11.461100
H -1.796700 -16.015400 -15.881800
H -1.783600 -14.991500 -13.924400
H -1.781100 -15.110600 -11.406600
