26
Fragment
H -9.315500 -12.570100 -13.399900
H -9.228300 -13.154500 -15.615000
C -9.014100 -13.416100 -13.639900
H -8.990300 -13.175100 -10.978400
C -8.956500 -13.766100 -14.968900
C -8.688200 -14.013500 -11.245400
C -8.622500 -14.323500 -12.641900
C -8.502700 -15.009100 -15.359100
H -8.471300 -15.224500 -16.263600
H -8.395200 -14.678500 -9.417000
C -8.323300 -14.906200 -10.315500
C -8.157500 -15.607400 -13.034500
C -8.089800 -15.951400 -14.405600
C -7.823500 -16.207700 -10.670600
C -7.755700 -16.551700 -12.041800
C -7.590000 -17.252900 -14.760800
H -7.518100 -17.480600 -15.659300
H -7.442000 -16.934600 -8.812600
C -7.410500 -17.150100 -9.717100
C -7.290700 -17.835600 -12.434300
C -7.225000 -18.145600 -13.830900
C -6.956800 -18.393000 -10.107300
H -6.923000 -18.984000 -14.097900
C -6.899200 -18.743000 -11.436400
H -6.684900 -19.004600 -9.461300
H -6.597800 -19.589000 -11.676300
26
Fragment
H -8.951600 -18.025100 -5.041200
H -8.864500 -18.609400 -7.256200
C -8.650300 -18.871000 -5.281100
H -8.626400 -18.630000 -2.619600
C -8.592600 -19.221000 -6.610200
C -8.324400 -19.468400 -2.886600
C -8.258700 -19.778400 -4.283200
C -8.138900 -20.464000 -7.000400
H -8.107400 -20.679400 -7.904900
H -8.031300 -20.133400 -1.058200
C -7.959400 -20.361200 -1.956700
C -7.793700 -21.062300 -4.675700
C -7.726000 -21.406300 -6.046900
C -7.459600 -21.662700 -2.311900
C -7.391900 -22.006600 -3.683000
C -7.226200 -22.707800 -6.402100
H -7.154300 -22.935500 -7.300500
H -7.078200 -22.389500 -0.453900
C -7.046700 -22.605000 -1.358400
C -6.926900 -23.290500 -4.075600
C -6.861200 -23.600600 -5.472100
C -6.593000 -23.848000 -1.748600
H -6.559100 -24.438900 -5.739100
C -6.535300 -24.197900 -3.077600
H -6.321100 -24.459500 -1.102500
H -6.233900 -25.043900 -3.317600
52
Fragment
H -9.315500 -12.570100 -13.399900
H -9.228300 -13.154500 -15.615000
C -9.014100 -13.416100 -13.639900
H -8.990300 -13.175100 -10.978400
C -8.956500 -13.766100 -14.968900
C -8.688200 -14.013500 -11.245400
C -8.622500 -14.323500 -12.641900
C -8.502700 -15.009100 -15.359100
H -8.471300 -15.224500 -16.263600
H -8.395200 -14.678500 -9.417000
C -8.323300 -14.906200 -10.315500
C -8.157500 -15.607400 -13.034500
C -8.089800 -15.951400 -14.405600
C -7.823500 -16.207700 -10.670600
C -7.755700 -16.551700 -12.041800
C -7.590000 -17.252900 -14.760800
H -7.518100 -17.480600 -15.659300
H -7.442000 -16.934600 -8.812600
C -7.410500 -17.150100 -9.717100
C -7.290700 -17.835600 -12.434300
C -7.225000 -18.145600 -13.830900
C -6.956800 -18.393000 -10.107300
H -6.923000 -18.984000 -14.097900
C -6.899200 -18.743000 -11.436400
H -6.684900 -19.004600 -9.461300
H -6.597800 -19.589000 -11.676300
H -8.951600 -18.025100 -5.041200
H -8.864500 -18.609400 -7.256200
C -8.650300 -18.871000 -5.281100
H -8.626400 -18.630000 -2.619600
C -8.592600 -19.221000 -6.610200
C -8.324400 -19.468400 -2.886600
C -8.258700 -19.778400 -4.283200
C -8.138900 -20.464000 -7.000400
H -8.107400 -20.679400 -7.904900
H -8.031300 -20.133400 -1.058200
C -7.959400 -20.361200 -1.956700
C -7.793700 -21.062300 -4.675700
C -7.726000 -21.406300 -6.046900
C -7.459600 -21.662700 -2.311900
C -7.391900 -22.006600 -3.683000
C -7.226200 -22.707800 -6.402100
H -7.154300 -22.935500 -7.300500
H -7.078200 -22.389500 -0.453900
C -7.046700 -22.605000 -1.358400
C -6.926900 -23.290500 -4.075600
C -6.861200 -23.600600 -5.472100
C -6.593000 -23.848000 -1.748600
H -6.559100 -24.438900 -5.739100
C -6.535300 -24.197900 -3.077600
H -6.321100 -24.459500 -1.102500
H -6.233900 -25.043900 -3.317600
