26
Fragment
H -9.315500 -12.570100 -13.399900
H -9.228300 -13.154500 -15.615000
C -9.014100 -13.416100 -13.639900
H -8.990300 -13.175100 -10.978400
C -8.956500 -13.766100 -14.968900
C -8.688200 -14.013500 -11.245400
C -8.622500 -14.323500 -12.641900
C -8.502700 -15.009100 -15.359100
H -8.471300 -15.224500 -16.263600
H -8.395200 -14.678500 -9.417000
C -8.323300 -14.906200 -10.315500
C -8.157500 -15.607400 -13.034500
C -8.089800 -15.951400 -14.405600
C -7.823500 -16.207700 -10.670600
C -7.755700 -16.551700 -12.041800
C -7.590000 -17.252900 -14.760800
H -7.518100 -17.480600 -15.659300
H -7.442000 -16.934600 -8.812600
C -7.410500 -17.150100 -9.717100
C -7.290700 -17.835600 -12.434300
C -7.225000 -18.145600 -13.830900
C -6.956800 -18.393000 -10.107300
H -6.923000 -18.984000 -14.097900
C -6.899200 -18.743000 -11.436400
H -6.684900 -19.004600 -9.461300
H -6.597800 -19.589000 -11.676300
26
Fragment
H -9.278900 -4.482800 -13.399900
H -9.191800 -5.067200 -15.615000
C -8.977500 -5.328800 -13.639900
H -8.953700 -5.087800 -10.978400
C -8.919900 -5.678800 -14.968900
C -8.651700 -5.926200 -11.245400
C -8.586000 -6.236200 -12.641900
C -8.466200 -6.921700 -15.359100
H -8.434700 -7.137200 -16.263600
H -8.358600 -6.591200 -9.417000
C -8.286700 -6.818900 -10.315500
C -8.121000 -7.520100 -13.034500
C -8.053200 -7.864100 -14.405600
C -7.786900 -8.120400 -10.670600
C -7.719200 -8.464400 -12.041800
C -7.553500 -9.165600 -14.760800
H -7.481500 -9.393300 -15.659300
H -7.405400 -8.847300 -8.812600
C -7.374000 -9.062800 -9.717100
C -7.254200 -9.748300 -12.434300
C -7.188500 -10.058300 -13.830900
C -6.920200 -10.305700 -10.107300
H -6.886400 -10.896700 -14.097900
C -6.862600 -10.655700 -11.436400
H -6.648400 -10.917300 -9.461300
H -6.561200 -11.501700 -11.676300
52
Fragment
H -9.315500 -12.570100 -13.399900
H -9.228300 -13.154500 -15.615000
C -9.014100 -13.416100 -13.639900
H -8.990300 -13.175100 -10.978400
C -8.956500 -13.766100 -14.968900
C -8.688200 -14.013500 -11.245400
C -8.622500 -14.323500 -12.641900
C -8.502700 -15.009100 -15.359100
H -8.471300 -15.224500 -16.263600
H -8.395200 -14.678500 -9.417000
C -8.323300 -14.906200 -10.315500
C -8.157500 -15.607400 -13.034500
C -8.089800 -15.951400 -14.405600
C -7.823500 -16.207700 -10.670600
C -7.755700 -16.551700 -12.041800
C -7.590000 -17.252900 -14.760800
H -7.518100 -17.480600 -15.659300
H -7.442000 -16.934600 -8.812600
C -7.410500 -17.150100 -9.717100
C -7.290700 -17.835600 -12.434300
C -7.225000 -18.145600 -13.830900
C -6.956800 -18.393000 -10.107300
H -6.923000 -18.984000 -14.097900
C -6.899200 -18.743000 -11.436400
H -6.684900 -19.004600 -9.461300
H -6.597800 -19.589000 -11.676300
H -9.278900 -4.482800 -13.399900
H -9.191800 -5.067200 -15.615000
C -8.977500 -5.328800 -13.639900
H -8.953700 -5.087800 -10.978400
C -8.919900 -5.678800 -14.968900
C -8.651700 -5.926200 -11.245400
C -8.586000 -6.236200 -12.641900
C -8.466200 -6.921700 -15.359100
H -8.434700 -7.137200 -16.263600
H -8.358600 -6.591200 -9.417000
C -8.286700 -6.818900 -10.315500
C -8.121000 -7.520100 -13.034500
C -8.053200 -7.864100 -14.405600
C -7.786900 -8.120400 -10.670600
C -7.719200 -8.464400 -12.041800
C -7.553500 -9.165600 -14.760800
H -7.481500 -9.393300 -15.659300
H -7.405400 -8.847300 -8.812600
C -7.374000 -9.062800 -9.717100
C -7.254200 -9.748300 -12.434300
C -7.188500 -10.058300 -13.830900
C -6.920200 -10.305700 -10.107300
H -6.886400 -10.896700 -14.097900
C -6.862600 -10.655700 -11.436400
H -6.648400 -10.917300 -9.461300
H -6.561200 -11.501700 -11.676300
