26
Fragment
H -9.315500 -12.570100 -13.399900
H -9.228300 -13.154500 -15.615000
C -9.014100 -13.416100 -13.639900
H -8.990300 -13.175100 -10.978400
C -8.956500 -13.766100 -14.968900
C -8.688200 -14.013500 -11.245400
C -8.622500 -14.323500 -12.641900
C -8.502700 -15.009100 -15.359100
H -8.471300 -15.224500 -16.263600
H -8.395200 -14.678500 -9.417000
C -8.323300 -14.906200 -10.315500
C -8.157500 -15.607400 -13.034500
C -8.089800 -15.951400 -14.405600
C -7.823500 -16.207700 -10.670600
C -7.755700 -16.551700 -12.041800
C -7.590000 -17.252900 -14.760800
H -7.518100 -17.480600 -15.659300
H -7.442000 -16.934600 -8.812600
C -7.410500 -17.150100 -9.717100
C -7.290700 -17.835600 -12.434300
C -7.225000 -18.145600 -13.830900
C -6.956800 -18.393000 -10.107300
H -6.923000 -18.984000 -14.097900
C -6.899200 -18.743000 -11.436400
H -6.684900 -19.004600 -9.461300
H -6.597800 -19.589000 -11.676300
22
Fragment
H -6.109300 -13.583600 -13.924000
C -5.202100 -13.790400 -14.159100
H -5.152900 -13.993100 -15.095900
N -5.031800 -13.745500 -11.377400
N -5.011400 -13.285400 -8.948000
C -4.996200 -13.580100 -10.052200
C -4.739300 -14.972900 -13.368500
C -4.677600 -14.884000 -11.909000
H -4.641200 -13.036000 -13.965000
H -4.412200 -16.203700 -14.873600
C -4.377700 -16.132000 -13.947200
C -4.234300 -16.027100 -11.129100
H -4.199800 -15.955500 -10.202700
H -3.970900 -19.123100 -11.111300
C -3.934500 -17.275100 -13.167300
C -3.872800 -17.186200 -11.707800
C -3.615900 -18.579100 -15.024000
N -3.600600 -18.873700 -16.128200
N -3.580300 -18.413600 -13.698800
H -3.459200 -18.166100 -9.980300
C -3.409900 -18.368700 -10.917100
H -2.502800 -18.575600 -11.152200
48
Fragment
H -9.315500 -12.570100 -13.399900
H -9.228300 -13.154500 -15.615000
C -9.014100 -13.416100 -13.639900
H -8.990300 -13.175100 -10.978400
C -8.956500 -13.766100 -14.968900
C -8.688200 -14.013500 -11.245400
C -8.622500 -14.323500 -12.641900
C -8.502700 -15.009100 -15.359100
H -8.471300 -15.224500 -16.263600
H -8.395200 -14.678500 -9.417000
C -8.323300 -14.906200 -10.315500
C -8.157500 -15.607400 -13.034500
C -8.089800 -15.951400 -14.405600
C -7.823500 -16.207700 -10.670600
C -7.755700 -16.551700 -12.041800
C -7.590000 -17.252900 -14.760800
H -7.518100 -17.480600 -15.659300
H -7.442000 -16.934600 -8.812600
C -7.410500 -17.150100 -9.717100
C -7.290700 -17.835600 -12.434300
C -7.225000 -18.145600 -13.830900
C -6.956800 -18.393000 -10.107300
H -6.923000 -18.984000 -14.097900
C -6.899200 -18.743000 -11.436400
H -6.684900 -19.004600 -9.461300
H -6.597800 -19.589000 -11.676300
H -6.109300 -13.583600 -13.924000
C -5.202100 -13.790400 -14.159100
H -5.152900 -13.993100 -15.095900
N -5.031800 -13.745500 -11.377400
N -5.011400 -13.285400 -8.948000
C -4.996200 -13.580100 -10.052200
C -4.739300 -14.972900 -13.368500
C -4.677600 -14.884000 -11.909000
H -4.641200 -13.036000 -13.965000
H -4.412200 -16.203700 -14.873600
C -4.377700 -16.132000 -13.947200
C -4.234300 -16.027100 -11.129100
H -4.199800 -15.955500 -10.202700
H -3.970900 -19.123100 -11.111300
C -3.934500 -17.275100 -13.167300
C -3.872800 -17.186200 -11.707800
C -3.615900 -18.579100 -15.024000
N -3.600600 -18.873700 -16.128200
N -3.580300 -18.413600 -13.698800
H -3.459200 -18.166100 -9.980300
C -3.409900 -18.368700 -10.917100
H -2.502800 -18.575600 -11.152200
