26
Fragment
H -9.315500 -12.570100 -13.399900
H -9.228300 -13.154500 -15.615000
C -9.014100 -13.416100 -13.639900
H -8.990300 -13.175100 -10.978400
C -8.956500 -13.766100 -14.968900
C -8.688200 -14.013500 -11.245400
C -8.622500 -14.323500 -12.641900
C -8.502700 -15.009100 -15.359100
H -8.471300 -15.224500 -16.263600
H -8.395200 -14.678500 -9.417000
C -8.323300 -14.906200 -10.315500
C -8.157500 -15.607400 -13.034500
C -8.089800 -15.951400 -14.405600
C -7.823500 -16.207700 -10.670600
C -7.755700 -16.551700 -12.041800
C -7.590000 -17.252900 -14.760800
H -7.518100 -17.480600 -15.659300
H -7.442000 -16.934600 -8.812600
C -7.410500 -17.150100 -9.717100
C -7.290700 -17.835600 -12.434300
C -7.225000 -18.145600 -13.830900
C -6.956800 -18.393000 -10.107300
H -6.923000 -18.984000 -14.097900
C -6.899200 -18.743000 -11.436400
H -6.684900 -19.004600 -9.461300
H -6.597800 -19.589000 -11.676300
22
Fragment
H -6.145800 -21.670900 -13.924000
C -5.238700 -21.877700 -14.159100
H -5.189500 -22.080400 -15.095900
N -5.068400 -21.832800 -11.377400
N -5.048000 -21.372700 -8.948000
C -5.032800 -21.667400 -10.052200
C -4.775900 -23.060300 -13.368500
C -4.714100 -22.971300 -11.909000
H -4.677700 -21.123300 -13.965000
H -4.448800 -24.291000 -14.873600
C -4.414300 -24.219400 -13.947200
C -4.270900 -24.114400 -11.129100
H -4.236400 -24.042800 -10.202700
H -4.007500 -27.210400 -11.111300
C -3.971100 -25.362400 -13.167300
C -3.909300 -25.273500 -11.707800
C -3.652400 -26.666400 -15.024000
N -3.637200 -26.961100 -16.128200
N -3.616800 -26.500900 -13.698800
H -3.495700 -26.253400 -9.980300
C -3.446500 -26.456000 -10.917100
H -2.539400 -26.662900 -11.152200
48
Fragment
H -9.315500 -12.570100 -13.399900
H -9.228300 -13.154500 -15.615000
C -9.014100 -13.416100 -13.639900
H -8.990300 -13.175100 -10.978400
C -8.956500 -13.766100 -14.968900
C -8.688200 -14.013500 -11.245400
C -8.622500 -14.323500 -12.641900
C -8.502700 -15.009100 -15.359100
H -8.471300 -15.224500 -16.263600
H -8.395200 -14.678500 -9.417000
C -8.323300 -14.906200 -10.315500
C -8.157500 -15.607400 -13.034500
C -8.089800 -15.951400 -14.405600
C -7.823500 -16.207700 -10.670600
C -7.755700 -16.551700 -12.041800
C -7.590000 -17.252900 -14.760800
H -7.518100 -17.480600 -15.659300
H -7.442000 -16.934600 -8.812600
C -7.410500 -17.150100 -9.717100
C -7.290700 -17.835600 -12.434300
C -7.225000 -18.145600 -13.830900
C -6.956800 -18.393000 -10.107300
H -6.923000 -18.984000 -14.097900
C -6.899200 -18.743000 -11.436400
H -6.684900 -19.004600 -9.461300
H -6.597800 -19.589000 -11.676300
H -6.145800 -21.670900 -13.924000
C -5.238700 -21.877700 -14.159100
H -5.189500 -22.080400 -15.095900
N -5.068400 -21.832800 -11.377400
N -5.048000 -21.372700 -8.948000
C -5.032800 -21.667400 -10.052200
C -4.775900 -23.060300 -13.368500
C -4.714100 -22.971300 -11.909000
H -4.677700 -21.123300 -13.965000
H -4.448800 -24.291000 -14.873600
C -4.414300 -24.219400 -13.947200
C -4.270900 -24.114400 -11.129100
H -4.236400 -24.042800 -10.202700
H -4.007500 -27.210400 -11.111300
C -3.971100 -25.362400 -13.167300
C -3.909300 -25.273500 -11.707800
C -3.652400 -26.666400 -15.024000
N -3.637200 -26.961100 -16.128200
N -3.616800 -26.500900 -13.698800
H -3.495700 -26.253400 -9.980300
C -3.446500 -26.456000 -10.917100
H -2.539400 -26.662900 -11.152200
