14
Fragment
H -10.680900 -19.476500 -19.430600
O -10.260800 -21.523200 -18.354300
O -10.072600 -19.369900 -18.850500
C -9.726100 -20.438600 -18.202900
H -8.931000 -21.795600 -16.009900
H -8.862000 -19.534800 -16.604800
C -8.596600 -20.211000 -17.248600
C -8.170100 -21.450000 -16.502700
H -7.904600 -22.126200 -17.146500
H -7.835600 -19.865400 -17.741400
C -7.040600 -21.222400 -15.548400
O -6.694100 -22.291100 -14.900800
O -6.505900 -20.137800 -15.397000
H -6.085800 -22.184500 -14.320700
16
Fragment
H -10.057700 -19.707000 -14.094500
H -10.000900 -24.321700 -12.876100
N -9.727500 -22.309000 -13.133000
C -9.517400 -23.564900 -12.636500
N -9.412800 -19.407200 -13.611000
H -9.308800 -17.399000 -14.045600
C -8.974400 -18.120500 -13.562100
C -8.825400 -21.537100 -12.546200
C -8.655600 -20.123900 -12.767300
C -8.506600 -23.540500 -11.751300
H -8.172200 -24.262000 -11.267900
N -8.068200 -22.253800 -11.702500
C -7.963600 -18.096100 -12.677000
N -7.753500 -19.352000 -12.180400
H -7.480100 -17.339300 -12.437300
H -7.423300 -21.954000 -11.218900
30
Fragment
H -10.680900 -19.476500 -19.430600
O -10.260800 -21.523200 -18.354300
O -10.072600 -19.369900 -18.850500
C -9.726100 -20.438600 -18.202900
H -8.931000 -21.795600 -16.009900
H -8.862000 -19.534800 -16.604800
C -8.596600 -20.211000 -17.248600
C -8.170100 -21.450000 -16.502700
H -7.904600 -22.126200 -17.146500
H -7.835600 -19.865400 -17.741400
C -7.040600 -21.222400 -15.548400
O -6.694100 -22.291100 -14.900800
O -6.505900 -20.137800 -15.397000
H -6.085800 -22.184500 -14.320700
H -10.057700 -19.707000 -14.094500
H -10.000900 -24.321700 -12.876100
N -9.727500 -22.309000 -13.133000
C -9.517400 -23.564900 -12.636500
N -9.412800 -19.407200 -13.611000
H -9.308800 -17.399000 -14.045600
C -8.974400 -18.120500 -13.562100
C -8.825400 -21.537100 -12.546200
C -8.655600 -20.123900 -12.767300
C -8.506600 -23.540500 -11.751300
H -8.172200 -24.262000 -11.267900
N -8.068200 -22.253800 -11.702500
C -7.963600 -18.096100 -12.677000
N -7.753500 -19.352000 -12.180400
H -7.480100 -17.339300 -12.437300
H -7.423300 -21.954000 -11.218900
