14
Fragment
H -10.680900 -19.476500 -19.430600
O -10.260800 -21.523200 -18.354300
O -10.072600 -19.369900 -18.850500
C -9.726100 -20.438600 -18.202900
H -8.931000 -21.795600 -16.009900
H -8.862000 -19.534800 -16.604800
C -8.596600 -20.211000 -17.248600
C -8.170100 -21.450000 -16.502700
H -7.904600 -22.126200 -17.146500
H -7.835600 -19.865400 -17.741400
C -7.040600 -21.222400 -15.548400
O -6.694100 -22.291100 -14.900800
O -6.505900 -20.137800 -15.397000
H -6.085800 -22.184500 -14.320700
14
Fragment
H -5.774900 -19.476500 -19.430600
O -5.354800 -21.523200 -18.354300
O -5.166600 -19.369900 -18.850500
C -4.820100 -20.438600 -18.202900
H -4.025000 -21.795600 -16.009900
H -3.956000 -19.534800 -16.604800
C -3.690600 -20.211000 -17.248600
C -3.264100 -21.450000 -16.502700
H -2.998600 -22.126200 -17.146500
H -2.929600 -19.865400 -17.741400
C -2.134600 -21.222400 -15.548400
O -1.788100 -22.291100 -14.900800
O -1.599900 -20.137800 -15.397000
H -1.179800 -22.184500 -14.320700
28
Fragment
H -10.680900 -19.476500 -19.430600
O -10.260800 -21.523200 -18.354300
O -10.072600 -19.369900 -18.850500
C -9.726100 -20.438600 -18.202900
H -8.931000 -21.795600 -16.009900
H -8.862000 -19.534800 -16.604800
C -8.596600 -20.211000 -17.248600
C -8.170100 -21.450000 -16.502700
H -7.904600 -22.126200 -17.146500
H -7.835600 -19.865400 -17.741400
C -7.040600 -21.222400 -15.548400
O -6.694100 -22.291100 -14.900800
O -6.505900 -20.137800 -15.397000
H -6.085800 -22.184500 -14.320700
H -5.774900 -19.476500 -19.430600
O -5.354800 -21.523200 -18.354300
O -5.166600 -19.369900 -18.850500
C -4.820100 -20.438600 -18.202900
H -4.025000 -21.795600 -16.009900
H -3.956000 -19.534800 -16.604800
C -3.690600 -20.211000 -17.248600
C -3.264100 -21.450000 -16.502700
H -2.998600 -22.126200 -17.146500
H -2.929600 -19.865400 -17.741400
C -2.134600 -21.222400 -15.548400
O -1.788100 -22.291100 -14.900800
O -1.599900 -20.137800 -15.397000
H -1.179800 -22.184500 -14.320700
