25
Fragment
H -16.205400 -13.003700 -17.833100
O -15.809900 -12.478600 -18.456600
N -14.964300 -13.394500 -19.089800
H -14.927400 -15.580100 -21.596000
H -14.913000 -17.833000 -21.207000
C -14.269500 -17.294500 -20.806000
C -14.269000 -15.948800 -21.052600
C -14.252000 -12.853300 -19.982600
H -14.252000 -11.943800 -20.190900
H -13.374400 -18.764800 -19.799500
C -13.350500 -17.854100 -19.987400
C -13.307600 -13.663000 -20.722300
C -13.304500 -15.135000 -20.504400
N -12.510300 -13.005600 -21.481100
C -12.384700 -17.054100 -19.441600
C -12.350500 -15.699400 -19.707300
H -11.741200 -17.428600 -18.883900
H -11.677700 -15.171700 -19.343500
N -11.599300 -13.701100 -22.206400
H -11.568500 -14.520100 -22.297300
H -11.245300 -11.289700 -22.405000
C -10.647300 -13.045800 -22.940000
N -10.617700 -11.731200 -22.823900
H -9.950600 -11.188800 -23.242800
O -9.876700 -13.697600 -23.636600
25
Fragment
H -10.646100 -13.003700 -17.833100
O -10.250600 -12.478600 -18.456600
N -9.405000 -13.394500 -19.089800
H -9.368100 -15.580100 -21.596000
H -9.353700 -17.833000 -21.207000
C -8.710200 -17.294500 -20.806000
C -8.709700 -15.948800 -21.052600
C -8.692700 -12.853300 -19.982600
H -8.692700 -11.943800 -20.190900
H -7.815100 -18.764800 -19.799500
C -7.791200 -17.854100 -19.987400
C -7.748300 -13.663000 -20.722300
C -7.745200 -15.135000 -20.504400
N -6.951000 -13.005600 -21.481100
C -6.825400 -17.054100 -19.441600
C -6.791200 -15.699400 -19.707300
H -6.181900 -17.428600 -18.883900
H -6.118400 -15.171700 -19.343500
N -6.040000 -13.701100 -22.206400
H -6.009200 -14.520100 -22.297300
H -5.686000 -11.289700 -22.405000
C -5.088000 -13.045800 -22.940000
N -5.058400 -11.731200 -22.823900
H -4.391300 -11.188800 -23.242800
O -4.317400 -13.697600 -23.636600
50
Fragment
H -16.205400 -13.003700 -17.833100
O -15.809900 -12.478600 -18.456600
N -14.964300 -13.394500 -19.089800
H -14.927400 -15.580100 -21.596000
H -14.913000 -17.833000 -21.207000
C -14.269500 -17.294500 -20.806000
C -14.269000 -15.948800 -21.052600
C -14.252000 -12.853300 -19.982600
H -14.252000 -11.943800 -20.190900
H -13.374400 -18.764800 -19.799500
C -13.350500 -17.854100 -19.987400
C -13.307600 -13.663000 -20.722300
C -13.304500 -15.135000 -20.504400
N -12.510300 -13.005600 -21.481100
C -12.384700 -17.054100 -19.441600
C -12.350500 -15.699400 -19.707300
H -11.741200 -17.428600 -18.883900
H -11.677700 -15.171700 -19.343500
N -11.599300 -13.701100 -22.206400
H -11.568500 -14.520100 -22.297300
H -11.245300 -11.289700 -22.405000
C -10.647300 -13.045800 -22.940000
N -10.617700 -11.731200 -22.823900
H -9.950600 -11.188800 -23.242800
O -9.876700 -13.697600 -23.636600
H -10.646100 -13.003700 -17.833100
O -10.250600 -12.478600 -18.456600
N -9.405000 -13.394500 -19.089800
H -9.368100 -15.580100 -21.596000
H -9.353700 -17.833000 -21.207000
C -8.710200 -17.294500 -20.806000
C -8.709700 -15.948800 -21.052600
C -8.692700 -12.853300 -19.982600
H -8.692700 -11.943800 -20.190900
H -7.815100 -18.764800 -19.799500
C -7.791200 -17.854100 -19.987400
C -7.748300 -13.663000 -20.722300
C -7.745200 -15.135000 -20.504400
N -6.951000 -13.005600 -21.481100
C -6.825400 -17.054100 -19.441600
C -6.791200 -15.699400 -19.707300
H -6.181900 -17.428600 -18.883900
H -6.118400 -15.171700 -19.343500
N -6.040000 -13.701100 -22.206400
H -6.009200 -14.520100 -22.297300
H -5.686000 -11.289700 -22.405000
C -5.088000 -13.045800 -22.940000
N -5.058400 -11.731200 -22.823900
H -4.391300 -11.188800 -23.242800
O -4.317400 -13.697600 -23.636600
