25
Fragment
H -16.205400 -13.003700 -17.833100
O -15.809900 -12.478600 -18.456600
N -14.964300 -13.394500 -19.089800
H -14.927400 -15.580100 -21.596000
H -14.913000 -17.833000 -21.207000
C -14.269500 -17.294500 -20.806000
C -14.269000 -15.948800 -21.052600
C -14.252000 -12.853300 -19.982600
H -14.252000 -11.943800 -20.190900
H -13.374400 -18.764800 -19.799500
C -13.350500 -17.854100 -19.987400
C -13.307600 -13.663000 -20.722300
C -13.304500 -15.135000 -20.504400
N -12.510300 -13.005600 -21.481100
C -12.384700 -17.054100 -19.441600
C -12.350500 -15.699400 -19.707300
H -11.741200 -17.428600 -18.883900
H -11.677700 -15.171700 -19.343500
N -11.599300 -13.701100 -22.206400
H -11.568500 -14.520100 -22.297300
H -11.245300 -11.289700 -22.405000
C -10.647300 -13.045800 -22.940000
N -10.617700 -11.731200 -22.823900
H -9.950600 -11.188800 -23.242800
O -9.876700 -13.697600 -23.636600
25
Fragment
H -17.848800 -21.108900 -17.833100
O -17.453300 -20.583800 -18.456600
N -16.607700 -21.499700 -19.089800
H -16.570900 -23.685200 -21.596000
H -16.556500 -25.938200 -21.207000
C -15.912900 -25.399700 -20.806000
C -15.912500 -24.054000 -21.052600
C -15.895400 -20.958400 -19.982600
H -15.895400 -20.048900 -20.190900
H -15.017800 -26.869900 -19.799500
C -14.993900 -25.959300 -19.987400
C -14.951000 -21.768100 -20.722300
C -14.947900 -23.240200 -20.504400
N -14.153700 -21.110700 -21.481100
C -14.028100 -25.159300 -19.441600
C -13.993900 -23.804600 -19.707300
H -13.384600 -25.533700 -18.883900
H -13.321200 -23.276900 -19.343500
N -13.242700 -21.806200 -22.206400
H -13.211900 -22.625300 -22.297300
H -12.888700 -19.394900 -22.405000
C -12.290700 -21.151000 -22.940000
N -12.261100 -19.836400 -22.823900
H -11.594000 -19.294000 -23.242800
O -11.520100 -21.802800 -23.636600
50
Fragment
H -16.205400 -13.003700 -17.833100
O -15.809900 -12.478600 -18.456600
N -14.964300 -13.394500 -19.089800
H -14.927400 -15.580100 -21.596000
H -14.913000 -17.833000 -21.207000
C -14.269500 -17.294500 -20.806000
C -14.269000 -15.948800 -21.052600
C -14.252000 -12.853300 -19.982600
H -14.252000 -11.943800 -20.190900
H -13.374400 -18.764800 -19.799500
C -13.350500 -17.854100 -19.987400
C -13.307600 -13.663000 -20.722300
C -13.304500 -15.135000 -20.504400
N -12.510300 -13.005600 -21.481100
C -12.384700 -17.054100 -19.441600
C -12.350500 -15.699400 -19.707300
H -11.741200 -17.428600 -18.883900
H -11.677700 -15.171700 -19.343500
N -11.599300 -13.701100 -22.206400
H -11.568500 -14.520100 -22.297300
H -11.245300 -11.289700 -22.405000
C -10.647300 -13.045800 -22.940000
N -10.617700 -11.731200 -22.823900
H -9.950600 -11.188800 -23.242800
O -9.876700 -13.697600 -23.636600
H -17.848800 -21.108900 -17.833100
O -17.453300 -20.583800 -18.456600
N -16.607700 -21.499700 -19.089800
H -16.570900 -23.685200 -21.596000
H -16.556500 -25.938200 -21.207000
C -15.912900 -25.399700 -20.806000
C -15.912500 -24.054000 -21.052600
C -15.895400 -20.958400 -19.982600
H -15.895400 -20.048900 -20.190900
H -15.017800 -26.869900 -19.799500
C -14.993900 -25.959300 -19.987400
C -14.951000 -21.768100 -20.722300
C -14.947900 -23.240200 -20.504400
N -14.153700 -21.110700 -21.481100
C -14.028100 -25.159300 -19.441600
C -13.993900 -23.804600 -19.707300
H -13.384600 -25.533700 -18.883900
H -13.321200 -23.276900 -19.343500
N -13.242700 -21.806200 -22.206400
H -13.211900 -22.625300 -22.297300
H -12.888700 -19.394900 -22.405000
C -12.290700 -21.151000 -22.940000
N -12.261100 -19.836400 -22.823900
H -11.594000 -19.294000 -23.242800
O -11.520100 -21.802800 -23.636600
