25
Fragment
H -16.205400 -13.003700 -17.833100
O -15.809900 -12.478600 -18.456600
N -14.964300 -13.394500 -19.089800
H -14.927400 -15.580100 -21.596000
H -14.913000 -17.833000 -21.207000
C -14.269500 -17.294500 -20.806000
C -14.269000 -15.948800 -21.052600
C -14.252000 -12.853300 -19.982600
H -14.252000 -11.943800 -20.190900
H -13.374400 -18.764800 -19.799500
C -13.350500 -17.854100 -19.987400
C -13.307600 -13.663000 -20.722300
C -13.304500 -15.135000 -20.504400
N -12.510300 -13.005600 -21.481100
C -12.384700 -17.054100 -19.441600
C -12.350500 -15.699400 -19.707300
H -11.741200 -17.428600 -18.883900
H -11.677700 -15.171700 -19.343500
N -11.599300 -13.701100 -22.206400
H -11.568500 -14.520100 -22.297300
H -11.245300 -11.289700 -22.405000
C -10.647300 -13.045800 -22.940000
N -10.617700 -11.731200 -22.823900
H -9.950600 -11.188800 -23.242800
O -9.876700 -13.697600 -23.636600
25
Fragment
O -15.648600 -14.513300 -12.268900
H -15.574700 -17.022200 -12.662700
N -14.907700 -16.479700 -13.081600
C -14.878100 -15.165200 -12.965500
H -14.280000 -16.921200 -13.500500
H -13.956900 -13.690900 -13.608200
N -13.926100 -14.509900 -13.699100
H -13.847600 -13.039300 -16.562000
H -13.784200 -10.782400 -17.021600
C -13.174900 -12.511600 -16.198200
C -13.140700 -11.156900 -16.463900
N -13.015100 -15.205400 -14.424400
C -12.220900 -13.075900 -15.401100
C -12.217800 -14.548000 -15.183200
C -12.174900 -10.356800 -15.918100
H -12.151000 -9.446200 -16.106000
H -11.273400 -16.267200 -15.714600
C -11.273400 -15.357700 -15.922900
C -11.256300 -12.262200 -14.852900
C -11.255800 -10.916400 -15.099500
H -10.612300 -10.378000 -14.698500
H -10.597900 -12.630900 -14.309500
N -10.561100 -14.816400 -16.815700
O -9.715500 -15.732400 -17.448900
H -9.320000 -15.207300 -18.072400
50
Fragment
H -16.205400 -13.003700 -17.833100
O -15.809900 -12.478600 -18.456600
N -14.964300 -13.394500 -19.089800
H -14.927400 -15.580100 -21.596000
H -14.913000 -17.833000 -21.207000
C -14.269500 -17.294500 -20.806000
C -14.269000 -15.948800 -21.052600
C -14.252000 -12.853300 -19.982600
H -14.252000 -11.943800 -20.190900
H -13.374400 -18.764800 -19.799500
C -13.350500 -17.854100 -19.987400
C -13.307600 -13.663000 -20.722300
C -13.304500 -15.135000 -20.504400
N -12.510300 -13.005600 -21.481100
C -12.384700 -17.054100 -19.441600
C -12.350500 -15.699400 -19.707300
H -11.741200 -17.428600 -18.883900
H -11.677700 -15.171700 -19.343500
N -11.599300 -13.701100 -22.206400
H -11.568500 -14.520100 -22.297300
H -11.245300 -11.289700 -22.405000
C -10.647300 -13.045800 -22.940000
N -10.617700 -11.731200 -22.823900
H -9.950600 -11.188800 -23.242800
O -9.876700 -13.697600 -23.636600
O -15.648600 -14.513300 -12.268900
H -15.574700 -17.022200 -12.662700
N -14.907700 -16.479700 -13.081600
C -14.878100 -15.165200 -12.965500
H -14.280000 -16.921200 -13.500500
H -13.956900 -13.690900 -13.608200
N -13.926100 -14.509900 -13.699100
H -13.847600 -13.039300 -16.562000
H -13.784200 -10.782400 -17.021600
C -13.174900 -12.511600 -16.198200
C -13.140700 -11.156900 -16.463900
N -13.015100 -15.205400 -14.424400
C -12.220900 -13.075900 -15.401100
C -12.217800 -14.548000 -15.183200
C -12.174900 -10.356800 -15.918100
H -12.151000 -9.446200 -16.106000
H -11.273400 -16.267200 -15.714600
C -11.273400 -15.357700 -15.922900
C -11.256300 -12.262200 -14.852900
C -11.255800 -10.916400 -15.099500
H -10.612300 -10.378000 -14.698500
H -10.597900 -12.630900 -14.309500
N -10.561100 -14.816400 -16.815700
O -9.715500 -15.732400 -17.448900
H -9.320000 -15.207300 -18.072400
