36
Fragment
H -9.151300 -6.930200 -11.953600
H -9.080700 -6.127600 -9.831900
C -8.865100 -7.485000 -11.264300
C -8.819400 -7.005700 -9.993100
H -8.754400 -8.798100 -13.579900
H -8.551600 -6.456000 -7.383800
C -8.495100 -9.345500 -12.873900
C -8.481300 -8.821100 -11.553600
C -8.383500 -7.807600 -8.902200
C -8.308700 -7.334700 -7.568500
H -8.168900 -10.959000 -13.998800
C -8.134300 -10.638600 -13.126400
C -8.053500 -9.652800 -10.499200
C -7.996200 -9.145500 -9.166200
C -7.890000 -8.135900 -6.552900
H -7.859700 -7.794900 -5.688600
C -7.708600 -11.502000 -12.086600
C -7.654900 -11.001300 -10.764400
C -7.551800 -9.979800 -8.103200
C -7.498100 -9.479000 -6.781000
H -7.347000 -13.186200 -13.179000
C -7.316700 -12.845100 -12.314700
C -7.210500 -11.835500 -9.701300
C -7.153200 -11.328200 -8.368300
C -7.072400 -10.342400 -5.741200
H -7.037900 -10.022000 -4.868800
C -6.898000 -13.646300 -11.299000
C -6.823200 -13.173500 -9.965400
C -6.725400 -12.160000 -7.314000
C -6.711600 -11.635600 -5.993700
H -6.655200 -14.525100 -11.483800
H -6.452300 -12.182900 -5.287600
C -6.387300 -13.975300 -8.874500
C -6.341600 -13.496100 -7.603300
H -6.126100 -14.853500 -9.035700
H -6.055500 -14.050800 -6.914000
28
Fragment
H -13.287300 1.930500 -10.942300
H -12.890200 2.136500 -12.444100
C -12.577700 1.848600 -11.583300
N -12.182200 -1.261300 -14.239500
O -12.155400 0.469600 -11.661500
H -12.000800 1.309400 -9.217800
N -11.988800 2.801700 -6.720700
H -11.836800 2.395600 -11.312100
C -11.834400 -1.585500 -13.190700
C -11.766400 -0.140000 -10.534500
C -11.734100 0.423900 -9.311600
C -11.675800 1.700300 -6.805400
C -11.392700 -2.152200 -11.945600
C -11.360000 -1.532800 -10.715200
C -11.303800 -0.294600 -8.152400
C -11.271200 0.324800 -6.921900
C -10.988100 -3.527800 -12.062100
C -10.929700 -2.251300 -9.556000
C -10.897400 -1.687500 -8.333100
C -10.829500 -0.242000 -5.676900
H -10.827100 -4.223000 -7.555500
N -10.675100 -4.629200 -12.146900
H -10.663100 -3.136800 -9.649800
O -10.508500 -2.297100 -7.206100
N -10.481700 -0.566200 -4.628000
C -10.086100 -3.676000 -7.284300
H -9.773700 -3.964000 -6.423500
H -9.376600 -3.758000 -7.925300
64
Fragment
H -9.151300 -6.930200 -11.953600
H -9.080700 -6.127600 -9.831900
C -8.865100 -7.485000 -11.264300
C -8.819400 -7.005700 -9.993100
H -8.754400 -8.798100 -13.579900
H -8.551600 -6.456000 -7.383800
C -8.495100 -9.345500 -12.873900
C -8.481300 -8.821100 -11.553600
C -8.383500 -7.807600 -8.902200
C -8.308700 -7.334700 -7.568500
H -8.168900 -10.959000 -13.998800
C -8.134300 -10.638600 -13.126400
C -8.053500 -9.652800 -10.499200
C -7.996200 -9.145500 -9.166200
C -7.890000 -8.135900 -6.552900
H -7.859700 -7.794900 -5.688600
C -7.708600 -11.502000 -12.086600
C -7.654900 -11.001300 -10.764400
C -7.551800 -9.979800 -8.103200
C -7.498100 -9.479000 -6.781000
H -7.347000 -13.186200 -13.179000
C -7.316700 -12.845100 -12.314700
C -7.210500 -11.835500 -9.701300
C -7.153200 -11.328200 -8.368300
C -7.072400 -10.342400 -5.741200
H -7.037900 -10.022000 -4.868800
C -6.898000 -13.646300 -11.299000
C -6.823200 -13.173500 -9.965400
C -6.725400 -12.160000 -7.314000
C -6.711600 -11.635600 -5.993700
H -6.655200 -14.525100 -11.483800
H -6.452300 -12.182900 -5.287600
C -6.387300 -13.975300 -8.874500
C -6.341600 -13.496100 -7.603300
H -6.126100 -14.853500 -9.035700
H -6.055500 -14.050800 -6.914000
H -13.287300 1.930500 -10.942300
H -12.890200 2.136500 -12.444100
C -12.577700 1.848600 -11.583300
N -12.182200 -1.261300 -14.239500
O -12.155400 0.469600 -11.661500
H -12.000800 1.309400 -9.217800
N -11.988800 2.801700 -6.720700
H -11.836800 2.395600 -11.312100
C -11.834400 -1.585500 -13.190700
C -11.766400 -0.140000 -10.534500
C -11.734100 0.423900 -9.311600
C -11.675800 1.700300 -6.805400
C -11.392700 -2.152200 -11.945600
C -11.360000 -1.532800 -10.715200
C -11.303800 -0.294600 -8.152400
C -11.271200 0.324800 -6.921900
C -10.988100 -3.527800 -12.062100
C -10.929700 -2.251300 -9.556000
C -10.897400 -1.687500 -8.333100
C -10.829500 -0.242000 -5.676900
H -10.827100 -4.223000 -7.555500
N -10.675100 -4.629200 -12.146900
H -10.663100 -3.136800 -9.649800
O -10.508500 -2.297100 -7.206100
N -10.481700 -0.566200 -4.628000
C -10.086100 -3.676000 -7.284300
H -9.773700 -3.964000 -6.423500
H -9.376600 -3.758000 -7.925300
