36
Fragment
H -10.744700 -5.186000 -28.535100
H -10.744600 -6.010700 -30.670800
C -10.495000 -6.564800 -29.966100
C -10.487500 -6.067400 -28.684500
H -10.392300 -7.900500 -32.250600
H -10.313900 -5.506500 -26.088700
C -10.133100 -8.439500 -31.539700
C -10.129700 -7.902200 -30.232600
C -10.095300 -6.876000 -27.585000
C -10.070000 -6.388000 -26.258300
H -9.769600 -10.062900 -32.656800
C -9.761700 -9.739400 -31.784300
C -9.736600 -8.736400 -29.155200
C -9.712400 -8.218300 -27.831300
C -9.690100 -7.198000 -25.213800
H -9.689700 -6.856600 -24.348000
C -9.366200 -10.596400 -30.722700
C -9.355800 -10.082500 -29.403400
C -9.310400 -9.053900 -26.749600
C -9.300100 -8.540000 -25.430400
H -8.976500 -12.279800 -31.805100
C -8.976100 -11.938400 -30.939200
C -8.953800 -10.918100 -28.321700
C -8.929700 -10.400000 -26.997800
C -8.904600 -9.397000 -24.368700
H -8.896600 -9.073500 -23.496300
C -8.596200 -12.748400 -29.894800
C -8.570900 -12.260400 -28.568100
C -8.536500 -11.234200 -25.920400
C -8.533100 -10.696900 -24.613400
H -8.352300 -13.629900 -30.064400
H -8.273900 -11.235900 -23.902500
C -8.178700 -13.069000 -27.468600
C -8.171200 -12.571600 -26.187000
H -7.921600 -13.125700 -25.482300
H -7.921500 -13.950400 -27.617900
36
Fragment
H -13.855700 -9.166300 -37.894000
H -13.855600 -8.341600 -40.029600
C -13.606000 -7.787500 -39.324900
C -13.598600 -8.284900 -38.043300
H -13.503300 -6.451800 -41.609400
H -13.424900 -8.845800 -35.447600
C -13.244100 -5.912800 -40.898500
C -13.240700 -6.450100 -39.591500
C -13.206300 -7.476300 -36.943800
C -13.181000 -7.964300 -35.617100
H -12.880600 -4.289400 -42.015600
C -12.872700 -4.612900 -41.143200
C -12.847600 -5.615900 -38.514100
C -12.823500 -6.134000 -37.190200
C -12.801100 -7.154300 -34.572700
H -12.800700 -7.495700 -33.706800
C -12.477200 -3.755900 -40.081500
C -12.466800 -4.269800 -38.762300
C -12.421500 -5.298400 -36.108500
C -12.411100 -5.812300 -34.789300
H -12.087600 -2.072500 -41.163900
C -12.087200 -2.413900 -40.298100
C -12.064800 -3.434200 -37.680600
C -12.040700 -3.952300 -36.356700
C -12.015600 -4.955300 -33.727600
H -12.007700 -5.278800 -32.855200
C -11.707200 -1.603900 -39.253600
C -11.682000 -2.091900 -37.926900
C -11.647600 -3.118100 -35.279300
C -11.644200 -3.655400 -33.972200
H -11.463300 -0.722400 -39.423200
H -11.384900 -3.116400 -33.261300
C -11.289700 -1.283300 -36.827400
C -11.282200 -1.780700 -35.545800
H -11.032700 -1.226600 -34.841100
H -11.032600 -0.401900 -36.976800
72
Fragment
H -10.744700 -5.186000 -28.535100
H -10.744600 -6.010700 -30.670800
C -10.495000 -6.564800 -29.966100
C -10.487500 -6.067400 -28.684500
H -10.392300 -7.900500 -32.250600
H -10.313900 -5.506500 -26.088700
C -10.133100 -8.439500 -31.539700
C -10.129700 -7.902200 -30.232600
C -10.095300 -6.876000 -27.585000
C -10.070000 -6.388000 -26.258300
H -9.769600 -10.062900 -32.656800
C -9.761700 -9.739400 -31.784300
C -9.736600 -8.736400 -29.155200
C -9.712400 -8.218300 -27.831300
C -9.690100 -7.198000 -25.213800
H -9.689700 -6.856600 -24.348000
C -9.366200 -10.596400 -30.722700
C -9.355800 -10.082500 -29.403400
C -9.310400 -9.053900 -26.749600
C -9.300100 -8.540000 -25.430400
H -8.976500 -12.279800 -31.805100
C -8.976100 -11.938400 -30.939200
C -8.953800 -10.918100 -28.321700
C -8.929700 -10.400000 -26.997800
C -8.904600 -9.397000 -24.368700
H -8.896600 -9.073500 -23.496300
C -8.596200 -12.748400 -29.894800
C -8.570900 -12.260400 -28.568100
C -8.536500 -11.234200 -25.920400
C -8.533100 -10.696900 -24.613400
H -8.352300 -13.629900 -30.064400
H -8.273900 -11.235900 -23.902500
C -8.178700 -13.069000 -27.468600
C -8.171200 -12.571600 -26.187000
H -7.921600 -13.125700 -25.482300
H -7.921500 -13.950400 -27.617900
H -13.855700 -9.166300 -37.894000
H -13.855600 -8.341600 -40.029600
C -13.606000 -7.787500 -39.324900
C -13.598600 -8.284900 -38.043300
H -13.503300 -6.451800 -41.609400
H -13.424900 -8.845800 -35.447600
C -13.244100 -5.912800 -40.898500
C -13.240700 -6.450100 -39.591500
C -13.206300 -7.476300 -36.943800
C -13.181000 -7.964300 -35.617100
H -12.880600 -4.289400 -42.015600
C -12.872700 -4.612900 -41.143200
C -12.847600 -5.615900 -38.514100
C -12.823500 -6.134000 -37.190200
C -12.801100 -7.154300 -34.572700
H -12.800700 -7.495700 -33.706800
C -12.477200 -3.755900 -40.081500
C -12.466800 -4.269800 -38.762300
C -12.421500 -5.298400 -36.108500
C -12.411100 -5.812300 -34.789300
H -12.087600 -2.072500 -41.163900
C -12.087200 -2.413900 -40.298100
C -12.064800 -3.434200 -37.680600
C -12.040700 -3.952300 -36.356700
C -12.015600 -4.955300 -33.727600
H -12.007700 -5.278800 -32.855200
C -11.707200 -1.603900 -39.253600
C -11.682000 -2.091900 -37.926900
C -11.647600 -3.118100 -35.279300
C -11.644200 -3.655400 -33.972200
H -11.463300 -0.722400 -39.423200
H -11.384900 -3.116400 -33.261300
C -11.289700 -1.283300 -36.827400
C -11.282200 -1.780700 -35.545800
H -11.032700 -1.226600 -34.841100
H -11.032600 -0.401900 -36.976800
