36
Fragment
H -9.151300 -6.930200 -11.953600
H -9.080700 -6.127600 -9.831900
C -8.865100 -7.485000 -11.264300
C -8.819400 -7.005700 -9.993100
H -8.754400 -8.798100 -13.579900
H -8.551600 -6.456000 -7.383800
C -8.495100 -9.345500 -12.873900
C -8.481300 -8.821100 -11.553600
C -8.383500 -7.807600 -8.902200
C -8.308700 -7.334700 -7.568500
H -8.168900 -10.959000 -13.998800
C -8.134300 -10.638600 -13.126400
C -8.053500 -9.652800 -10.499200
C -7.996200 -9.145500 -9.166200
C -7.890000 -8.135900 -6.552900
H -7.859700 -7.794900 -5.688600
C -7.708600 -11.502000 -12.086600
C -7.654900 -11.001300 -10.764400
C -7.551800 -9.979800 -8.103200
C -7.498100 -9.479000 -6.781000
H -7.347000 -13.186200 -13.179000
C -7.316700 -12.845100 -12.314700
C -7.210500 -11.835500 -9.701300
C -7.153200 -11.328200 -8.368300
C -7.072400 -10.342400 -5.741200
H -7.037900 -10.022000 -4.868800
C -6.898000 -13.646300 -11.299000
C -6.823200 -13.173500 -9.965400
C -6.725400 -12.160000 -7.314000
C -6.711600 -11.635600 -5.993700
H -6.655200 -14.525100 -11.483800
H -6.452300 -12.182900 -5.287600
C -6.387300 -13.975300 -8.874500
C -6.341600 -13.496100 -7.603300
H -6.126100 -14.853500 -9.035700
H -6.055500 -14.050800 -6.914000
36
Fragment
H -8.999100 -16.507000 -11.953600
H -8.928500 -15.704400 -9.831900
C -8.713000 -17.061800 -11.264300
C -8.667300 -16.582500 -9.993100
H -8.602300 -18.374900 -13.579900
H -8.399500 -16.032800 -7.383800
C -8.343000 -18.922200 -12.873900
C -8.329200 -18.397900 -11.553600
C -8.231400 -17.384400 -8.902200
C -8.156600 -16.911500 -7.568500
H -8.016700 -20.535800 -13.998800
C -7.982200 -20.215400 -13.126400
C -7.901400 -19.229600 -10.499200
C -7.844100 -18.722300 -9.166200
C -7.737900 -17.712700 -6.552900
H -7.707600 -17.371700 -5.688600
C -7.556500 -21.078800 -12.086600
C -7.502800 -20.578100 -10.764400
C -7.399700 -19.556600 -8.103200
C -7.346000 -19.055800 -6.781000
H -7.194900 -22.763000 -13.179000
C -7.164600 -22.421900 -12.314700
C -7.058400 -21.412300 -9.701300
C -7.001100 -20.905000 -8.368300
C -6.920300 -19.919200 -5.741200
H -6.885800 -19.598800 -4.868800
C -6.745900 -23.223100 -11.299000
C -6.671100 -22.750300 -9.965400
C -6.573300 -21.736800 -7.314000
C -6.559500 -21.212400 -5.993700
H -6.503000 -24.101900 -11.483800
H -6.300200 -21.759700 -5.287600
C -6.235200 -23.552100 -8.874500
C -6.189500 -23.072900 -7.603300
H -5.974000 -24.430300 -9.035700
H -5.903400 -23.627600 -6.914000
72
Fragment
H -9.151300 -6.930200 -11.953600
H -9.080700 -6.127600 -9.831900
C -8.865100 -7.485000 -11.264300
C -8.819400 -7.005700 -9.993100
H -8.754400 -8.798100 -13.579900
H -8.551600 -6.456000 -7.383800
C -8.495100 -9.345500 -12.873900
C -8.481300 -8.821100 -11.553600
C -8.383500 -7.807600 -8.902200
C -8.308700 -7.334700 -7.568500
H -8.168900 -10.959000 -13.998800
C -8.134300 -10.638600 -13.126400
C -8.053500 -9.652800 -10.499200
C -7.996200 -9.145500 -9.166200
C -7.890000 -8.135900 -6.552900
H -7.859700 -7.794900 -5.688600
C -7.708600 -11.502000 -12.086600
C -7.654900 -11.001300 -10.764400
C -7.551800 -9.979800 -8.103200
C -7.498100 -9.479000 -6.781000
H -7.347000 -13.186200 -13.179000
C -7.316700 -12.845100 -12.314700
C -7.210500 -11.835500 -9.701300
C -7.153200 -11.328200 -8.368300
C -7.072400 -10.342400 -5.741200
H -7.037900 -10.022000 -4.868800
C -6.898000 -13.646300 -11.299000
C -6.823200 -13.173500 -9.965400
C -6.725400 -12.160000 -7.314000
C -6.711600 -11.635600 -5.993700
H -6.655200 -14.525100 -11.483800
H -6.452300 -12.182900 -5.287600
C -6.387300 -13.975300 -8.874500
C -6.341600 -13.496100 -7.603300
H -6.126100 -14.853500 -9.035700
H -6.055500 -14.050800 -6.914000
H -8.999100 -16.507000 -11.953600
H -8.928500 -15.704400 -9.831900
C -8.713000 -17.061800 -11.264300
C -8.667300 -16.582500 -9.993100
H -8.602300 -18.374900 -13.579900
H -8.399500 -16.032800 -7.383800
C -8.343000 -18.922200 -12.873900
C -8.329200 -18.397900 -11.553600
C -8.231400 -17.384400 -8.902200
C -8.156600 -16.911500 -7.568500
H -8.016700 -20.535800 -13.998800
C -7.982200 -20.215400 -13.126400
C -7.901400 -19.229600 -10.499200
C -7.844100 -18.722300 -9.166200
C -7.737900 -17.712700 -6.552900
H -7.707600 -17.371700 -5.688600
C -7.556500 -21.078800 -12.086600
C -7.502800 -20.578100 -10.764400
C -7.399700 -19.556600 -8.103200
C -7.346000 -19.055800 -6.781000
H -7.194900 -22.763000 -13.179000
C -7.164600 -22.421900 -12.314700
C -7.058400 -21.412300 -9.701300
C -7.001100 -20.905000 -8.368300
C -6.920300 -19.919200 -5.741200
H -6.885800 -19.598800 -4.868800
C -6.745900 -23.223100 -11.299000
C -6.671100 -22.750300 -9.965400
C -6.573300 -21.736800 -7.314000
C -6.559500 -21.212400 -5.993700
H -6.503000 -24.101900 -11.483800
H -6.300200 -21.759700 -5.287600
C -6.235200 -23.552100 -8.874500
C -6.189500 -23.072900 -7.603300
H -5.974000 -24.430300 -9.035700
H -5.903400 -23.627600 -6.914000
