36
Fragment
H -9.151300 -6.930200 -11.953600
H -9.080700 -6.127600 -9.831900
C -8.865100 -7.485000 -11.264300
C -8.819400 -7.005700 -9.993100
H -8.754400 -8.798100 -13.579900
H -8.551600 -6.456000 -7.383800
C -8.495100 -9.345500 -12.873900
C -8.481300 -8.821100 -11.553600
C -8.383500 -7.807600 -8.902200
C -8.308700 -7.334700 -7.568500
H -8.168900 -10.959000 -13.998800
C -8.134300 -10.638600 -13.126400
C -8.053500 -9.652800 -10.499200
C -7.996200 -9.145500 -9.166200
C -7.890000 -8.135900 -6.552900
H -7.859700 -7.794900 -5.688600
C -7.708600 -11.502000 -12.086600
C -7.654900 -11.001300 -10.764400
C -7.551800 -9.979800 -8.103200
C -7.498100 -9.479000 -6.781000
H -7.347000 -13.186200 -13.179000
C -7.316700 -12.845100 -12.314700
C -7.210500 -11.835500 -9.701300
C -7.153200 -11.328200 -8.368300
C -7.072400 -10.342400 -5.741200
H -7.037900 -10.022000 -4.868800
C -6.898000 -13.646300 -11.299000
C -6.823200 -13.173500 -9.965400
C -6.725400 -12.160000 -7.314000
C -6.711600 -11.635600 -5.993700
H -6.655200 -14.525100 -11.483800
H -6.452300 -12.182900 -5.287600
C -6.387300 -13.975300 -8.874500
C -6.341600 -13.496100 -7.603300
H -6.126100 -14.853500 -9.035700
H -6.055500 -14.050800 -6.914000
28
Fragment
H -5.830100 -17.223100 -10.942300
H -5.433100 -17.017100 -12.444100
C -5.120600 -17.305000 -11.583300
N -4.725000 -20.414900 -14.239500
O -4.698300 -18.684000 -11.661500
H -4.543700 -17.844200 -9.217800
N -4.531700 -16.351900 -6.720700
H -4.379600 -16.758000 -11.312100
C -4.377300 -20.739100 -13.190700
C -4.309300 -19.293500 -10.534500
C -4.277000 -18.729700 -9.311600
C -4.218700 -17.453300 -6.805400
C -3.935500 -21.305800 -11.945600
C -3.902900 -20.686400 -10.715200
C -3.846700 -19.448200 -8.152400
C -3.814100 -18.828800 -6.921900
C -3.530900 -22.681400 -12.062100
C -3.472600 -21.404900 -9.556000
C -3.440300 -20.841100 -8.333100
C -3.372300 -19.395500 -5.676900
H -3.370000 -23.376600 -7.555500
N -3.217900 -23.782800 -12.146900
H -3.205900 -22.290400 -9.649800
O -3.051300 -21.450700 -7.206100
N -3.024600 -19.719700 -4.628000
C -2.629000 -22.829600 -7.284300
H -2.316500 -23.117600 -6.423500
H -1.919500 -22.911600 -7.925300
64
Fragment
H -9.151300 -6.930200 -11.953600
H -9.080700 -6.127600 -9.831900
C -8.865100 -7.485000 -11.264300
C -8.819400 -7.005700 -9.993100
H -8.754400 -8.798100 -13.579900
H -8.551600 -6.456000 -7.383800
C -8.495100 -9.345500 -12.873900
C -8.481300 -8.821100 -11.553600
C -8.383500 -7.807600 -8.902200
C -8.308700 -7.334700 -7.568500
H -8.168900 -10.959000 -13.998800
C -8.134300 -10.638600 -13.126400
C -8.053500 -9.652800 -10.499200
C -7.996200 -9.145500 -9.166200
C -7.890000 -8.135900 -6.552900
H -7.859700 -7.794900 -5.688600
C -7.708600 -11.502000 -12.086600
C -7.654900 -11.001300 -10.764400
C -7.551800 -9.979800 -8.103200
C -7.498100 -9.479000 -6.781000
H -7.347000 -13.186200 -13.179000
C -7.316700 -12.845100 -12.314700
C -7.210500 -11.835500 -9.701300
C -7.153200 -11.328200 -8.368300
C -7.072400 -10.342400 -5.741200
H -7.037900 -10.022000 -4.868800
C -6.898000 -13.646300 -11.299000
C -6.823200 -13.173500 -9.965400
C -6.725400 -12.160000 -7.314000
C -6.711600 -11.635600 -5.993700
H -6.655200 -14.525100 -11.483800
H -6.452300 -12.182900 -5.287600
C -6.387300 -13.975300 -8.874500
C -6.341600 -13.496100 -7.603300
H -6.126100 -14.853500 -9.035700
H -6.055500 -14.050800 -6.914000
H -5.830100 -17.223100 -10.942300
H -5.433100 -17.017100 -12.444100
C -5.120600 -17.305000 -11.583300
N -4.725000 -20.414900 -14.239500
O -4.698300 -18.684000 -11.661500
H -4.543700 -17.844200 -9.217800
N -4.531700 -16.351900 -6.720700
H -4.379600 -16.758000 -11.312100
C -4.377300 -20.739100 -13.190700
C -4.309300 -19.293500 -10.534500
C -4.277000 -18.729700 -9.311600
C -4.218700 -17.453300 -6.805400
C -3.935500 -21.305800 -11.945600
C -3.902900 -20.686400 -10.715200
C -3.846700 -19.448200 -8.152400
C -3.814100 -18.828800 -6.921900
C -3.530900 -22.681400 -12.062100
C -3.472600 -21.404900 -9.556000
C -3.440300 -20.841100 -8.333100
C -3.372300 -19.395500 -5.676900
H -3.370000 -23.376600 -7.555500
N -3.217900 -23.782800 -12.146900
H -3.205900 -22.290400 -9.649800
O -3.051300 -21.450700 -7.206100
N -3.024600 -19.719700 -4.628000
C -2.629000 -22.829600 -7.284300
H -2.316500 -23.117600 -6.423500
H -1.919500 -22.911600 -7.925300
