35
Fragment
O -51.113200 -10.535200 -20.645400
H -50.584100 -11.258400 -18.465400
H -50.198800 -13.076700 -19.740600
N -49.976100 -10.098300 -20.664900
C -49.637700 -11.388200 -18.650000
O -49.482800 -9.424500 -21.568600
C -49.398500 -12.757700 -19.272400
N -49.189700 -10.309400 -19.529800
H -49.160600 -13.417700 -18.628300
H -49.150800 -11.277600 -17.824500
O -48.927400 -14.598900 -21.034200
H -48.527100 -7.341900 -18.467500
N -48.323900 -12.622400 -20.242400
N -48.190000 -13.631600 -21.160200
H -47.771700 -7.798100 -19.768800
C -47.742900 -10.305800 -19.752500
C -47.666400 -7.524800 -18.855300
H -47.542400 -9.769100 -20.504200
O -47.386700 -13.468000 -22.068300
C -47.200700 -11.731000 -20.008900
H -47.130600 -6.729400 -18.823800
N -47.053200 -9.878800 -18.565300
C -46.988300 -8.606300 -18.081900
H -46.846100 -11.230000 -16.996800
H -46.640300 -11.768500 -20.757200
N -46.422400 -12.039100 -18.822700
C -46.390200 -10.958500 -17.852800
O -46.378200 -8.399700 -17.034800
O -45.668300 -13.960700 -19.680800
C -45.624300 -13.137100 -18.782500
H -45.442600 -10.727200 -17.652900
H -45.208200 -13.168100 -16.790400
C -44.704100 -13.265000 -17.601800
H -44.281500 -14.128000 -17.614900
H -44.032300 -12.580300 -17.644200
35
Fragment
O -50.879900 -16.890800 -26.076400
H -50.350800 -16.167600 -23.896400
H -49.965500 -14.349300 -25.171600
N -49.742800 -17.327700 -26.095900
C -49.404400 -16.037800 -24.081000
O -49.249500 -18.001500 -26.999600
C -49.165200 -14.668300 -24.703400
N -48.956400 -17.116600 -24.960800
H -48.927200 -14.008300 -24.059300
H -48.917500 -16.148400 -23.255500
O -48.694000 -12.827100 -26.465200
H -48.293700 -20.084100 -23.898500
N -48.090600 -14.803600 -25.673400
N -47.956700 -13.794400 -26.591200
H -47.538400 -19.627900 -25.199800
C -47.509600 -17.120200 -25.183500
C -47.433000 -19.901200 -24.286300
H -47.309100 -17.656900 -25.935200
O -47.153300 -13.958000 -27.499300
C -46.967400 -15.695000 -25.439800
H -46.897300 -20.696600 -24.254800
N -46.819800 -17.547200 -23.996300
C -46.755000 -18.819700 -23.512900
H -46.612800 -16.196000 -22.427800
H -46.406900 -15.657500 -26.188200
N -46.189000 -15.386900 -24.253700
C -46.156900 -16.467500 -23.283700
O -46.144800 -19.026300 -22.465800
O -45.435000 -13.465300 -25.111800
C -45.391000 -14.288900 -24.213500
H -45.209300 -16.698800 -23.083900
H -44.974900 -14.257900 -22.221400
C -44.470800 -14.161000 -23.032800
H -44.048200 -13.298000 -23.045900
H -43.799000 -14.845700 -23.075200
70
Fragment
O -51.113200 -10.535200 -20.645400
H -50.584100 -11.258400 -18.465400
H -50.198800 -13.076700 -19.740600
N -49.976100 -10.098300 -20.664900
C -49.637700 -11.388200 -18.650000
O -49.482800 -9.424500 -21.568600
C -49.398500 -12.757700 -19.272400
N -49.189700 -10.309400 -19.529800
H -49.160600 -13.417700 -18.628300
H -49.150800 -11.277600 -17.824500
O -48.927400 -14.598900 -21.034200
H -48.527100 -7.341900 -18.467500
N -48.323900 -12.622400 -20.242400
N -48.190000 -13.631600 -21.160200
H -47.771700 -7.798100 -19.768800
C -47.742900 -10.305800 -19.752500
C -47.666400 -7.524800 -18.855300
H -47.542400 -9.769100 -20.504200
O -47.386700 -13.468000 -22.068300
C -47.200700 -11.731000 -20.008900
H -47.130600 -6.729400 -18.823800
N -47.053200 -9.878800 -18.565300
C -46.988300 -8.606300 -18.081900
H -46.846100 -11.230000 -16.996800
H -46.640300 -11.768500 -20.757200
N -46.422400 -12.039100 -18.822700
C -46.390200 -10.958500 -17.852800
O -46.378200 -8.399700 -17.034800
O -45.668300 -13.960700 -19.680800
C -45.624300 -13.137100 -18.782500
H -45.442600 -10.727200 -17.652900
H -45.208200 -13.168100 -16.790400
C -44.704100 -13.265000 -17.601800
H -44.281500 -14.128000 -17.614900
H -44.032300 -12.580300 -17.644200
O -50.879900 -16.890800 -26.076400
H -50.350800 -16.167600 -23.896400
H -49.965500 -14.349300 -25.171600
N -49.742800 -17.327700 -26.095900
C -49.404400 -16.037800 -24.081000
O -49.249500 -18.001500 -26.999600
C -49.165200 -14.668300 -24.703400
N -48.956400 -17.116600 -24.960800
H -48.927200 -14.008300 -24.059300
H -48.917500 -16.148400 -23.255500
O -48.694000 -12.827100 -26.465200
H -48.293700 -20.084100 -23.898500
N -48.090600 -14.803600 -25.673400
N -47.956700 -13.794400 -26.591200
H -47.538400 -19.627900 -25.199800
C -47.509600 -17.120200 -25.183500
C -47.433000 -19.901200 -24.286300
H -47.309100 -17.656900 -25.935200
O -47.153300 -13.958000 -27.499300
C -46.967400 -15.695000 -25.439800
H -46.897300 -20.696600 -24.254800
N -46.819800 -17.547200 -23.996300
C -46.755000 -18.819700 -23.512900
H -46.612800 -16.196000 -22.427800
H -46.406900 -15.657500 -26.188200
N -46.189000 -15.386900 -24.253700
C -46.156900 -16.467500 -23.283700
O -46.144800 -19.026300 -22.465800
O -45.435000 -13.465300 -25.111800
C -45.391000 -14.288900 -24.213500
H -45.209300 -16.698800 -23.083900
H -44.974900 -14.257900 -22.221400
C -44.470800 -14.161000 -23.032800
H -44.048200 -13.298000 -23.045900
H -43.799000 -14.845700 -23.075200
