35
Fragment
O -51.113200 -10.535200 -20.645400
H -50.584100 -11.258400 -18.465400
H -50.198800 -13.076700 -19.740600
N -49.976100 -10.098300 -20.664900
C -49.637700 -11.388200 -18.650000
O -49.482800 -9.424500 -21.568600
C -49.398500 -12.757700 -19.272400
N -49.189700 -10.309400 -19.529800
H -49.160600 -13.417700 -18.628300
H -49.150800 -11.277600 -17.824500
O -48.927400 -14.598900 -21.034200
H -48.527100 -7.341900 -18.467500
N -48.323900 -12.622400 -20.242400
N -48.190000 -13.631600 -21.160200
H -47.771700 -7.798100 -19.768800
C -47.742900 -10.305800 -19.752500
C -47.666400 -7.524800 -18.855300
H -47.542400 -9.769100 -20.504200
O -47.386700 -13.468000 -22.068300
C -47.200700 -11.731000 -20.008900
H -47.130600 -6.729400 -18.823800
N -47.053200 -9.878800 -18.565300
C -46.988300 -8.606300 -18.081900
H -46.846100 -11.230000 -16.996800
H -46.640300 -11.768500 -20.757200
N -46.422400 -12.039100 -18.822700
C -46.390200 -10.958500 -17.852800
O -46.378200 -8.399700 -17.034800
O -45.668300 -13.960700 -19.680800
C -45.624300 -13.137100 -18.782500
H -45.442600 -10.727200 -17.652900
H -45.208200 -13.168100 -16.790400
C -44.704100 -13.265000 -17.601800
H -44.281500 -14.128000 -17.614900
H -44.032300 -12.580300 -17.644200
35
Fragment
O -51.113200 -1.393200 -20.645400
H -50.584100 -2.116400 -18.465400
H -50.198800 -3.934700 -19.740600
N -49.976100 -0.956300 -20.664900
C -49.637700 -2.246200 -18.650000
O -49.482800 -0.282500 -21.568600
C -49.398500 -3.615700 -19.272400
N -49.189700 -1.167400 -19.529800
H -49.160600 -4.275700 -18.628300
H -49.150800 -2.135600 -17.824500
O -48.927400 -5.456900 -21.034200
H -48.527100 1.800100 -18.467500
N -48.323900 -3.480400 -20.242400
N -48.190000 -4.489600 -21.160200
H -47.771700 1.343900 -19.768800
C -47.742900 -1.163800 -19.752500
C -47.666400 1.617200 -18.855300
H -47.542400 -0.627100 -20.504200
O -47.386700 -4.326000 -22.068300
C -47.200700 -2.589000 -20.008900
H -47.130600 2.412600 -18.823800
N -47.053200 -0.736800 -18.565300
C -46.988300 0.535700 -18.081900
H -46.846100 -2.088000 -16.996800
H -46.640300 -2.626500 -20.757200
N -46.422400 -2.897100 -18.822700
C -46.390200 -1.816500 -17.852800
O -46.378200 0.742300 -17.034800
O -45.668300 -4.818700 -19.680800
C -45.624300 -3.995100 -18.782500
H -45.442600 -1.585200 -17.652900
H -45.208200 -4.026100 -16.790400
C -44.704100 -4.123000 -17.601800
H -44.281500 -4.986000 -17.614900
H -44.032300 -3.438300 -17.644200
70
Fragment
O -51.113200 -10.535200 -20.645400
H -50.584100 -11.258400 -18.465400
H -50.198800 -13.076700 -19.740600
N -49.976100 -10.098300 -20.664900
C -49.637700 -11.388200 -18.650000
O -49.482800 -9.424500 -21.568600
C -49.398500 -12.757700 -19.272400
N -49.189700 -10.309400 -19.529800
H -49.160600 -13.417700 -18.628300
H -49.150800 -11.277600 -17.824500
O -48.927400 -14.598900 -21.034200
H -48.527100 -7.341900 -18.467500
N -48.323900 -12.622400 -20.242400
N -48.190000 -13.631600 -21.160200
H -47.771700 -7.798100 -19.768800
C -47.742900 -10.305800 -19.752500
C -47.666400 -7.524800 -18.855300
H -47.542400 -9.769100 -20.504200
O -47.386700 -13.468000 -22.068300
C -47.200700 -11.731000 -20.008900
H -47.130600 -6.729400 -18.823800
N -47.053200 -9.878800 -18.565300
C -46.988300 -8.606300 -18.081900
H -46.846100 -11.230000 -16.996800
H -46.640300 -11.768500 -20.757200
N -46.422400 -12.039100 -18.822700
C -46.390200 -10.958500 -17.852800
O -46.378200 -8.399700 -17.034800
O -45.668300 -13.960700 -19.680800
C -45.624300 -13.137100 -18.782500
H -45.442600 -10.727200 -17.652900
H -45.208200 -13.168100 -16.790400
C -44.704100 -13.265000 -17.601800
H -44.281500 -14.128000 -17.614900
H -44.032300 -12.580300 -17.644200
O -51.113200 -1.393200 -20.645400
H -50.584100 -2.116400 -18.465400
H -50.198800 -3.934700 -19.740600
N -49.976100 -0.956300 -20.664900
C -49.637700 -2.246200 -18.650000
O -49.482800 -0.282500 -21.568600
C -49.398500 -3.615700 -19.272400
N -49.189700 -1.167400 -19.529800
H -49.160600 -4.275700 -18.628300
H -49.150800 -2.135600 -17.824500
O -48.927400 -5.456900 -21.034200
H -48.527100 1.800100 -18.467500
N -48.323900 -3.480400 -20.242400
N -48.190000 -4.489600 -21.160200
H -47.771700 1.343900 -19.768800
C -47.742900 -1.163800 -19.752500
C -47.666400 1.617200 -18.855300
H -47.542400 -0.627100 -20.504200
O -47.386700 -4.326000 -22.068300
C -47.200700 -2.589000 -20.008900
H -47.130600 2.412600 -18.823800
N -47.053200 -0.736800 -18.565300
C -46.988300 0.535700 -18.081900
H -46.846100 -2.088000 -16.996800
H -46.640300 -2.626500 -20.757200
N -46.422400 -2.897100 -18.822700
C -46.390200 -1.816500 -17.852800
O -46.378200 0.742300 -17.034800
O -45.668300 -4.818700 -19.680800
C -45.624300 -3.995100 -18.782500
H -45.442600 -1.585200 -17.652900
H -45.208200 -4.026100 -16.790400
C -44.704100 -4.123000 -17.601800
H -44.281500 -4.986000 -17.614900
H -44.032300 -3.438300 -17.644200
