15
Fragment
H -5.547600 -14.340700 -42.887700
H -4.969100 -12.303300 -43.857800
H -4.810000 -16.477200 -42.184500
C -4.715900 -14.246900 -43.338600
C -4.374700 -13.042300 -43.909800
O -4.117500 -16.528000 -42.871900
C -3.838900 -15.332100 -43.420700
O -3.554700 -10.667600 -44.915000
C -3.158000 -12.913800 -44.563400
N -2.792700 -11.611300 -45.101000
C -2.637600 -15.192200 -44.126200
C -2.290900 -13.984100 -44.698600
H -2.053500 -15.937400 -44.213800
O -1.729400 -11.492600 -45.692800
H -1.474400 -13.889200 -45.175300
25
Fragment
H -2.152400 -15.975600 -37.930700
H -2.109800 -14.937800 -39.144900
H -2.090400 -18.311600 -38.352700
N -2.066900 -16.864400 -39.740100
H -2.051000 -18.865700 -39.848100
C -1.724400 -15.783200 -38.803600
C -1.675200 -18.179400 -39.242700
H -1.658500 -15.736800 -41.369300
H -1.623800 -17.312000 -41.662100
C -1.375600 -16.613600 -41.005900
N -0.295900 -15.586600 -38.585100
H -0.237300 -16.308800 -36.728100
N -0.222900 -18.417400 -39.116400
H -0.077500 -18.431000 -37.112700
N 0.093000 -16.617500 -40.811000
H 0.242700 -14.659500 -40.272900
C 0.286700 -16.431300 -37.558200
H 0.316200 -18.612500 -41.047800
C 0.366500 -17.949700 -37.855500
C 0.426700 -15.532100 -39.843200
C 0.479000 -17.957500 -40.324200
H 1.203700 -16.105800 -37.376800
H 1.321100 -18.213700 -37.847500
H 1.396900 -15.570800 -39.650000
H 1.451400 -17.954500 -40.138000
40
Fragment
H -5.547600 -14.340700 -42.887700
H -4.969100 -12.303300 -43.857800
H -4.810000 -16.477200 -42.184500
C -4.715900 -14.246900 -43.338600
C -4.374700 -13.042300 -43.909800
O -4.117500 -16.528000 -42.871900
C -3.838900 -15.332100 -43.420700
O -3.554700 -10.667600 -44.915000
C -3.158000 -12.913800 -44.563400
N -2.792700 -11.611300 -45.101000
C -2.637600 -15.192200 -44.126200
C -2.290900 -13.984100 -44.698600
H -2.053500 -15.937400 -44.213800
O -1.729400 -11.492600 -45.692800
H -1.474400 -13.889200 -45.175300
H -2.152400 -15.975600 -37.930700
H -2.109800 -14.937800 -39.144900
H -2.090400 -18.311600 -38.352700
N -2.066900 -16.864400 -39.740100
H -2.051000 -18.865700 -39.848100
C -1.724400 -15.783200 -38.803600
C -1.675200 -18.179400 -39.242700
H -1.658500 -15.736800 -41.369300
H -1.623800 -17.312000 -41.662100
C -1.375600 -16.613600 -41.005900
N -0.295900 -15.586600 -38.585100
H -0.237300 -16.308800 -36.728100
N -0.222900 -18.417400 -39.116400
H -0.077500 -18.431000 -37.112700
N 0.093000 -16.617500 -40.811000
H 0.242700 -14.659500 -40.272900
C 0.286700 -16.431300 -37.558200
H 0.316200 -18.612500 -41.047800
C 0.366500 -17.949700 -37.855500
C 0.426700 -15.532100 -39.843200
C 0.479000 -17.957500 -40.324200
H 1.203700 -16.105800 -37.376800
H 1.321100 -18.213700 -37.847500
H 1.396900 -15.570800 -39.650000
H 1.451400 -17.954500 -40.138000
