15
Fragment
H -5.547600 -14.340700 -42.887700
H -4.969100 -12.303300 -43.857800
H -4.810000 -16.477200 -42.184500
C -4.715900 -14.246900 -43.338600
C -4.374700 -13.042300 -43.909800
O -4.117500 -16.528000 -42.871900
C -3.838900 -15.332100 -43.420700
O -3.554700 -10.667600 -44.915000
C -3.158000 -12.913800 -44.563400
N -2.792700 -11.611300 -45.101000
C -2.637600 -15.192200 -44.126200
C -2.290900 -13.984100 -44.698600
H -2.053500 -15.937400 -44.213800
O -1.729400 -11.492600 -45.692800
H -1.474400 -13.889200 -45.175300
25
Fragment
H -6.813000 -17.873300 -45.970400
H -6.758500 -20.257000 -46.458300
H -6.682700 -17.614100 -48.260900
H -6.565400 -19.722000 -48.731600
C -5.840600 -17.870300 -45.784100
C -5.788300 -20.295700 -46.265200
C -5.728100 -17.878100 -48.252800
H -5.677800 -17.215300 -45.060500
C -5.648300 -19.396500 -48.550200
H -5.604300 -21.168300 -45.835500
N -5.454600 -19.210300 -45.297300
H -5.284100 -17.396800 -48.995600
N -5.138700 -17.410400 -46.991900
H -5.124300 -19.519000 -49.380300
N -5.065800 -20.241200 -47.523200
C -3.986000 -19.214200 -45.102400
H -3.737800 -18.515800 -44.446300
H -3.703100 -20.091000 -44.739000
C -3.686400 -17.648400 -46.865600
C -3.637300 -20.044600 -47.304800
H -3.310600 -16.962100 -46.260300
N -3.294700 -18.963400 -46.368200
H -3.271200 -17.516200 -47.755700
H -3.251800 -20.890000 -46.963500
H -3.209200 -19.852200 -48.177600
40
Fragment
H -5.547600 -14.340700 -42.887700
H -4.969100 -12.303300 -43.857800
H -4.810000 -16.477200 -42.184500
C -4.715900 -14.246900 -43.338600
C -4.374700 -13.042300 -43.909800
O -4.117500 -16.528000 -42.871900
C -3.838900 -15.332100 -43.420700
O -3.554700 -10.667600 -44.915000
C -3.158000 -12.913800 -44.563400
N -2.792700 -11.611300 -45.101000
C -2.637600 -15.192200 -44.126200
C -2.290900 -13.984100 -44.698600
H -2.053500 -15.937400 -44.213800
O -1.729400 -11.492600 -45.692800
H -1.474400 -13.889200 -45.175300
H -6.813000 -17.873300 -45.970400
H -6.758500 -20.257000 -46.458300
H -6.682700 -17.614100 -48.260900
H -6.565400 -19.722000 -48.731600
C -5.840600 -17.870300 -45.784100
C -5.788300 -20.295700 -46.265200
C -5.728100 -17.878100 -48.252800
H -5.677800 -17.215300 -45.060500
C -5.648300 -19.396500 -48.550200
H -5.604300 -21.168300 -45.835500
N -5.454600 -19.210300 -45.297300
H -5.284100 -17.396800 -48.995600
N -5.138700 -17.410400 -46.991900
H -5.124300 -19.519000 -49.380300
N -5.065800 -20.241200 -47.523200
C -3.986000 -19.214200 -45.102400
H -3.737800 -18.515800 -44.446300
H -3.703100 -20.091000 -44.739000
C -3.686400 -17.648400 -46.865600
C -3.637300 -20.044600 -47.304800
H -3.310600 -16.962100 -46.260300
N -3.294700 -18.963400 -46.368200
H -3.271200 -17.516200 -47.755700
H -3.251800 -20.890000 -46.963500
H -3.209200 -19.852200 -48.177600
