15
Fragment
H -5.547600 -14.340700 -42.887700
H -4.969100 -12.303300 -43.857800
H -4.810000 -16.477200 -42.184500
C -4.715900 -14.246900 -43.338600
C -4.374700 -13.042300 -43.909800
O -4.117500 -16.528000 -42.871900
C -3.838900 -15.332100 -43.420700
O -3.554700 -10.667600 -44.915000
C -3.158000 -12.913800 -44.563400
N -2.792700 -11.611300 -45.101000
C -2.637600 -15.192200 -44.126200
C -2.290900 -13.984100 -44.698600
H -2.053500 -15.937400 -44.213800
O -1.729400 -11.492600 -45.692800
H -1.474400 -13.889200 -45.175300
15
Fragment
H -0.052300 -12.234000 -47.230400
O 0.222200 -14.722700 -46.974100
H 0.497900 -15.610200 -47.043900
C 0.741500 -12.540000 -47.654400
C 1.068600 -13.897100 -47.615300
H 1.337200 -10.718500 -48.332600
C 1.561300 -11.640900 -48.301000
C 2.238800 -14.339400 -48.237600
H 2.462300 -15.262600 -48.220700
C 2.721500 -12.107900 -48.906400
C 3.071000 -13.446500 -48.876200
O 3.267200 -9.990800 -49.640900
N 3.568200 -11.177400 -49.631400
H 3.872700 -13.744700 -49.288400
O 4.529400 -11.619200 -50.255100
30
Fragment
H -5.547600 -14.340700 -42.887700
H -4.969100 -12.303300 -43.857800
H -4.810000 -16.477200 -42.184500
C -4.715900 -14.246900 -43.338600
C -4.374700 -13.042300 -43.909800
O -4.117500 -16.528000 -42.871900
C -3.838900 -15.332100 -43.420700
O -3.554700 -10.667600 -44.915000
C -3.158000 -12.913800 -44.563400
N -2.792700 -11.611300 -45.101000
C -2.637600 -15.192200 -44.126200
C -2.290900 -13.984100 -44.698600
H -2.053500 -15.937400 -44.213800
O -1.729400 -11.492600 -45.692800
H -1.474400 -13.889200 -45.175300
H -0.052300 -12.234000 -47.230400
O 0.222200 -14.722700 -46.974100
H 0.497900 -15.610200 -47.043900
C 0.741500 -12.540000 -47.654400
C 1.068600 -13.897100 -47.615300
H 1.337200 -10.718500 -48.332600
C 1.561300 -11.640900 -48.301000
C 2.238800 -14.339400 -48.237600
H 2.462300 -15.262600 -48.220700
C 2.721500 -12.107900 -48.906400
C 3.071000 -13.446500 -48.876200
O 3.267200 -9.990800 -49.640900
N 3.568200 -11.177400 -49.631400
H 3.872700 -13.744700 -49.288400
O 4.529400 -11.619200 -50.255100
