15
Fragment
H -5.547600 -14.340700 -42.887700
H -4.969100 -12.303300 -43.857800
H -4.810000 -16.477200 -42.184500
C -4.715900 -14.246900 -43.338600
C -4.374700 -13.042300 -43.909800
O -4.117500 -16.528000 -42.871900
C -3.838900 -15.332100 -43.420700
O -3.554700 -10.667600 -44.915000
C -3.158000 -12.913800 -44.563400
N -2.792700 -11.611300 -45.101000
C -2.637600 -15.192200 -44.126200
C -2.290900 -13.984100 -44.698600
H -2.053500 -15.937400 -44.213800
O -1.729400 -11.492600 -45.692800
H -1.474400 -13.889200 -45.175300
25
Fragment
H -6.813000 -5.930700 -45.970400
H -6.758500 -8.314400 -46.458300
H -6.682700 -5.671500 -48.260900
H -6.565400 -7.779400 -48.731600
C -5.840600 -5.927700 -45.784100
C -5.788300 -8.353100 -46.265200
C -5.728100 -5.935500 -48.252800
H -5.677800 -5.272700 -45.060500
C -5.648300 -7.453900 -48.550200
H -5.604300 -9.225700 -45.835500
N -5.454600 -7.267700 -45.297300
H -5.284100 -5.454200 -48.995600
N -5.138700 -5.467800 -46.991900
H -5.124300 -7.576400 -49.380300
N -5.065800 -8.298600 -47.523200
C -3.986000 -7.271600 -45.102400
H -3.737800 -6.573200 -44.446300
H -3.703100 -8.148400 -44.739000
C -3.686400 -5.705800 -46.865600
C -3.637300 -8.102000 -47.304800
H -3.310600 -5.019500 -46.260300
N -3.294700 -7.020800 -46.368200
H -3.271200 -5.573600 -47.755700
H -3.251800 -8.947400 -46.963500
H -3.209200 -7.909600 -48.177600
40
Fragment
H -5.547600 -14.340700 -42.887700
H -4.969100 -12.303300 -43.857800
H -4.810000 -16.477200 -42.184500
C -4.715900 -14.246900 -43.338600
C -4.374700 -13.042300 -43.909800
O -4.117500 -16.528000 -42.871900
C -3.838900 -15.332100 -43.420700
O -3.554700 -10.667600 -44.915000
C -3.158000 -12.913800 -44.563400
N -2.792700 -11.611300 -45.101000
C -2.637600 -15.192200 -44.126200
C -2.290900 -13.984100 -44.698600
H -2.053500 -15.937400 -44.213800
O -1.729400 -11.492600 -45.692800
H -1.474400 -13.889200 -45.175300
H -6.813000 -5.930700 -45.970400
H -6.758500 -8.314400 -46.458300
H -6.682700 -5.671500 -48.260900
H -6.565400 -7.779400 -48.731600
C -5.840600 -5.927700 -45.784100
C -5.788300 -8.353100 -46.265200
C -5.728100 -5.935500 -48.252800
H -5.677800 -5.272700 -45.060500
C -5.648300 -7.453900 -48.550200
H -5.604300 -9.225700 -45.835500
N -5.454600 -7.267700 -45.297300
H -5.284100 -5.454200 -48.995600
N -5.138700 -5.467800 -46.991900
H -5.124300 -7.576400 -49.380300
N -5.065800 -8.298600 -47.523200
C -3.986000 -7.271600 -45.102400
H -3.737800 -6.573200 -44.446300
H -3.703100 -8.148400 -44.739000
C -3.686400 -5.705800 -46.865600
C -3.637300 -8.102000 -47.304800
H -3.310600 -5.019500 -46.260300
N -3.294700 -7.020800 -46.368200
H -3.271200 -5.573600 -47.755700
H -3.251800 -8.947400 -46.963500
H -3.209200 -7.909600 -48.177600
