15
Fragment
H -5.547600 -14.340700 -42.887700
H -4.969100 -12.303300 -43.857800
H -4.810000 -16.477200 -42.184500
C -4.715900 -14.246900 -43.338600
C -4.374700 -13.042300 -43.909800
O -4.117500 -16.528000 -42.871900
C -3.838900 -15.332100 -43.420700
O -3.554700 -10.667600 -44.915000
C -3.158000 -12.913800 -44.563400
N -2.792700 -11.611300 -45.101000
C -2.637600 -15.192200 -44.126200
C -2.290900 -13.984100 -44.698600
H -2.053500 -15.937400 -44.213800
O -1.729400 -11.492600 -45.692800
H -1.474400 -13.889200 -45.175300
15
Fragment
H -11.429400 -14.340700 -42.887700
H -10.850900 -12.303300 -43.857800
H -10.691800 -16.477200 -42.184500
C -10.597700 -14.246900 -43.338600
C -10.256500 -13.042300 -43.909800
O -9.999300 -16.528000 -42.871900
C -9.720700 -15.332100 -43.420700
O -9.436500 -10.667600 -44.915000
C -9.039800 -12.913800 -44.563400
N -8.674500 -11.611300 -45.101000
C -8.519400 -15.192200 -44.126200
C -8.172700 -13.984100 -44.698600
H -7.935300 -15.937400 -44.213800
O -7.611200 -11.492600 -45.692800
H -7.356200 -13.889200 -45.175300
30
Fragment
H -5.547600 -14.340700 -42.887700
H -4.969100 -12.303300 -43.857800
H -4.810000 -16.477200 -42.184500
C -4.715900 -14.246900 -43.338600
C -4.374700 -13.042300 -43.909800
O -4.117500 -16.528000 -42.871900
C -3.838900 -15.332100 -43.420700
O -3.554700 -10.667600 -44.915000
C -3.158000 -12.913800 -44.563400
N -2.792700 -11.611300 -45.101000
C -2.637600 -15.192200 -44.126200
C -2.290900 -13.984100 -44.698600
H -2.053500 -15.937400 -44.213800
O -1.729400 -11.492600 -45.692800
H -1.474400 -13.889200 -45.175300
H -11.429400 -14.340700 -42.887700
H -10.850900 -12.303300 -43.857800
H -10.691800 -16.477200 -42.184500
C -10.597700 -14.246900 -43.338600
C -10.256500 -13.042300 -43.909800
O -9.999300 -16.528000 -42.871900
C -9.720700 -15.332100 -43.420700
O -9.436500 -10.667600 -44.915000
C -9.039800 -12.913800 -44.563400
N -8.674500 -11.611300 -45.101000
C -8.519400 -15.192200 -44.126200
C -8.172700 -13.984100 -44.698600
H -7.935300 -15.937400 -44.213800
O -7.611200 -11.492600 -45.692800
H -7.356200 -13.889200 -45.175300
