17
Fragment
H -7.339700 -19.539600 -29.860400
O -6.805800 -18.990900 -30.221300
O -6.544900 -20.507600 -31.825400
C -6.267100 -19.440100 -31.301400
H -5.437200 -16.995200 -30.650300
C -5.239400 -18.545400 -31.919900
C -4.980400 -17.289100 -31.404400
H -4.700400 -19.825800 -33.374400
C -4.535500 -18.976900 -33.030900
C -4.042600 -16.465400 -32.008600
H -3.862200 -15.619900 -31.665900
C -3.595200 -18.174200 -33.639100
C -3.389200 -16.924700 -33.116800
H -3.116700 -18.471100 -34.380100
N -2.400000 -16.044700 -33.770700
O -2.356000 -14.885900 -33.417900
O -1.667300 -16.494800 -34.623000
17
Fragment
O -7.522600 -16.278700 -24.769100
O -6.833800 -17.887600 -25.974100
N -6.789800 -16.728800 -25.621300
H -6.073100 -14.302400 -25.012000
C -5.800700 -15.848800 -26.275300
C -5.594600 -14.599300 -25.753000
H -5.327600 -17.153600 -27.726200
C -5.147200 -16.308100 -27.383500
C -4.654400 -13.796600 -26.361200
H -4.489500 -12.947700 -26.017700
C -4.209400 -15.484400 -27.987700
C -3.950400 -14.228100 -27.472200
H -3.752600 -15.778300 -28.741800
C -2.922700 -13.333400 -28.090700
O -2.644900 -12.265900 -27.566600
O -2.384000 -13.782600 -29.170800
H -1.850100 -13.233900 -29.531700
34
Fragment
H -7.339700 -19.539600 -29.860400
O -6.805800 -18.990900 -30.221300
O -6.544900 -20.507600 -31.825400
C -6.267100 -19.440100 -31.301400
H -5.437200 -16.995200 -30.650300
C -5.239400 -18.545400 -31.919900
C -4.980400 -17.289100 -31.404400
H -4.700400 -19.825800 -33.374400
C -4.535500 -18.976900 -33.030900
C -4.042600 -16.465400 -32.008600
H -3.862200 -15.619900 -31.665900
C -3.595200 -18.174200 -33.639100
C -3.389200 -16.924700 -33.116800
H -3.116700 -18.471100 -34.380100
N -2.400000 -16.044700 -33.770700
O -2.356000 -14.885900 -33.417900
O -1.667300 -16.494800 -34.623000
O -7.522600 -16.278700 -24.769100
O -6.833800 -17.887600 -25.974100
N -6.789800 -16.728800 -25.621300
H -6.073100 -14.302400 -25.012000
C -5.800700 -15.848800 -26.275300
C -5.594600 -14.599300 -25.753000
H -5.327600 -17.153600 -27.726200
C -5.147200 -16.308100 -27.383500
C -4.654400 -13.796600 -26.361200
H -4.489500 -12.947700 -26.017700
C -4.209400 -15.484400 -27.987700
C -3.950400 -14.228100 -27.472200
H -3.752600 -15.778300 -28.741800
C -2.922700 -13.333400 -28.090700
O -2.644900 -12.265900 -27.566600
O -2.384000 -13.782600 -29.170800
H -1.850100 -13.233900 -29.531700
