17
Fragment
H -7.339700 -19.539600 -29.860400
O -6.805800 -18.990900 -30.221300
O -6.544900 -20.507600 -31.825400
C -6.267100 -19.440100 -31.301400
H -5.437200 -16.995200 -30.650300
C -5.239400 -18.545400 -31.919900
C -4.980400 -17.289100 -31.404400
H -4.700400 -19.825800 -33.374400
C -4.535500 -18.976900 -33.030900
C -4.042600 -16.465400 -32.008600
H -3.862200 -15.619900 -31.665900
C -3.595200 -18.174200 -33.639100
C -3.389200 -16.924700 -33.116800
H -3.116700 -18.471100 -34.380100
N -2.400000 -16.044700 -33.770700
O -2.356000 -14.885900 -33.417900
O -1.667300 -16.494800 -34.623000
17
Fragment
O -2.584900 -21.957000 -34.667700
O -1.896100 -20.348200 -35.872800
N -1.852100 -21.507000 -35.520000
H -1.135400 -23.933400 -34.910700
C -0.863000 -22.386900 -36.173900
C -0.656900 -23.636500 -35.651700
H -0.389900 -21.082100 -37.624900
C -0.209500 -21.927700 -37.282200
C 0.283300 -24.439200 -36.259900
H 0.448200 -25.288000 -35.916400
C 0.728300 -22.751400 -37.886400
C 0.987300 -24.007700 -37.370900
H 1.185100 -22.457500 -38.640500
C 2.014900 -24.902400 -37.989300
O 2.292800 -25.969800 -37.465300
O 2.553600 -24.453200 -39.069500
H 3.087600 -25.001800 -39.430400
34
Fragment
H -7.339700 -19.539600 -29.860400
O -6.805800 -18.990900 -30.221300
O -6.544900 -20.507600 -31.825400
C -6.267100 -19.440100 -31.301400
H -5.437200 -16.995200 -30.650300
C -5.239400 -18.545400 -31.919900
C -4.980400 -17.289100 -31.404400
H -4.700400 -19.825800 -33.374400
C -4.535500 -18.976900 -33.030900
C -4.042600 -16.465400 -32.008600
H -3.862200 -15.619900 -31.665900
C -3.595200 -18.174200 -33.639100
C -3.389200 -16.924700 -33.116800
H -3.116700 -18.471100 -34.380100
N -2.400000 -16.044700 -33.770700
O -2.356000 -14.885900 -33.417900
O -1.667300 -16.494800 -34.623000
O -2.584900 -21.957000 -34.667700
O -1.896100 -20.348200 -35.872800
N -1.852100 -21.507000 -35.520000
H -1.135400 -23.933400 -34.910700
C -0.863000 -22.386900 -36.173900
C -0.656900 -23.636500 -35.651700
H -0.389900 -21.082100 -37.624900
C -0.209500 -21.927700 -37.282200
C 0.283300 -24.439200 -36.259900
H 0.448200 -25.288000 -35.916400
C 0.728300 -22.751400 -37.886400
C 0.987300 -24.007700 -37.370900
H 1.185100 -22.457500 -38.640500
C 2.014900 -24.902400 -37.989300
O 2.292800 -25.969800 -37.465300
O 2.553600 -24.453200 -39.069500
H 3.087600 -25.001800 -39.430400
