17
Fragment
H -7.339700 -19.539600 -29.860400
O -6.805800 -18.990900 -30.221300
O -6.544900 -20.507600 -31.825400
C -6.267100 -19.440100 -31.301400
H -5.437200 -16.995200 -30.650300
C -5.239400 -18.545400 -31.919900
C -4.980400 -17.289100 -31.404400
H -4.700400 -19.825800 -33.374400
C -4.535500 -18.976900 -33.030900
C -4.042600 -16.465400 -32.008600
H -3.862200 -15.619900 -31.665900
C -3.595200 -18.174200 -33.639100
C -3.389200 -16.924700 -33.116800
H -3.116700 -18.471100 -34.380100
N -2.400000 -16.044700 -33.770700
O -2.356000 -14.885900 -33.417900
O -1.667300 -16.494800 -34.623000
16
Fragment
H -6.049800 -11.129900 -27.983600
H -5.564300 -13.686200 -32.000400
H -5.503000 -9.373200 -26.413600
N -5.453400 -12.387800 -30.409500
N -5.420100 -10.553500 -28.088700
C -5.133300 -12.956500 -31.619000
C -5.091800 -9.560000 -27.227700
C -4.607100 -11.373800 -30.253300
C -4.582800 -10.475200 -29.138700
C -4.098100 -12.289000 -32.164400
C -4.056500 -8.892500 -27.773100
N -3.769800 -11.295500 -31.303400
N -3.736500 -9.461200 -28.982500
H -3.686800 -12.475800 -32.978400
H -3.625500 -8.162800 -27.391600
H -3.140000 -10.719100 -31.408500
33
Fragment
H -7.339700 -19.539600 -29.860400
O -6.805800 -18.990900 -30.221300
O -6.544900 -20.507600 -31.825400
C -6.267100 -19.440100 -31.301400
H -5.437200 -16.995200 -30.650300
C -5.239400 -18.545400 -31.919900
C -4.980400 -17.289100 -31.404400
H -4.700400 -19.825800 -33.374400
C -4.535500 -18.976900 -33.030900
C -4.042600 -16.465400 -32.008600
H -3.862200 -15.619900 -31.665900
C -3.595200 -18.174200 -33.639100
C -3.389200 -16.924700 -33.116800
H -3.116700 -18.471100 -34.380100
N -2.400000 -16.044700 -33.770700
O -2.356000 -14.885900 -33.417900
O -1.667300 -16.494800 -34.623000
H -6.049800 -11.129900 -27.983600
H -5.564300 -13.686200 -32.000400
H -5.503000 -9.373200 -26.413600
N -5.453400 -12.387800 -30.409500
N -5.420100 -10.553500 -28.088700
C -5.133300 -12.956500 -31.619000
C -5.091800 -9.560000 -27.227700
C -4.607100 -11.373800 -30.253300
C -4.582800 -10.475200 -29.138700
C -4.098100 -12.289000 -32.164400
C -4.056500 -8.892500 -27.773100
N -3.769800 -11.295500 -31.303400
N -3.736500 -9.461200 -28.982500
H -3.686800 -12.475800 -32.978400
H -3.625500 -8.162800 -27.391600
H -3.140000 -10.719100 -31.408500
