17
Fragment
H -7.339700 -19.539600 -29.860400
O -6.805800 -18.990900 -30.221300
O -6.544900 -20.507600 -31.825400
C -6.267100 -19.440100 -31.301400
H -5.437200 -16.995200 -30.650300
C -5.239400 -18.545400 -31.919900
C -4.980400 -17.289100 -31.404400
H -4.700400 -19.825800 -33.374400
C -4.535500 -18.976900 -33.030900
C -4.042600 -16.465400 -32.008600
H -3.862200 -15.619900 -31.665900
C -3.595200 -18.174200 -33.639100
C -3.389200 -16.924700 -33.116800
H -3.116700 -18.471100 -34.380100
N -2.400000 -16.044700 -33.770700
O -2.356000 -14.885900 -33.417900
O -1.667300 -16.494800 -34.623000
17
Fragment
H -2.487700 -19.539600 -29.860400
O -1.953800 -18.990900 -30.221300
O -1.692900 -20.507600 -31.825400
C -1.415100 -19.440100 -31.301400
H -0.585200 -16.995200 -30.650300
C -0.387400 -18.545400 -31.919900
C -0.128400 -17.289100 -31.404400
H 0.151600 -19.825800 -33.374400
C 0.316500 -18.976900 -33.030900
C 0.809400 -16.465400 -32.008600
H 0.989800 -15.619900 -31.665900
C 1.256800 -18.174200 -33.639100
C 1.462800 -16.924700 -33.116800
H 1.735300 -18.471100 -34.380100
N 2.452000 -16.044700 -33.770700
O 2.496000 -14.885900 -33.417900
O 3.184700 -16.494800 -34.623000
34
Fragment
H -7.339700 -19.539600 -29.860400
O -6.805800 -18.990900 -30.221300
O -6.544900 -20.507600 -31.825400
C -6.267100 -19.440100 -31.301400
H -5.437200 -16.995200 -30.650300
C -5.239400 -18.545400 -31.919900
C -4.980400 -17.289100 -31.404400
H -4.700400 -19.825800 -33.374400
C -4.535500 -18.976900 -33.030900
C -4.042600 -16.465400 -32.008600
H -3.862200 -15.619900 -31.665900
C -3.595200 -18.174200 -33.639100
C -3.389200 -16.924700 -33.116800
H -3.116700 -18.471100 -34.380100
N -2.400000 -16.044700 -33.770700
O -2.356000 -14.885900 -33.417900
O -1.667300 -16.494800 -34.623000
H -2.487700 -19.539600 -29.860400
O -1.953800 -18.990900 -30.221300
O -1.692900 -20.507600 -31.825400
C -1.415100 -19.440100 -31.301400
H -0.585200 -16.995200 -30.650300
C -0.387400 -18.545400 -31.919900
C -0.128400 -17.289100 -31.404400
H 0.151600 -19.825800 -33.374400
C 0.316500 -18.976900 -33.030900
C 0.809400 -16.465400 -32.008600
H 0.989800 -15.619900 -31.665900
C 1.256800 -18.174200 -33.639100
C 1.462800 -16.924700 -33.116800
H 1.735300 -18.471100 -34.380100
N 2.452000 -16.044700 -33.770700
O 2.496000 -14.885900 -33.417900
O 3.184700 -16.494800 -34.623000
