17
Fragment
H -7.339700 -19.539600 -29.860400
O -6.805800 -18.990900 -30.221300
O -6.544900 -20.507600 -31.825400
C -6.267100 -19.440100 -31.301400
H -5.437200 -16.995200 -30.650300
C -5.239400 -18.545400 -31.919900
C -4.980400 -17.289100 -31.404400
H -4.700400 -19.825800 -33.374400
C -4.535500 -18.976900 -33.030900
C -4.042600 -16.465400 -32.008600
H -3.862200 -15.619900 -31.665900
C -3.595200 -18.174200 -33.639100
C -3.389200 -16.924700 -33.116800
H -3.116700 -18.471100 -34.380100
N -2.400000 -16.044700 -33.770700
O -2.356000 -14.885900 -33.417900
O -1.667300 -16.494800 -34.623000
17
Fragment
H -12.191700 -19.539600 -29.860400
O -11.657800 -18.990900 -30.221300
O -11.396900 -20.507600 -31.825400
C -11.119100 -19.440100 -31.301400
H -10.289200 -16.995200 -30.650300
C -10.091400 -18.545400 -31.919900
C -9.832400 -17.289100 -31.404400
H -9.552400 -19.825800 -33.374400
C -9.387500 -18.976900 -33.030900
C -8.894600 -16.465400 -32.008600
H -8.714200 -15.619900 -31.665900
C -8.447200 -18.174200 -33.639100
C -8.241200 -16.924700 -33.116800
H -7.968700 -18.471100 -34.380100
N -7.252000 -16.044700 -33.770700
O -7.208000 -14.885900 -33.417900
O -6.519300 -16.494800 -34.623000
34
Fragment
H -7.339700 -19.539600 -29.860400
O -6.805800 -18.990900 -30.221300
O -6.544900 -20.507600 -31.825400
C -6.267100 -19.440100 -31.301400
H -5.437200 -16.995200 -30.650300
C -5.239400 -18.545400 -31.919900
C -4.980400 -17.289100 -31.404400
H -4.700400 -19.825800 -33.374400
C -4.535500 -18.976900 -33.030900
C -4.042600 -16.465400 -32.008600
H -3.862200 -15.619900 -31.665900
C -3.595200 -18.174200 -33.639100
C -3.389200 -16.924700 -33.116800
H -3.116700 -18.471100 -34.380100
N -2.400000 -16.044700 -33.770700
O -2.356000 -14.885900 -33.417900
O -1.667300 -16.494800 -34.623000
H -12.191700 -19.539600 -29.860400
O -11.657800 -18.990900 -30.221300
O -11.396900 -20.507600 -31.825400
C -11.119100 -19.440100 -31.301400
H -10.289200 -16.995200 -30.650300
C -10.091400 -18.545400 -31.919900
C -9.832400 -17.289100 -31.404400
H -9.552400 -19.825800 -33.374400
C -9.387500 -18.976900 -33.030900
C -8.894600 -16.465400 -32.008600
H -8.714200 -15.619900 -31.665900
C -8.447200 -18.174200 -33.639100
C -8.241200 -16.924700 -33.116800
H -7.968700 -18.471100 -34.380100
N -7.252000 -16.044700 -33.770700
O -7.208000 -14.885900 -33.417900
O -6.519300 -16.494800 -34.623000
