34
Fragment
H -12.396100 -11.240100 -35.485000
C -11.613400 -10.882300 -35.837400
H -11.567700 -12.009800 -37.492900
H -11.269700 -9.577600 -34.360300
C -11.114800 -11.340100 -37.034100
C -10.942700 -9.891800 -35.172200
C -9.951400 -10.819900 -37.564500
C -9.782600 -9.355100 -35.699700
H -9.632600 -11.139600 -38.378400
H -9.350300 -8.668800 -35.245800
C -9.250300 -9.821100 -36.893900
H -8.137600 -7.460100 -36.596300
H -8.083400 -8.429100 -31.853800
C -7.957400 -9.312000 -37.419600
H -7.682700 -6.903000 -33.714100
C -7.638900 -8.647800 -32.641700
C -7.423100 -7.794100 -33.663800
C -7.407800 -7.983000 -36.964600
N -7.376300 -10.074000 -38.278200
N -7.115100 -9.877400 -32.923500
H -7.073000 -7.508100 -37.741100
H -7.047000 -11.672500 -39.878700
N -6.741800 -8.510900 -34.613200
C -6.584300 -9.741600 -34.116100
C -6.290100 -8.051500 -35.923000
N -6.288600 -11.502900 -40.232900
N -6.174900 -9.683100 -38.816800
H -6.146500 -10.426800 -34.566000
H -5.895500 -7.170200 -35.827100
H -5.842300 -12.059000 -40.748500
H -5.705100 -9.055300 -38.546100
H -5.598400 -8.651100 -36.245200
C -5.572800 -10.494700 -39.739900
O -4.421600 -10.223500 -40.113700
34
Fragment
O -6.226800 -6.341000 -26.965700
C -5.075600 -6.069800 -27.339600
H -5.049900 -7.913400 -30.834200
H -4.943300 -7.509200 -28.533300
H -4.806000 -4.505500 -26.330900
H -4.752800 -9.394300 -31.252300
H -4.501900 -6.137700 -32.513400
N -4.473500 -6.881400 -28.262600
N -4.359800 -5.061600 -26.846500
C -4.358300 -8.513000 -31.156400
C -4.064100 -6.822900 -32.963300
N -3.906600 -8.053600 -32.466200
H -3.601400 -4.892000 -27.200700
H -3.575400 -9.056400 -29.338300
N -3.533300 -6.687100 -34.155900
N -3.272100 -6.490500 -28.801200
C -3.240500 -8.581500 -30.114900
C -3.225300 -8.770400 -33.415600
C -3.009400 -7.916700 -34.437700
H -2.965600 -9.661500 -33.365300
C -2.691000 -7.252500 -29.659800
H -2.565000 -8.135400 -35.225600
H -2.510700 -9.104400 -30.483100
C -1.398100 -6.743400 -30.185500
H -1.298100 -7.895700 -31.833700
H -1.015800 -5.424900 -28.701000
C -0.865800 -7.209400 -31.379800
C -0.697000 -5.744600 -29.514900
C 0.294300 -6.672700 -31.907200
C 0.466400 -5.224400 -30.045300
H 0.621300 -6.986900 -32.719100
H 0.919300 -4.554700 -29.586500
C 0.965000 -5.682200 -31.242000
H 1.747700 -5.324400 -31.594400
68
Fragment
H -12.396100 -11.240100 -35.485000
C -11.613400 -10.882300 -35.837400
H -11.567700 -12.009800 -37.492900
H -11.269700 -9.577600 -34.360300
C -11.114800 -11.340100 -37.034100
C -10.942700 -9.891800 -35.172200
C -9.951400 -10.819900 -37.564500
C -9.782600 -9.355100 -35.699700
H -9.632600 -11.139600 -38.378400
H -9.350300 -8.668800 -35.245800
C -9.250300 -9.821100 -36.893900
H -8.137600 -7.460100 -36.596300
H -8.083400 -8.429100 -31.853800
C -7.957400 -9.312000 -37.419600
H -7.682700 -6.903000 -33.714100
C -7.638900 -8.647800 -32.641700
C -7.423100 -7.794100 -33.663800
C -7.407800 -7.983000 -36.964600
N -7.376300 -10.074000 -38.278200
N -7.115100 -9.877400 -32.923500
H -7.073000 -7.508100 -37.741100
H -7.047000 -11.672500 -39.878700
N -6.741800 -8.510900 -34.613200
C -6.584300 -9.741600 -34.116100
C -6.290100 -8.051500 -35.923000
N -6.288600 -11.502900 -40.232900
N -6.174900 -9.683100 -38.816800
H -6.146500 -10.426800 -34.566000
H -5.895500 -7.170200 -35.827100
H -5.842300 -12.059000 -40.748500
H -5.705100 -9.055300 -38.546100
H -5.598400 -8.651100 -36.245200
C -5.572800 -10.494700 -39.739900
O -4.421600 -10.223500 -40.113700
O -6.226800 -6.341000 -26.965700
C -5.075600 -6.069800 -27.339600
H -5.049900 -7.913400 -30.834200
H -4.943300 -7.509200 -28.533300
H -4.806000 -4.505500 -26.330900
H -4.752800 -9.394300 -31.252300
H -4.501900 -6.137700 -32.513400
N -4.473500 -6.881400 -28.262600
N -4.359800 -5.061600 -26.846500
C -4.358300 -8.513000 -31.156400
C -4.064100 -6.822900 -32.963300
N -3.906600 -8.053600 -32.466200
H -3.601400 -4.892000 -27.200700
H -3.575400 -9.056400 -29.338300
N -3.533300 -6.687100 -34.155900
N -3.272100 -6.490500 -28.801200
C -3.240500 -8.581500 -30.114900
C -3.225300 -8.770400 -33.415600
C -3.009400 -7.916700 -34.437700
H -2.965600 -9.661500 -33.365300
C -2.691000 -7.252500 -29.659800
H -2.565000 -8.135400 -35.225600
H -2.510700 -9.104400 -30.483100
C -1.398100 -6.743400 -30.185500
H -1.298100 -7.895700 -31.833700
H -1.015800 -5.424900 -28.701000
C -0.865800 -7.209400 -31.379800
C -0.697000 -5.744600 -29.514900
C 0.294300 -6.672700 -31.907200
C 0.466400 -5.224400 -30.045300
H 0.621300 -6.986900 -32.719100
H 0.919300 -4.554700 -29.586500
C 0.965000 -5.682200 -31.242000
H 1.747700 -5.324400 -31.594400
