34
Fragment
H -12.396100 -11.240100 -35.485000
C -11.613400 -10.882300 -35.837400
H -11.567700 -12.009800 -37.492900
H -11.269700 -9.577600 -34.360300
C -11.114800 -11.340100 -37.034100
C -10.942700 -9.891800 -35.172200
C -9.951400 -10.819900 -37.564500
C -9.782600 -9.355100 -35.699700
H -9.632600 -11.139600 -38.378400
H -9.350300 -8.668800 -35.245800
C -9.250300 -9.821100 -36.893900
H -8.137600 -7.460100 -36.596300
H -8.083400 -8.429100 -31.853800
C -7.957400 -9.312000 -37.419600
H -7.682700 -6.903000 -33.714100
C -7.638900 -8.647800 -32.641700
C -7.423100 -7.794100 -33.663800
C -7.407800 -7.983000 -36.964600
N -7.376300 -10.074000 -38.278200
N -7.115100 -9.877400 -32.923500
H -7.073000 -7.508100 -37.741100
H -7.047000 -11.672500 -39.878700
N -6.741800 -8.510900 -34.613200
C -6.584300 -9.741600 -34.116100
C -6.290100 -8.051500 -35.923000
N -6.288600 -11.502900 -40.232900
N -6.174900 -9.683100 -38.816800
H -6.146500 -10.426800 -34.566000
H -5.895500 -7.170200 -35.827100
H -5.842300 -12.059000 -40.748500
H -5.705100 -9.055300 -38.546100
H -5.598400 -8.651100 -36.245200
C -5.572800 -10.494700 -39.739900
O -4.421600 -10.223500 -40.113700
34
Fragment
H -12.396100 -16.761600 -35.485000
C -11.613400 -16.403800 -35.837400
H -11.567700 -17.531300 -37.492900
H -11.269700 -15.099100 -34.360300
C -11.114800 -16.861600 -37.034100
C -10.942700 -15.413300 -35.172200
C -9.951400 -16.341400 -37.564500
C -9.782600 -14.876600 -35.699700
H -9.632600 -16.661100 -38.378400
H -9.350300 -14.190300 -35.245800
C -9.250300 -15.342600 -36.893900
H -8.137600 -12.981600 -36.596300
H -8.083400 -13.950600 -31.853800
C -7.957400 -14.833500 -37.419600
H -7.682700 -12.424500 -33.714100
C -7.638900 -14.169300 -32.641700
C -7.423100 -13.315600 -33.663800
C -7.407800 -13.504500 -36.964600
N -7.376300 -15.595500 -38.278200
N -7.115100 -15.398900 -32.923500
H -7.073000 -13.029600 -37.741100
H -7.047000 -17.194000 -39.878700
N -6.741800 -14.032400 -34.613200
C -6.584300 -15.263100 -34.116100
C -6.290100 -13.573000 -35.923000
N -6.288600 -17.024400 -40.232900
N -6.174900 -15.204600 -38.816800
H -6.146500 -15.948300 -34.566000
H -5.895500 -12.691700 -35.827100
H -5.842300 -17.580500 -40.748500
H -5.705100 -14.576800 -38.546100
H -5.598400 -14.172600 -36.245200
C -5.572800 -16.016200 -39.739900
O -4.421600 -15.745000 -40.113700
68
Fragment
H -12.396100 -11.240100 -35.485000
C -11.613400 -10.882300 -35.837400
H -11.567700 -12.009800 -37.492900
H -11.269700 -9.577600 -34.360300
C -11.114800 -11.340100 -37.034100
C -10.942700 -9.891800 -35.172200
C -9.951400 -10.819900 -37.564500
C -9.782600 -9.355100 -35.699700
H -9.632600 -11.139600 -38.378400
H -9.350300 -8.668800 -35.245800
C -9.250300 -9.821100 -36.893900
H -8.137600 -7.460100 -36.596300
H -8.083400 -8.429100 -31.853800
C -7.957400 -9.312000 -37.419600
H -7.682700 -6.903000 -33.714100
C -7.638900 -8.647800 -32.641700
C -7.423100 -7.794100 -33.663800
C -7.407800 -7.983000 -36.964600
N -7.376300 -10.074000 -38.278200
N -7.115100 -9.877400 -32.923500
H -7.073000 -7.508100 -37.741100
H -7.047000 -11.672500 -39.878700
N -6.741800 -8.510900 -34.613200
C -6.584300 -9.741600 -34.116100
C -6.290100 -8.051500 -35.923000
N -6.288600 -11.502900 -40.232900
N -6.174900 -9.683100 -38.816800
H -6.146500 -10.426800 -34.566000
H -5.895500 -7.170200 -35.827100
H -5.842300 -12.059000 -40.748500
H -5.705100 -9.055300 -38.546100
H -5.598400 -8.651100 -36.245200
C -5.572800 -10.494700 -39.739900
O -4.421600 -10.223500 -40.113700
H -12.396100 -16.761600 -35.485000
C -11.613400 -16.403800 -35.837400
H -11.567700 -17.531300 -37.492900
H -11.269700 -15.099100 -34.360300
C -11.114800 -16.861600 -37.034100
C -10.942700 -15.413300 -35.172200
C -9.951400 -16.341400 -37.564500
C -9.782600 -14.876600 -35.699700
H -9.632600 -16.661100 -38.378400
H -9.350300 -14.190300 -35.245800
C -9.250300 -15.342600 -36.893900
H -8.137600 -12.981600 -36.596300
H -8.083400 -13.950600 -31.853800
C -7.957400 -14.833500 -37.419600
H -7.682700 -12.424500 -33.714100
C -7.638900 -14.169300 -32.641700
C -7.423100 -13.315600 -33.663800
C -7.407800 -13.504500 -36.964600
N -7.376300 -15.595500 -38.278200
N -7.115100 -15.398900 -32.923500
H -7.073000 -13.029600 -37.741100
H -7.047000 -17.194000 -39.878700
N -6.741800 -14.032400 -34.613200
C -6.584300 -15.263100 -34.116100
C -6.290100 -13.573000 -35.923000
N -6.288600 -17.024400 -40.232900
N -6.174900 -15.204600 -38.816800
H -6.146500 -15.948300 -34.566000
H -5.895500 -12.691700 -35.827100
H -5.842300 -17.580500 -40.748500
H -5.705100 -14.576800 -38.546100
H -5.598400 -14.172600 -36.245200
C -5.572800 -16.016200 -39.739900
O -4.421600 -15.745000 -40.113700
