34
Fragment
H -12.396100 -11.240100 -35.485000
C -11.613400 -10.882300 -35.837400
H -11.567700 -12.009800 -37.492900
H -11.269700 -9.577600 -34.360300
C -11.114800 -11.340100 -37.034100
C -10.942700 -9.891800 -35.172200
C -9.951400 -10.819900 -37.564500
C -9.782600 -9.355100 -35.699700
H -9.632600 -11.139600 -38.378400
H -9.350300 -8.668800 -35.245800
C -9.250300 -9.821100 -36.893900
H -8.137600 -7.460100 -36.596300
H -8.083400 -8.429100 -31.853800
C -7.957400 -9.312000 -37.419600
H -7.682700 -6.903000 -33.714100
C -7.638900 -8.647800 -32.641700
C -7.423100 -7.794100 -33.663800
C -7.407800 -7.983000 -36.964600
N -7.376300 -10.074000 -38.278200
N -7.115100 -9.877400 -32.923500
H -7.073000 -7.508100 -37.741100
H -7.047000 -11.672500 -39.878700
N -6.741800 -8.510900 -34.613200
C -6.584300 -9.741600 -34.116100
C -6.290100 -8.051500 -35.923000
N -6.288600 -11.502900 -40.232900
N -6.174900 -9.683100 -38.816800
H -6.146500 -10.426800 -34.566000
H -5.895500 -7.170200 -35.827100
H -5.842300 -12.059000 -40.748500
H -5.705100 -9.055300 -38.546100
H -5.598400 -8.651100 -36.245200
C -5.572800 -10.494700 -39.739900
O -4.421600 -10.223500 -40.113700
34
Fragment
O -4.269700 -7.462700 -38.145600
C -3.118600 -7.734000 -38.519500
H -3.092900 -5.890300 -42.014100
H -2.986300 -6.294500 -39.713300
H -2.849000 -9.298200 -37.510800
H -2.795800 -4.409500 -42.432200
H -2.544800 -7.666100 -43.693300
N -2.516500 -6.922300 -39.442500
N -2.402700 -8.742200 -38.026400
C -2.401300 -5.290700 -42.336300
C -2.107000 -6.980800 -44.143200
N -1.949500 -5.750100 -43.646100
H -1.644400 -8.911700 -38.380600
H -1.618400 -4.747400 -40.518200
N -1.576300 -7.116700 -45.335800
N -1.315100 -7.313200 -39.981100
C -1.283500 -5.222200 -41.294800
C -1.268300 -5.033400 -44.595500
C -1.052400 -5.887000 -45.617600
H -1.008600 -4.142200 -44.545200
C -0.734000 -6.551300 -40.839700
H -0.607900 -5.668400 -46.405500
H -0.553700 -4.699300 -41.663000
C 0.559000 -7.060300 -41.365400
H 0.658900 -5.908000 -43.013600
H 0.941300 -8.378900 -39.881000
C 1.091200 -6.594300 -42.559700
C 1.260100 -8.059200 -40.694800
C 2.251400 -7.131000 -43.087100
C 2.423400 -8.579300 -41.225200
H 2.578300 -6.816800 -43.899000
H 2.876300 -9.249100 -40.766400
C 2.922100 -8.121600 -42.421900
H 3.704700 -8.479400 -42.774300
68
Fragment
H -12.396100 -11.240100 -35.485000
C -11.613400 -10.882300 -35.837400
H -11.567700 -12.009800 -37.492900
H -11.269700 -9.577600 -34.360300
C -11.114800 -11.340100 -37.034100
C -10.942700 -9.891800 -35.172200
C -9.951400 -10.819900 -37.564500
C -9.782600 -9.355100 -35.699700
H -9.632600 -11.139600 -38.378400
H -9.350300 -8.668800 -35.245800
C -9.250300 -9.821100 -36.893900
H -8.137600 -7.460100 -36.596300
H -8.083400 -8.429100 -31.853800
C -7.957400 -9.312000 -37.419600
H -7.682700 -6.903000 -33.714100
C -7.638900 -8.647800 -32.641700
C -7.423100 -7.794100 -33.663800
C -7.407800 -7.983000 -36.964600
N -7.376300 -10.074000 -38.278200
N -7.115100 -9.877400 -32.923500
H -7.073000 -7.508100 -37.741100
H -7.047000 -11.672500 -39.878700
N -6.741800 -8.510900 -34.613200
C -6.584300 -9.741600 -34.116100
C -6.290100 -8.051500 -35.923000
N -6.288600 -11.502900 -40.232900
N -6.174900 -9.683100 -38.816800
H -6.146500 -10.426800 -34.566000
H -5.895500 -7.170200 -35.827100
H -5.842300 -12.059000 -40.748500
H -5.705100 -9.055300 -38.546100
H -5.598400 -8.651100 -36.245200
C -5.572800 -10.494700 -39.739900
O -4.421600 -10.223500 -40.113700
O -4.269700 -7.462700 -38.145600
C -3.118600 -7.734000 -38.519500
H -3.092900 -5.890300 -42.014100
H -2.986300 -6.294500 -39.713300
H -2.849000 -9.298200 -37.510800
H -2.795800 -4.409500 -42.432200
H -2.544800 -7.666100 -43.693300
N -2.516500 -6.922300 -39.442500
N -2.402700 -8.742200 -38.026400
C -2.401300 -5.290700 -42.336300
C -2.107000 -6.980800 -44.143200
N -1.949500 -5.750100 -43.646100
H -1.644400 -8.911700 -38.380600
H -1.618400 -4.747400 -40.518200
N -1.576300 -7.116700 -45.335800
N -1.315100 -7.313200 -39.981100
C -1.283500 -5.222200 -41.294800
C -1.268300 -5.033400 -44.595500
C -1.052400 -5.887000 -45.617600
H -1.008600 -4.142200 -44.545200
C -0.734000 -6.551300 -40.839700
H -0.607900 -5.668400 -46.405500
H -0.553700 -4.699300 -41.663000
C 0.559000 -7.060300 -41.365400
H 0.658900 -5.908000 -43.013600
H 0.941300 -8.378900 -39.881000
C 1.091200 -6.594300 -42.559700
C 1.260100 -8.059200 -40.694800
C 2.251400 -7.131000 -43.087100
C 2.423400 -8.579300 -41.225200
H 2.578300 -6.816800 -43.899000
H 2.876300 -9.249100 -40.766400
C 2.922100 -8.121600 -42.421900
H 3.704700 -8.479400 -42.774300
