34
Fragment
H -12.396100 -11.240100 -35.485000
C -11.613400 -10.882300 -35.837400
H -11.567700 -12.009800 -37.492900
H -11.269700 -9.577600 -34.360300
C -11.114800 -11.340100 -37.034100
C -10.942700 -9.891800 -35.172200
C -9.951400 -10.819900 -37.564500
C -9.782600 -9.355100 -35.699700
H -9.632600 -11.139600 -38.378400
H -9.350300 -8.668800 -35.245800
C -9.250300 -9.821100 -36.893900
H -8.137600 -7.460100 -36.596300
H -8.083400 -8.429100 -31.853800
C -7.957400 -9.312000 -37.419600
H -7.682700 -6.903000 -33.714100
C -7.638900 -8.647800 -32.641700
C -7.423100 -7.794100 -33.663800
C -7.407800 -7.983000 -36.964600
N -7.376300 -10.074000 -38.278200
N -7.115100 -9.877400 -32.923500
H -7.073000 -7.508100 -37.741100
H -7.047000 -11.672500 -39.878700
N -6.741800 -8.510900 -34.613200
C -6.584300 -9.741600 -34.116100
C -6.290100 -8.051500 -35.923000
N -6.288600 -11.502900 -40.232900
N -6.174900 -9.683100 -38.816800
H -6.146500 -10.426800 -34.566000
H -5.895500 -7.170200 -35.827100
H -5.842300 -12.059000 -40.748500
H -5.705100 -9.055300 -38.546100
H -5.598400 -8.651100 -36.245200
C -5.572800 -10.494700 -39.739900
O -4.421600 -10.223500 -40.113700
34
Fragment
H -14.353100 -8.085100 -24.305100
C -13.570400 -8.442900 -24.657500
H -13.524700 -7.315400 -26.313000
H -13.226700 -9.747700 -23.180400
C -13.071800 -7.985200 -25.854200
C -12.899700 -9.433500 -23.992300
C -11.908500 -8.505300 -26.384600
C -11.739600 -9.970200 -24.519800
H -11.589700 -8.185600 -27.198500
H -11.307300 -10.656500 -24.065900
C -11.207300 -9.504200 -25.714000
H -10.094700 -11.865200 -25.416400
H -10.040400 -10.896100 -20.673900
C -9.914400 -10.013200 -26.239700
H -9.639800 -12.422300 -22.534200
C -9.596000 -10.677500 -21.461800
C -9.380100 -11.531100 -22.483900
C -9.364900 -11.342300 -25.784700
N -9.333300 -9.251300 -27.098300
N -9.072100 -9.447800 -21.743600
H -9.030000 -11.817100 -26.561200
H -9.004000 -7.652800 -28.698800
N -8.698800 -10.814400 -23.433300
C -8.541300 -9.583700 -22.936200
C -8.247100 -11.273800 -24.743100
N -8.245700 -7.822300 -29.053000
N -8.131900 -9.642200 -27.636900
H -8.103500 -8.898400 -23.386100
H -7.852600 -12.155000 -24.647200
H -7.799400 -7.266300 -29.568600
H -7.662100 -10.270000 -27.366200
H -7.555500 -10.674200 -25.065300
C -7.529800 -8.830500 -28.560000
O -6.378600 -9.101800 -28.933800
68
Fragment
H -12.396100 -11.240100 -35.485000
C -11.613400 -10.882300 -35.837400
H -11.567700 -12.009800 -37.492900
H -11.269700 -9.577600 -34.360300
C -11.114800 -11.340100 -37.034100
C -10.942700 -9.891800 -35.172200
C -9.951400 -10.819900 -37.564500
C -9.782600 -9.355100 -35.699700
H -9.632600 -11.139600 -38.378400
H -9.350300 -8.668800 -35.245800
C -9.250300 -9.821100 -36.893900
H -8.137600 -7.460100 -36.596300
H -8.083400 -8.429100 -31.853800
C -7.957400 -9.312000 -37.419600
H -7.682700 -6.903000 -33.714100
C -7.638900 -8.647800 -32.641700
C -7.423100 -7.794100 -33.663800
C -7.407800 -7.983000 -36.964600
N -7.376300 -10.074000 -38.278200
N -7.115100 -9.877400 -32.923500
H -7.073000 -7.508100 -37.741100
H -7.047000 -11.672500 -39.878700
N -6.741800 -8.510900 -34.613200
C -6.584300 -9.741600 -34.116100
C -6.290100 -8.051500 -35.923000
N -6.288600 -11.502900 -40.232900
N -6.174900 -9.683100 -38.816800
H -6.146500 -10.426800 -34.566000
H -5.895500 -7.170200 -35.827100
H -5.842300 -12.059000 -40.748500
H -5.705100 -9.055300 -38.546100
H -5.598400 -8.651100 -36.245200
C -5.572800 -10.494700 -39.739900
O -4.421600 -10.223500 -40.113700
H -14.353100 -8.085100 -24.305100
C -13.570400 -8.442900 -24.657500
H -13.524700 -7.315400 -26.313000
H -13.226700 -9.747700 -23.180400
C -13.071800 -7.985200 -25.854200
C -12.899700 -9.433500 -23.992300
C -11.908500 -8.505300 -26.384600
C -11.739600 -9.970200 -24.519800
H -11.589700 -8.185600 -27.198500
H -11.307300 -10.656500 -24.065900
C -11.207300 -9.504200 -25.714000
H -10.094700 -11.865200 -25.416400
H -10.040400 -10.896100 -20.673900
C -9.914400 -10.013200 -26.239700
H -9.639800 -12.422300 -22.534200
C -9.596000 -10.677500 -21.461800
C -9.380100 -11.531100 -22.483900
C -9.364900 -11.342300 -25.784700
N -9.333300 -9.251300 -27.098300
N -9.072100 -9.447800 -21.743600
H -9.030000 -11.817100 -26.561200
H -9.004000 -7.652800 -28.698800
N -8.698800 -10.814400 -23.433300
C -8.541300 -9.583700 -22.936200
C -8.247100 -11.273800 -24.743100
N -8.245700 -7.822300 -29.053000
N -8.131900 -9.642200 -27.636900
H -8.103500 -8.898400 -23.386100
H -7.852600 -12.155000 -24.647200
H -7.799400 -7.266300 -29.568600
H -7.662100 -10.270000 -27.366200
H -7.555500 -10.674200 -25.065300
C -7.529800 -8.830500 -28.560000
O -6.378600 -9.101800 -28.933800
