34
Fragment
H -12.396100 -11.240100 -35.485000
C -11.613400 -10.882300 -35.837400
H -11.567700 -12.009800 -37.492900
H -11.269700 -9.577600 -34.360300
C -11.114800 -11.340100 -37.034100
C -10.942700 -9.891800 -35.172200
C -9.951400 -10.819900 -37.564500
C -9.782600 -9.355100 -35.699700
H -9.632600 -11.139600 -38.378400
H -9.350300 -8.668800 -35.245800
C -9.250300 -9.821100 -36.893900
H -8.137600 -7.460100 -36.596300
H -8.083400 -8.429100 -31.853800
C -7.957400 -9.312000 -37.419600
H -7.682700 -6.903000 -33.714100
C -7.638900 -8.647800 -32.641700
C -7.423100 -7.794100 -33.663800
C -7.407800 -7.983000 -36.964600
N -7.376300 -10.074000 -38.278200
N -7.115100 -9.877400 -32.923500
H -7.073000 -7.508100 -37.741100
H -7.047000 -11.672500 -39.878700
N -6.741800 -8.510900 -34.613200
C -6.584300 -9.741600 -34.116100
C -6.290100 -8.051500 -35.923000
N -6.288600 -11.502900 -40.232900
N -6.174900 -9.683100 -38.816800
H -6.146500 -10.426800 -34.566000
H -5.895500 -7.170200 -35.827100
H -5.842300 -12.059000 -40.748500
H -5.705100 -9.055300 -38.546100
H -5.598400 -8.651100 -36.245200
C -5.572800 -10.494700 -39.739900
O -4.421600 -10.223500 -40.113700
34
Fragment
H -10.439000 -8.085100 -46.664900
C -9.656400 -8.442900 -47.017300
H -9.610600 -7.315400 -48.672800
H -9.312600 -9.747700 -45.540200
C -9.157700 -7.985200 -48.214000
C -8.985700 -9.433500 -46.352100
C -7.994400 -8.505300 -48.744400
C -7.825500 -9.970200 -46.879600
H -7.675600 -8.185600 -49.558300
H -7.393300 -10.656500 -46.425700
C -7.293300 -9.504200 -48.073800
H -6.180600 -11.865200 -47.776200
H -6.126400 -10.896100 -43.033700
C -6.000300 -10.013200 -48.599500
H -5.725700 -12.422300 -44.894000
C -5.681900 -10.677500 -43.821600
C -5.466000 -11.531100 -44.843700
C -5.450800 -11.342300 -48.144500
N -5.419200 -9.251300 -49.458100
N -5.158000 -9.447800 -44.103400
H -5.115900 -11.817100 -48.921000
H -5.089900 -7.652800 -51.058600
N -4.784800 -10.814400 -45.793100
C -4.627300 -9.583700 -45.296000
C -4.333000 -11.273800 -47.102900
N -4.331600 -7.822300 -51.412800
N -4.217800 -9.642200 -49.996800
H -4.189500 -8.898400 -45.745900
H -3.938500 -12.155000 -47.007000
H -3.885300 -7.266300 -51.928400
H -3.748000 -10.270000 -49.726000
H -3.641400 -10.674200 -47.425100
C -3.615700 -8.830500 -50.919800
O -2.464600 -9.101800 -51.293600
68
Fragment
H -12.396100 -11.240100 -35.485000
C -11.613400 -10.882300 -35.837400
H -11.567700 -12.009800 -37.492900
H -11.269700 -9.577600 -34.360300
C -11.114800 -11.340100 -37.034100
C -10.942700 -9.891800 -35.172200
C -9.951400 -10.819900 -37.564500
C -9.782600 -9.355100 -35.699700
H -9.632600 -11.139600 -38.378400
H -9.350300 -8.668800 -35.245800
C -9.250300 -9.821100 -36.893900
H -8.137600 -7.460100 -36.596300
H -8.083400 -8.429100 -31.853800
C -7.957400 -9.312000 -37.419600
H -7.682700 -6.903000 -33.714100
C -7.638900 -8.647800 -32.641700
C -7.423100 -7.794100 -33.663800
C -7.407800 -7.983000 -36.964600
N -7.376300 -10.074000 -38.278200
N -7.115100 -9.877400 -32.923500
H -7.073000 -7.508100 -37.741100
H -7.047000 -11.672500 -39.878700
N -6.741800 -8.510900 -34.613200
C -6.584300 -9.741600 -34.116100
C -6.290100 -8.051500 -35.923000
N -6.288600 -11.502900 -40.232900
N -6.174900 -9.683100 -38.816800
H -6.146500 -10.426800 -34.566000
H -5.895500 -7.170200 -35.827100
H -5.842300 -12.059000 -40.748500
H -5.705100 -9.055300 -38.546100
H -5.598400 -8.651100 -36.245200
C -5.572800 -10.494700 -39.739900
O -4.421600 -10.223500 -40.113700
H -10.439000 -8.085100 -46.664900
C -9.656400 -8.442900 -47.017300
H -9.610600 -7.315400 -48.672800
H -9.312600 -9.747700 -45.540200
C -9.157700 -7.985200 -48.214000
C -8.985700 -9.433500 -46.352100
C -7.994400 -8.505300 -48.744400
C -7.825500 -9.970200 -46.879600
H -7.675600 -8.185600 -49.558300
H -7.393300 -10.656500 -46.425700
C -7.293300 -9.504200 -48.073800
H -6.180600 -11.865200 -47.776200
H -6.126400 -10.896100 -43.033700
C -6.000300 -10.013200 -48.599500
H -5.725700 -12.422300 -44.894000
C -5.681900 -10.677500 -43.821600
C -5.466000 -11.531100 -44.843700
C -5.450800 -11.342300 -48.144500
N -5.419200 -9.251300 -49.458100
N -5.158000 -9.447800 -44.103400
H -5.115900 -11.817100 -48.921000
H -5.089900 -7.652800 -51.058600
N -4.784800 -10.814400 -45.793100
C -4.627300 -9.583700 -45.296000
C -4.333000 -11.273800 -47.102900
N -4.331600 -7.822300 -51.412800
N -4.217800 -9.642200 -49.996800
H -4.189500 -8.898400 -45.745900
H -3.938500 -12.155000 -47.007000
H -3.885300 -7.266300 -51.928400
H -3.748000 -10.270000 -49.726000
H -3.641400 -10.674200 -47.425100
C -3.615700 -8.830500 -50.919800
O -2.464600 -9.101800 -51.293600
