21
Fragment
O -28.450200 -11.801600 -36.002500
O -27.545900 -13.489200 -35.000500
N -27.509500 -12.376900 -35.503600
O -27.223000 -10.398300 -37.981600
N -26.360100 -9.837800 -37.321700
C -26.239200 -11.666100 -35.465300
O -25.907900 -8.722400 -37.552500
C -25.797000 -10.540000 -36.191300
N -25.378000 -12.040400 -34.541200
C -24.573000 -10.225400 -35.655600
N -24.362700 -11.149500 -34.688600
H -23.965200 -9.573400 -35.971000
H -23.634000 -12.999800 -32.842000
C -23.219900 -11.312700 -33.907300
N -23.104000 -12.332400 -33.057500
N -22.164900 -10.528700 -33.931400
N -21.885000 -12.245500 -32.456500
C -21.401400 -11.168500 -33.027200
N -20.050000 -10.733300 -32.688500
O -19.665700 -9.664900 -33.153900
O -19.400700 -11.458400 -31.956100
21
Fragment
O -32.719900 -9.115700 -38.934800
O -31.976300 -10.792100 -40.121300
N -31.840400 -9.717600 -39.549100
O -31.217700 -8.026400 -36.848100
N -30.657900 -7.350400 -37.684700
O -30.533700 -6.129600 -37.624600
C -30.530400 -9.091200 -39.575600
C -30.046800 -8.011100 -38.819600
N -29.665900 -9.482900 -40.489500
C -28.804600 -7.743600 -39.305200
N -28.614200 -8.644700 -40.298300
H -28.138800 -7.149400 -39.075000
H -27.923500 -10.468400 -42.254000
C -27.488000 -8.808900 -41.102500
N -27.378600 -9.829600 -41.961600
N -26.436300 -8.018800 -41.095300
N -26.177900 -9.730400 -42.585700
C -25.684300 -8.647800 -42.013700
N -24.349500 -8.204400 -42.362400
O -23.948700 -7.164200 -41.880300
O -23.703500 -8.918300 -43.134900
42
Fragment
O -28.450200 -11.801600 -36.002500
O -27.545900 -13.489200 -35.000500
N -27.509500 -12.376900 -35.503600
O -27.223000 -10.398300 -37.981600
N -26.360100 -9.837800 -37.321700
C -26.239200 -11.666100 -35.465300
O -25.907900 -8.722400 -37.552500
C -25.797000 -10.540000 -36.191300
N -25.378000 -12.040400 -34.541200
C -24.573000 -10.225400 -35.655600
N -24.362700 -11.149500 -34.688600
H -23.965200 -9.573400 -35.971000
H -23.634000 -12.999800 -32.842000
C -23.219900 -11.312700 -33.907300
N -23.104000 -12.332400 -33.057500
N -22.164900 -10.528700 -33.931400
N -21.885000 -12.245500 -32.456500
C -21.401400 -11.168500 -33.027200
N -20.050000 -10.733300 -32.688500
O -19.665700 -9.664900 -33.153900
O -19.400700 -11.458400 -31.956100
O -32.719900 -9.115700 -38.934800
O -31.976300 -10.792100 -40.121300
N -31.840400 -9.717600 -39.549100
O -31.217700 -8.026400 -36.848100
N -30.657900 -7.350400 -37.684700
O -30.533700 -6.129600 -37.624600
C -30.530400 -9.091200 -39.575600
C -30.046800 -8.011100 -38.819600
N -29.665900 -9.482900 -40.489500
C -28.804600 -7.743600 -39.305200
N -28.614200 -8.644700 -40.298300
H -28.138800 -7.149400 -39.075000
H -27.923500 -10.468400 -42.254000
C -27.488000 -8.808900 -41.102500
N -27.378600 -9.829600 -41.961600
N -26.436300 -8.018800 -41.095300
N -26.177900 -9.730400 -42.585700
C -25.684300 -8.647800 -42.013700
N -24.349500 -8.204400 -42.362400
O -23.948700 -7.164200 -41.880300
O -23.703500 -8.918300 -43.134900
