21
Fragment
O -28.450200 -11.801600 -36.002500
O -27.545900 -13.489200 -35.000500
N -27.509500 -12.376900 -35.503600
O -27.223000 -10.398300 -37.981600
N -26.360100 -9.837800 -37.321700
C -26.239200 -11.666100 -35.465300
O -25.907900 -8.722400 -37.552500
C -25.797000 -10.540000 -36.191300
N -25.378000 -12.040400 -34.541200
C -24.573000 -10.225400 -35.655600
N -24.362700 -11.149500 -34.688600
H -23.965200 -9.573400 -35.971000
H -23.634000 -12.999800 -32.842000
C -23.219900 -11.312700 -33.907300
N -23.104000 -12.332400 -33.057500
N -22.164900 -10.528700 -33.931400
N -21.885000 -12.245500 -32.456500
C -21.401400 -11.168500 -33.027200
N -20.050000 -10.733300 -32.688500
O -19.665700 -9.664900 -33.153900
O -19.400700 -11.458400 -31.956100
21
Fragment
O -17.701500 -14.032300 -30.618900
O -17.456300 -12.278200 -29.364300
N -17.055500 -13.318400 -29.846400
C -15.720700 -13.761800 -29.497700
N -15.227100 -14.844400 -30.069700
N -14.968700 -13.132800 -28.579300
N -14.026400 -14.943600 -29.445600
C -13.917000 -13.922900 -28.586500
H -13.481500 -15.582400 -29.738000
H -13.266200 -12.263400 -26.559000
N -12.790800 -13.758700 -27.782300
C -12.600400 -12.857600 -26.789200
N -11.739100 -14.596900 -27.973500
C -11.358200 -13.125100 -26.303600
C -10.874600 -14.205200 -27.059600
O -10.871300 -11.243600 -25.108600
N -10.747100 -12.464400 -25.168700
O -10.187300 -13.140400 -24.332100
N -9.564600 -14.831600 -27.033100
O -9.428700 -15.906100 -27.605300
O -8.685100 -14.229700 -26.418800
42
Fragment
O -28.450200 -11.801600 -36.002500
O -27.545900 -13.489200 -35.000500
N -27.509500 -12.376900 -35.503600
O -27.223000 -10.398300 -37.981600
N -26.360100 -9.837800 -37.321700
C -26.239200 -11.666100 -35.465300
O -25.907900 -8.722400 -37.552500
C -25.797000 -10.540000 -36.191300
N -25.378000 -12.040400 -34.541200
C -24.573000 -10.225400 -35.655600
N -24.362700 -11.149500 -34.688600
H -23.965200 -9.573400 -35.971000
H -23.634000 -12.999800 -32.842000
C -23.219900 -11.312700 -33.907300
N -23.104000 -12.332400 -33.057500
N -22.164900 -10.528700 -33.931400
N -21.885000 -12.245500 -32.456500
C -21.401400 -11.168500 -33.027200
N -20.050000 -10.733300 -32.688500
O -19.665700 -9.664900 -33.153900
O -19.400700 -11.458400 -31.956100
O -17.701500 -14.032300 -30.618900
O -17.456300 -12.278200 -29.364300
N -17.055500 -13.318400 -29.846400
C -15.720700 -13.761800 -29.497700
N -15.227100 -14.844400 -30.069700
N -14.968700 -13.132800 -28.579300
N -14.026400 -14.943600 -29.445600
C -13.917000 -13.922900 -28.586500
H -13.481500 -15.582400 -29.738000
H -13.266200 -12.263400 -26.559000
N -12.790800 -13.758700 -27.782300
C -12.600400 -12.857600 -26.789200
N -11.739100 -14.596900 -27.973500
C -11.358200 -13.125100 -26.303600
C -10.874600 -14.205200 -27.059600
O -10.871300 -11.243600 -25.108600
N -10.747100 -12.464400 -25.168700
O -10.187300 -13.140400 -24.332100
N -9.564600 -14.831600 -27.033100
O -9.428700 -15.906100 -27.605300
O -8.685100 -14.229700 -26.418800
