21
Fragment
O -28.450200 -11.801600 -36.002500
O -27.545900 -13.489200 -35.000500
N -27.509500 -12.376900 -35.503600
O -27.223000 -10.398300 -37.981600
N -26.360100 -9.837800 -37.321700
C -26.239200 -11.666100 -35.465300
O -25.907900 -8.722400 -37.552500
C -25.797000 -10.540000 -36.191300
N -25.378000 -12.040400 -34.541200
C -24.573000 -10.225400 -35.655600
N -24.362700 -11.149500 -34.688600
H -23.965200 -9.573400 -35.971000
H -23.634000 -12.999800 -32.842000
C -23.219900 -11.312700 -33.907300
N -23.104000 -12.332400 -33.057500
N -22.164900 -10.528700 -33.931400
N -21.885000 -12.245500 -32.456500
C -21.401400 -11.168500 -33.027200
N -20.050000 -10.733300 -32.688500
O -19.665700 -9.664900 -33.153900
O -19.400700 -11.458400 -31.956100
21
Fragment
O -17.701500 -8.918300 -30.618900
O -17.456300 -7.164200 -29.364300
N -17.055500 -8.204400 -29.846400
C -15.720700 -8.647800 -29.497700
N -15.227100 -9.730400 -30.069700
N -14.968700 -8.018800 -28.579300
N -14.026400 -9.829600 -29.445600
C -13.917000 -8.808900 -28.586500
H -13.481500 -10.468400 -29.738000
H -13.266200 -7.149400 -26.559000
N -12.790800 -8.644700 -27.782300
C -12.600400 -7.743600 -26.789200
N -11.739100 -9.482900 -27.973500
C -11.358200 -8.011100 -26.303600
C -10.874600 -9.091200 -27.059600
O -10.871300 -6.129600 -25.108600
N -10.747100 -7.350400 -25.168700
O -10.187300 -8.026400 -24.332100
N -9.564600 -9.717600 -27.033100
O -9.428700 -10.792100 -27.605300
O -8.685100 -9.115700 -26.418800
42
Fragment
O -28.450200 -11.801600 -36.002500
O -27.545900 -13.489200 -35.000500
N -27.509500 -12.376900 -35.503600
O -27.223000 -10.398300 -37.981600
N -26.360100 -9.837800 -37.321700
C -26.239200 -11.666100 -35.465300
O -25.907900 -8.722400 -37.552500
C -25.797000 -10.540000 -36.191300
N -25.378000 -12.040400 -34.541200
C -24.573000 -10.225400 -35.655600
N -24.362700 -11.149500 -34.688600
H -23.965200 -9.573400 -35.971000
H -23.634000 -12.999800 -32.842000
C -23.219900 -11.312700 -33.907300
N -23.104000 -12.332400 -33.057500
N -22.164900 -10.528700 -33.931400
N -21.885000 -12.245500 -32.456500
C -21.401400 -11.168500 -33.027200
N -20.050000 -10.733300 -32.688500
O -19.665700 -9.664900 -33.153900
O -19.400700 -11.458400 -31.956100
O -17.701500 -8.918300 -30.618900
O -17.456300 -7.164200 -29.364300
N -17.055500 -8.204400 -29.846400
C -15.720700 -8.647800 -29.497700
N -15.227100 -9.730400 -30.069700
N -14.968700 -8.018800 -28.579300
N -14.026400 -9.829600 -29.445600
C -13.917000 -8.808900 -28.586500
H -13.481500 -10.468400 -29.738000
H -13.266200 -7.149400 -26.559000
N -12.790800 -8.644700 -27.782300
C -12.600400 -7.743600 -26.789200
N -11.739100 -9.482900 -27.973500
C -11.358200 -8.011100 -26.303600
C -10.874600 -9.091200 -27.059600
O -10.871300 -6.129600 -25.108600
N -10.747100 -7.350400 -25.168700
O -10.187300 -8.026400 -24.332100
N -9.564600 -9.717600 -27.033100
O -9.428700 -10.792100 -27.605300
O -8.685100 -9.115700 -26.418800
