20
Fragment
O -25.490000 -11.118700 -20.739600
O -25.310300 -10.616400 -18.626900
N -24.878700 -11.074900 -19.682900
C -23.535000 -11.631300 -19.678100
N -23.066100 -12.314600 -20.736200
N -22.749100 -11.478200 -18.633300
C -21.859800 -12.622900 -20.303200
N -21.641900 -12.151100 -19.062700
N -21.328700 -13.796800 -22.287300
O -21.177000 -15.014200 -24.681000
N -20.939700 -13.356500 -21.059900
H -20.722400 -12.556200 -17.490600
N -20.460500 -12.235200 -18.325500
C -20.219800 -14.352800 -22.698200
N -20.163800 -15.002900 -23.996100
H -20.156700 -11.375300 -18.216800
C -19.627800 -13.670600 -20.841200
N -19.149600 -14.315000 -21.879900
H -19.137000 -13.456000 -20.057300
O -19.085900 -15.504200 -24.308100
20
Fragment
H -24.573600 -8.605000 -21.992300
C -23.865300 -8.153900 -21.547300
H -23.697400 -4.638200 -22.742600
N -23.611000 -8.238700 -20.259600
O -23.306800 -8.540700 -27.139500
N -22.974000 -7.330600 -22.147000
N -22.945500 -4.512900 -23.244400
C -22.868400 -6.983100 -23.505100
N -22.847300 -7.846400 -24.504800
N -22.817100 -5.711900 -23.939200
C -22.762600 -6.997500 -25.545700
N -22.729500 -5.704900 -25.289700
N -22.717700 -7.495500 -26.908400
C -22.547600 -7.418000 -20.140500
O -22.313700 -7.788700 -17.895600
H -22.307300 -4.420400 -22.716900
N -22.102000 -6.828900 -21.224200
O -22.092700 -6.843500 -27.738200
N -21.889800 -7.177200 -18.864200
O -20.963400 -6.382400 -18.849300
40
Fragment
O -25.490000 -11.118700 -20.739600
O -25.310300 -10.616400 -18.626900
N -24.878700 -11.074900 -19.682900
C -23.535000 -11.631300 -19.678100
N -23.066100 -12.314600 -20.736200
N -22.749100 -11.478200 -18.633300
C -21.859800 -12.622900 -20.303200
N -21.641900 -12.151100 -19.062700
N -21.328700 -13.796800 -22.287300
O -21.177000 -15.014200 -24.681000
N -20.939700 -13.356500 -21.059900
H -20.722400 -12.556200 -17.490600
N -20.460500 -12.235200 -18.325500
C -20.219800 -14.352800 -22.698200
N -20.163800 -15.002900 -23.996100
H -20.156700 -11.375300 -18.216800
C -19.627800 -13.670600 -20.841200
N -19.149600 -14.315000 -21.879900
H -19.137000 -13.456000 -20.057300
O -19.085900 -15.504200 -24.308100
H -24.573600 -8.605000 -21.992300
C -23.865300 -8.153900 -21.547300
H -23.697400 -4.638200 -22.742600
N -23.611000 -8.238700 -20.259600
O -23.306800 -8.540700 -27.139500
N -22.974000 -7.330600 -22.147000
N -22.945500 -4.512900 -23.244400
C -22.868400 -6.983100 -23.505100
N -22.847300 -7.846400 -24.504800
N -22.817100 -5.711900 -23.939200
C -22.762600 -6.997500 -25.545700
N -22.729500 -5.704900 -25.289700
N -22.717700 -7.495500 -26.908400
C -22.547600 -7.418000 -20.140500
O -22.313700 -7.788700 -17.895600
H -22.307300 -4.420400 -22.716900
N -22.102000 -6.828900 -21.224200
O -22.092700 -6.843500 -27.738200
N -21.889800 -7.177200 -18.864200
O -20.963400 -6.382400 -18.849300
