20
Fragment
O -25.490000 -11.118700 -20.739600
O -25.310300 -10.616400 -18.626900
N -24.878700 -11.074900 -19.682900
C -23.535000 -11.631300 -19.678100
N -23.066100 -12.314600 -20.736200
N -22.749100 -11.478200 -18.633300
C -21.859800 -12.622900 -20.303200
N -21.641900 -12.151100 -19.062700
N -21.328700 -13.796800 -22.287300
O -21.177000 -15.014200 -24.681000
N -20.939700 -13.356500 -21.059900
H -20.722400 -12.556200 -17.490600
N -20.460500 -12.235200 -18.325500
C -20.219800 -14.352800 -22.698200
N -20.163800 -15.002900 -23.996100
H -20.156700 -11.375300 -18.216800
C -19.627800 -13.670600 -20.841200
N -19.149600 -14.315000 -21.879900
H -19.137000 -13.456000 -20.057300
O -19.085900 -15.504200 -24.308100
20
Fragment
O -17.495300 -11.118700 -20.739600
O -17.315600 -10.616400 -18.626900
N -16.884000 -11.074900 -19.682900
C -15.540300 -11.631300 -19.678100
N -15.071400 -12.314600 -20.736200
N -14.754400 -11.478200 -18.633300
C -13.865100 -12.622900 -20.303200
N -13.647200 -12.151100 -19.062700
N -13.334000 -13.796800 -22.287300
O -13.182300 -15.014200 -24.681000
N -12.945000 -13.356500 -21.059900
H -12.727700 -12.556200 -17.490600
N -12.465800 -12.235200 -18.325500
C -12.225100 -14.352800 -22.698200
N -12.169100 -15.002900 -23.996100
H -12.162000 -11.375300 -18.216800
C -11.633100 -13.670600 -20.841200
N -11.154900 -14.315000 -21.879900
H -11.142300 -13.456000 -20.057300
O -11.091200 -15.504200 -24.308100
40
Fragment
O -25.490000 -11.118700 -20.739600
O -25.310300 -10.616400 -18.626900
N -24.878700 -11.074900 -19.682900
C -23.535000 -11.631300 -19.678100
N -23.066100 -12.314600 -20.736200
N -22.749100 -11.478200 -18.633300
C -21.859800 -12.622900 -20.303200
N -21.641900 -12.151100 -19.062700
N -21.328700 -13.796800 -22.287300
O -21.177000 -15.014200 -24.681000
N -20.939700 -13.356500 -21.059900
H -20.722400 -12.556200 -17.490600
N -20.460500 -12.235200 -18.325500
C -20.219800 -14.352800 -22.698200
N -20.163800 -15.002900 -23.996100
H -20.156700 -11.375300 -18.216800
C -19.627800 -13.670600 -20.841200
N -19.149600 -14.315000 -21.879900
H -19.137000 -13.456000 -20.057300
O -19.085900 -15.504200 -24.308100
O -17.495300 -11.118700 -20.739600
O -17.315600 -10.616400 -18.626900
N -16.884000 -11.074900 -19.682900
C -15.540300 -11.631300 -19.678100
N -15.071400 -12.314600 -20.736200
N -14.754400 -11.478200 -18.633300
C -13.865100 -12.622900 -20.303200
N -13.647200 -12.151100 -19.062700
N -13.334000 -13.796800 -22.287300
O -13.182300 -15.014200 -24.681000
N -12.945000 -13.356500 -21.059900
H -12.727700 -12.556200 -17.490600
N -12.465800 -12.235200 -18.325500
C -12.225100 -14.352800 -22.698200
N -12.169100 -15.002900 -23.996100
H -12.162000 -11.375300 -18.216800
C -11.633100 -13.670600 -20.841200
N -11.154900 -14.315000 -21.879900
H -11.142300 -13.456000 -20.057300
O -11.091200 -15.504200 -24.308100
