16
Fragment
H -16.202800 -8.081900 -23.146600
H -16.099800 -6.261500 -24.758400
C -15.428000 -7.766800 -23.554000
C -15.383100 -6.762100 -24.441200
N -14.170300 -8.263300 -23.331800
N -14.063200 -6.623900 -24.785800
H -13.761400 -6.052700 -25.392800
C -13.389700 -7.533600 -24.103100
C -11.934700 -7.712400 -24.202900
H -11.562900 -9.193300 -22.913100
N -11.261100 -8.622100 -23.520200
N -11.154000 -6.982700 -24.974200
C -9.941200 -8.483900 -23.864700
C -9.896400 -7.479200 -24.752000
H -9.224500 -8.984500 -23.547500
H -9.121500 -7.164100 -25.159300
15
Fragment
H -13.930700 -7.904000 -28.213900
H -13.680300 -6.304200 -29.840200
O -13.267700 -9.756900 -26.582800
C -13.091300 -7.755600 -28.585800
C -12.945700 -6.800700 -29.561600
C -12.186900 -9.544500 -27.096400
C -12.010800 -8.501700 -28.144700
C -11.725700 -6.581200 -30.120400
H -11.629000 -5.935300 -30.782200
H -11.221900 -10.766700 -26.170500
O -11.109100 -10.178700 -26.782400
C -10.766100 -8.260800 -28.729200
C -10.636600 -7.309900 -29.709800
H -10.022000 -8.746100 -28.453800
H -9.806700 -7.157500 -30.097800
31
Fragment
H -16.202800 -8.081900 -23.146600
H -16.099800 -6.261500 -24.758400
C -15.428000 -7.766800 -23.554000
C -15.383100 -6.762100 -24.441200
N -14.170300 -8.263300 -23.331800
N -14.063200 -6.623900 -24.785800
H -13.761400 -6.052700 -25.392800
C -13.389700 -7.533600 -24.103100
C -11.934700 -7.712400 -24.202900
H -11.562900 -9.193300 -22.913100
N -11.261100 -8.622100 -23.520200
N -11.154000 -6.982700 -24.974200
C -9.941200 -8.483900 -23.864700
C -9.896400 -7.479200 -24.752000
H -9.224500 -8.984500 -23.547500
H -9.121500 -7.164100 -25.159300
H -13.930700 -7.904000 -28.213900
H -13.680300 -6.304200 -29.840200
O -13.267700 -9.756900 -26.582800
C -13.091300 -7.755600 -28.585800
C -12.945700 -6.800700 -29.561600
C -12.186900 -9.544500 -27.096400
C -12.010800 -8.501700 -28.144700
C -11.725700 -6.581200 -30.120400
H -11.629000 -5.935300 -30.782200
H -11.221900 -10.766700 -26.170500
O -11.109100 -10.178700 -26.782400
C -10.766100 -8.260800 -28.729200
C -10.636600 -7.309900 -29.709800
H -10.022000 -8.746100 -28.453800
H -9.806700 -7.157500 -30.097800
