16
Fragment
H -16.202800 -8.081900 -23.146600
H -16.099800 -6.261500 -24.758400
C -15.428000 -7.766800 -23.554000
C -15.383100 -6.762100 -24.441200
N -14.170300 -8.263300 -23.331800
N -14.063200 -6.623900 -24.785800
H -13.761400 -6.052700 -25.392800
C -13.389700 -7.533600 -24.103100
C -11.934700 -7.712400 -24.202900
H -11.562900 -9.193300 -22.913100
N -11.261100 -8.622100 -23.520200
N -11.154000 -6.982700 -24.974200
C -9.941200 -8.483900 -23.864700
C -9.896400 -7.479200 -24.752000
H -9.224500 -8.984500 -23.547500
H -9.121500 -7.164100 -25.159300
15
Fragment
H -15.517600 -13.170500 -18.208100
H -15.302400 -11.581900 -19.852100
C -14.687700 -13.018100 -18.596200
C -14.558200 -12.067200 -19.576800
O -14.215200 -10.149300 -21.523500
H -14.102400 -9.561300 -22.135400
H -13.695300 -14.392700 -17.523800
C -13.598600 -13.746800 -18.185600
C -13.313500 -11.826300 -20.161300
C -13.137500 -10.783500 -21.209500
C -12.378600 -13.527300 -18.744300
C -12.233100 -12.572400 -19.720100
O -12.056700 -10.571100 -21.723200
H -11.644000 -14.023800 -18.465800
H -11.393600 -12.424000 -20.092100
31
Fragment
H -16.202800 -8.081900 -23.146600
H -16.099800 -6.261500 -24.758400
C -15.428000 -7.766800 -23.554000
C -15.383100 -6.762100 -24.441200
N -14.170300 -8.263300 -23.331800
N -14.063200 -6.623900 -24.785800
H -13.761400 -6.052700 -25.392800
C -13.389700 -7.533600 -24.103100
C -11.934700 -7.712400 -24.202900
H -11.562900 -9.193300 -22.913100
N -11.261100 -8.622100 -23.520200
N -11.154000 -6.982700 -24.974200
C -9.941200 -8.483900 -23.864700
C -9.896400 -7.479200 -24.752000
H -9.224500 -8.984500 -23.547500
H -9.121500 -7.164100 -25.159300
H -15.517600 -13.170500 -18.208100
H -15.302400 -11.581900 -19.852100
C -14.687700 -13.018100 -18.596200
C -14.558200 -12.067200 -19.576800
O -14.215200 -10.149300 -21.523500
H -14.102400 -9.561300 -22.135400
H -13.695300 -14.392700 -17.523800
C -13.598600 -13.746800 -18.185600
C -13.313500 -11.826300 -20.161300
C -13.137500 -10.783500 -21.209500
C -12.378600 -13.527300 -18.744300
C -12.233100 -12.572400 -19.720100
O -12.056700 -10.571100 -21.723200
H -11.644000 -14.023800 -18.465800
H -11.393600 -12.424000 -20.092100
