36
Fragment
H -8.475800 -9.512600 -11.256000
H -8.128800 -7.994800 -11.047400
H -7.822900 -11.101900 -9.738700
C -7.788000 -8.898100 -10.954900
O -7.482600 -9.156300 -9.582800
C -7.102200 -10.530300 -9.431300
H -6.944500 -10.721900 -8.494000
H -6.780600 -8.933200 -12.744100
C -6.553500 -9.062800 -11.810400
H -6.415600 -11.899100 -18.432400
H -6.275100 -11.817500 -20.744400
N -6.007300 -10.404900 -11.613900
H -5.891100 -8.398700 -11.564100
C -5.845300 -10.826000 -10.227100
H -5.658200 -11.777500 -10.196800
C -5.614000 -12.097500 -18.859500
C -5.526200 -12.045900 -20.241600
C -5.477600 -11.112000 -12.617000
N -5.434700 -10.687700 -13.841800
H -5.122200 -11.949900 -12.427100
H -5.093100 -10.358300 -9.831900
N -5.024000 -11.244500 -16.068300
C -4.993700 -11.593700 -14.796500
N -4.570100 -12.404700 -16.697300
N -4.563300 -12.879300 -14.548000
C -4.491900 -12.449000 -18.118200
C -4.326400 -12.333100 -20.881400
C -4.320000 -13.355100 -15.766500
H -4.265200 -12.271900 -21.807100
H -3.958900 -14.891300 -16.891200
H -3.909500 -15.198100 -15.414700
N -3.846500 -14.586900 -16.059100
C -3.296300 -12.774900 -18.749200
C -3.220500 -12.710500 -20.135000
H -2.556000 -13.033200 -18.249600
H -2.423700 -12.921400 -20.564100
36
Fragment
H -11.066500 -11.390100 -2.377600
H -10.719400 -9.872400 -2.169000
H -10.413600 -12.979500 -0.860300
C -10.378700 -10.775700 -2.076500
O -10.073200 -11.033800 -0.704400
C -9.692900 -12.407900 -0.552900
H -9.535200 -12.599500 0.384400
H -9.371200 -10.810800 -3.865700
C -9.144200 -10.940300 -2.932000
H -9.006300 -13.776700 -9.554000
H -8.865800 -13.695000 -11.866000
N -8.597900 -12.282500 -2.735500
H -8.481800 -10.276200 -2.685700
C -8.435900 -12.703600 -1.348700
H -8.248800 -13.655000 -1.318400
C -8.204700 -13.975100 -9.981100
C -8.116900 -13.923500 -11.363200
C -8.068200 -12.989500 -3.738600
N -8.025300 -12.565300 -4.963400
H -7.712900 -13.827500 -3.548700
H -7.683800 -12.235800 -0.953500
N -7.614700 -13.122100 -7.189900
C -7.584300 -13.471200 -5.918100
N -7.160800 -14.282200 -7.818900
N -7.153900 -14.756800 -5.669600
C -7.082500 -14.326600 -9.239800
C -6.917100 -14.210600 -12.003000
C -6.910700 -15.232600 -6.888100
H -6.855900 -14.149400 -12.928700
H -6.549500 -16.768800 -8.012800
H -6.500100 -17.075700 -6.536300
N -6.437200 -16.464500 -7.180700
C -5.887000 -14.652400 -9.870800
C -5.811100 -14.588000 -11.256600
H -5.146700 -14.910700 -9.371200
H -5.014300 -14.798900 -11.685700
72
Fragment
H -8.475800 -9.512600 -11.256000
H -8.128800 -7.994800 -11.047400
H -7.822900 -11.101900 -9.738700
C -7.788000 -8.898100 -10.954900
O -7.482600 -9.156300 -9.582800
C -7.102200 -10.530300 -9.431300
H -6.944500 -10.721900 -8.494000
H -6.780600 -8.933200 -12.744100
C -6.553500 -9.062800 -11.810400
H -6.415600 -11.899100 -18.432400
H -6.275100 -11.817500 -20.744400
N -6.007300 -10.404900 -11.613900
H -5.891100 -8.398700 -11.564100
C -5.845300 -10.826000 -10.227100
H -5.658200 -11.777500 -10.196800
C -5.614000 -12.097500 -18.859500
C -5.526200 -12.045900 -20.241600
C -5.477600 -11.112000 -12.617000
N -5.434700 -10.687700 -13.841800
H -5.122200 -11.949900 -12.427100
H -5.093100 -10.358300 -9.831900
N -5.024000 -11.244500 -16.068300
C -4.993700 -11.593700 -14.796500
N -4.570100 -12.404700 -16.697300
N -4.563300 -12.879300 -14.548000
C -4.491900 -12.449000 -18.118200
C -4.326400 -12.333100 -20.881400
C -4.320000 -13.355100 -15.766500
H -4.265200 -12.271900 -21.807100
H -3.958900 -14.891300 -16.891200
H -3.909500 -15.198100 -15.414700
N -3.846500 -14.586900 -16.059100
C -3.296300 -12.774900 -18.749200
C -3.220500 -12.710500 -20.135000
H -2.556000 -13.033200 -18.249600
H -2.423700 -12.921400 -20.564100
H -11.066500 -11.390100 -2.377600
H -10.719400 -9.872400 -2.169000
H -10.413600 -12.979500 -0.860300
C -10.378700 -10.775700 -2.076500
O -10.073200 -11.033800 -0.704400
C -9.692900 -12.407900 -0.552900
H -9.535200 -12.599500 0.384400
H -9.371200 -10.810800 -3.865700
C -9.144200 -10.940300 -2.932000
H -9.006300 -13.776700 -9.554000
H -8.865800 -13.695000 -11.866000
N -8.597900 -12.282500 -2.735500
H -8.481800 -10.276200 -2.685700
C -8.435900 -12.703600 -1.348700
H -8.248800 -13.655000 -1.318400
C -8.204700 -13.975100 -9.981100
C -8.116900 -13.923500 -11.363200
C -8.068200 -12.989500 -3.738600
N -8.025300 -12.565300 -4.963400
H -7.712900 -13.827500 -3.548700
H -7.683800 -12.235800 -0.953500
N -7.614700 -13.122100 -7.189900
C -7.584300 -13.471200 -5.918100
N -7.160800 -14.282200 -7.818900
N -7.153900 -14.756800 -5.669600
C -7.082500 -14.326600 -9.239800
C -6.917100 -14.210600 -12.003000
C -6.910700 -15.232600 -6.888100
H -6.855900 -14.149400 -12.928700
H -6.549500 -16.768800 -8.012800
H -6.500100 -17.075700 -6.536300
N -6.437200 -16.464500 -7.180700
C -5.887000 -14.652400 -9.870800
C -5.811100 -14.588000 -11.256600
H -5.146700 -14.910700 -9.371200
H -5.014300 -14.798900 -11.685700
