36
Fragment
H -8.475800 -9.512600 -11.256000
H -8.128800 -7.994800 -11.047400
H -7.822900 -11.101900 -9.738700
C -7.788000 -8.898100 -10.954900
O -7.482600 -9.156300 -9.582800
C -7.102200 -10.530300 -9.431300
H -6.944500 -10.721900 -8.494000
H -6.780600 -8.933200 -12.744100
C -6.553500 -9.062800 -11.810400
H -6.415600 -11.899100 -18.432400
H -6.275100 -11.817500 -20.744400
N -6.007300 -10.404900 -11.613900
H -5.891100 -8.398700 -11.564100
C -5.845300 -10.826000 -10.227100
H -5.658200 -11.777500 -10.196800
C -5.614000 -12.097500 -18.859500
C -5.526200 -12.045900 -20.241600
C -5.477600 -11.112000 -12.617000
N -5.434700 -10.687700 -13.841800
H -5.122200 -11.949900 -12.427100
H -5.093100 -10.358300 -9.831900
N -5.024000 -11.244500 -16.068300
C -4.993700 -11.593700 -14.796500
N -4.570100 -12.404700 -16.697300
N -4.563300 -12.879300 -14.548000
C -4.491900 -12.449000 -18.118200
C -4.326400 -12.333100 -20.881400
C -4.320000 -13.355100 -15.766500
H -4.265200 -12.271900 -21.807100
H -3.958900 -14.891300 -16.891200
H -3.909500 -15.198100 -15.414700
N -3.846500 -14.586900 -16.059100
C -3.296300 -12.774900 -18.749200
C -3.220500 -12.710500 -20.135000
H -2.556000 -13.033200 -18.249600
H -2.423700 -12.921400 -20.564100
36
Fragment
H -10.231000 -15.452600 -14.949400
H -10.098700 -15.340800 -17.264000
C -9.434200 -15.663500 -15.378600
C -9.358400 -15.599100 -16.764400
N -8.808200 -13.787100 -19.454500
H -8.745200 -13.175900 -20.098900
H -8.695800 -13.482700 -18.622400
H -8.389500 -16.102100 -13.706500
C -8.334700 -15.018900 -19.747100
C -8.328300 -16.040900 -14.632200
C -8.162800 -15.925000 -17.395400
N -8.091400 -15.494700 -20.965600
N -8.084600 -15.969300 -18.816300
C -7.661000 -16.780300 -20.717100
N -7.630700 -17.129500 -19.445300
H -7.561600 -18.015700 -25.681700
H -7.532500 -16.424100 -23.086500
N -7.220000 -17.686300 -21.671800
C -7.177100 -17.262000 -22.896600
C -7.128500 -16.328100 -15.272000
C -7.040600 -16.276500 -16.654100
H -6.996500 -16.596500 -25.316800
C -6.809400 -17.547900 -25.286500
H -6.763500 -19.975300 -23.949500
N -6.647400 -17.969100 -23.899700
H -6.379600 -16.556500 -14.769200
H -6.239100 -16.474800 -17.081200
C -6.101200 -19.311200 -23.703200
H -5.874100 -19.440800 -22.769500
H -5.710200 -17.652100 -27.019600
C -5.552500 -17.843600 -26.082300
O -5.172100 -19.217700 -25.930800
C -4.866700 -19.475900 -24.558700
H -4.831800 -17.272100 -25.774900
H -4.525900 -20.379200 -24.466200
H -4.178900 -18.861400 -24.257600
72
Fragment
H -8.475800 -9.512600 -11.256000
H -8.128800 -7.994800 -11.047400
H -7.822900 -11.101900 -9.738700
C -7.788000 -8.898100 -10.954900
O -7.482600 -9.156300 -9.582800
C -7.102200 -10.530300 -9.431300
H -6.944500 -10.721900 -8.494000
H -6.780600 -8.933200 -12.744100
C -6.553500 -9.062800 -11.810400
H -6.415600 -11.899100 -18.432400
H -6.275100 -11.817500 -20.744400
N -6.007300 -10.404900 -11.613900
H -5.891100 -8.398700 -11.564100
C -5.845300 -10.826000 -10.227100
H -5.658200 -11.777500 -10.196800
C -5.614000 -12.097500 -18.859500
C -5.526200 -12.045900 -20.241600
C -5.477600 -11.112000 -12.617000
N -5.434700 -10.687700 -13.841800
H -5.122200 -11.949900 -12.427100
H -5.093100 -10.358300 -9.831900
N -5.024000 -11.244500 -16.068300
C -4.993700 -11.593700 -14.796500
N -4.570100 -12.404700 -16.697300
N -4.563300 -12.879300 -14.548000
C -4.491900 -12.449000 -18.118200
C -4.326400 -12.333100 -20.881400
C -4.320000 -13.355100 -15.766500
H -4.265200 -12.271900 -21.807100
H -3.958900 -14.891300 -16.891200
H -3.909500 -15.198100 -15.414700
N -3.846500 -14.586900 -16.059100
C -3.296300 -12.774900 -18.749200
C -3.220500 -12.710500 -20.135000
H -2.556000 -13.033200 -18.249600
H -2.423700 -12.921400 -20.564100
H -10.231000 -15.452600 -14.949400
H -10.098700 -15.340800 -17.264000
C -9.434200 -15.663500 -15.378600
C -9.358400 -15.599100 -16.764400
N -8.808200 -13.787100 -19.454500
H -8.745200 -13.175900 -20.098900
H -8.695800 -13.482700 -18.622400
H -8.389500 -16.102100 -13.706500
C -8.334700 -15.018900 -19.747100
C -8.328300 -16.040900 -14.632200
C -8.162800 -15.925000 -17.395400
N -8.091400 -15.494700 -20.965600
N -8.084600 -15.969300 -18.816300
C -7.661000 -16.780300 -20.717100
N -7.630700 -17.129500 -19.445300
H -7.561600 -18.015700 -25.681700
H -7.532500 -16.424100 -23.086500
N -7.220000 -17.686300 -21.671800
C -7.177100 -17.262000 -22.896600
C -7.128500 -16.328100 -15.272000
C -7.040600 -16.276500 -16.654100
H -6.996500 -16.596500 -25.316800
C -6.809400 -17.547900 -25.286500
H -6.763500 -19.975300 -23.949500
N -6.647400 -17.969100 -23.899700
H -6.379600 -16.556500 -14.769200
H -6.239100 -16.474800 -17.081200
C -6.101200 -19.311200 -23.703200
H -5.874100 -19.440800 -22.769500
H -5.710200 -17.652100 -27.019600
C -5.552500 -17.843600 -26.082300
O -5.172100 -19.217700 -25.930800
C -4.866700 -19.475900 -24.558700
H -4.831800 -17.272100 -25.774900
H -4.525900 -20.379200 -24.466200
H -4.178900 -18.861400 -24.257600
