36
Fragment
H -8.475800 -9.512600 -11.256000
H -8.128800 -7.994800 -11.047400
H -7.822900 -11.101900 -9.738700
C -7.788000 -8.898100 -10.954900
O -7.482600 -9.156300 -9.582800
C -7.102200 -10.530300 -9.431300
H -6.944500 -10.721900 -8.494000
H -6.780600 -8.933200 -12.744100
C -6.553500 -9.062800 -11.810400
H -6.415600 -11.899100 -18.432400
H -6.275100 -11.817500 -20.744400
N -6.007300 -10.404900 -11.613900
H -5.891100 -8.398700 -11.564100
C -5.845300 -10.826000 -10.227100
H -5.658200 -11.777500 -10.196800
C -5.614000 -12.097500 -18.859500
C -5.526200 -12.045900 -20.241600
C -5.477600 -11.112000 -12.617000
N -5.434700 -10.687700 -13.841800
H -5.122200 -11.949900 -12.427100
H -5.093100 -10.358300 -9.831900
N -5.024000 -11.244500 -16.068300
C -4.993700 -11.593700 -14.796500
N -4.570100 -12.404700 -16.697300
N -4.563300 -12.879300 -14.548000
C -4.491900 -12.449000 -18.118200
C -4.326400 -12.333100 -20.881400
C -4.320000 -13.355100 -15.766500
H -4.265200 -12.271900 -21.807100
H -3.958900 -14.891300 -16.891200
H -3.909500 -15.198100 -15.414700
N -3.846500 -14.586900 -16.059100
C -3.296300 -12.774900 -18.749200
C -3.220500 -12.710500 -20.135000
H -2.556000 -13.033200 -18.249600
H -2.423700 -12.921400 -20.564100
36
Fragment
H -7.460900 -10.236600 2.807300
H -7.328500 -10.124800 0.492800
C -6.664100 -10.447600 2.378200
C -6.588200 -10.383100 0.992400
N -6.038000 -8.571100 -1.697700
H -5.975100 -7.959900 -2.342100
H -5.925700 -8.266800 -0.865600
H -5.619300 -10.886100 4.050300
C -5.564500 -9.802900 -1.990300
C -5.558100 -10.824900 3.124600
C -5.392700 -10.709000 0.361400
N -5.321300 -10.278700 -3.208800
N -5.314400 -10.753400 -1.059500
C -4.890900 -11.564300 -2.960300
N -4.860500 -11.913500 -1.688500
H -4.791400 -12.799800 -7.924900
H -4.762300 -11.208100 -5.329700
N -4.449900 -12.470300 -3.915000
C -4.407000 -12.046000 -5.139800
C -4.358300 -11.112100 2.484800
C -4.270500 -11.060500 1.102700
H -4.226400 -11.380600 -7.560000
C -4.039300 -12.332000 -7.529700
H -3.993400 -14.759300 -6.192700
N -3.877300 -12.753100 -6.142900
H -3.609400 -11.340500 2.987600
H -3.468900 -11.258900 0.675600
C -3.331000 -14.095300 -5.946400
H -3.104000 -14.224800 -5.012700
H -2.940000 -12.436100 -9.262800
C -2.782300 -12.627700 -8.325500
O -2.402000 -14.001800 -8.174000
C -2.096500 -14.259900 -6.801900
H -2.061600 -12.056100 -8.018100
H -1.755800 -15.163200 -6.709400
H -1.408700 -13.645500 -6.500800
72
Fragment
H -8.475800 -9.512600 -11.256000
H -8.128800 -7.994800 -11.047400
H -7.822900 -11.101900 -9.738700
C -7.788000 -8.898100 -10.954900
O -7.482600 -9.156300 -9.582800
C -7.102200 -10.530300 -9.431300
H -6.944500 -10.721900 -8.494000
H -6.780600 -8.933200 -12.744100
C -6.553500 -9.062800 -11.810400
H -6.415600 -11.899100 -18.432400
H -6.275100 -11.817500 -20.744400
N -6.007300 -10.404900 -11.613900
H -5.891100 -8.398700 -11.564100
C -5.845300 -10.826000 -10.227100
H -5.658200 -11.777500 -10.196800
C -5.614000 -12.097500 -18.859500
C -5.526200 -12.045900 -20.241600
C -5.477600 -11.112000 -12.617000
N -5.434700 -10.687700 -13.841800
H -5.122200 -11.949900 -12.427100
H -5.093100 -10.358300 -9.831900
N -5.024000 -11.244500 -16.068300
C -4.993700 -11.593700 -14.796500
N -4.570100 -12.404700 -16.697300
N -4.563300 -12.879300 -14.548000
C -4.491900 -12.449000 -18.118200
C -4.326400 -12.333100 -20.881400
C -4.320000 -13.355100 -15.766500
H -4.265200 -12.271900 -21.807100
H -3.958900 -14.891300 -16.891200
H -3.909500 -15.198100 -15.414700
N -3.846500 -14.586900 -16.059100
C -3.296300 -12.774900 -18.749200
C -3.220500 -12.710500 -20.135000
H -2.556000 -13.033200 -18.249600
H -2.423700 -12.921400 -20.564100
H -7.460900 -10.236600 2.807300
H -7.328500 -10.124800 0.492800
C -6.664100 -10.447600 2.378200
C -6.588200 -10.383100 0.992400
N -6.038000 -8.571100 -1.697700
H -5.975100 -7.959900 -2.342100
H -5.925700 -8.266800 -0.865600
H -5.619300 -10.886100 4.050300
C -5.564500 -9.802900 -1.990300
C -5.558100 -10.824900 3.124600
C -5.392700 -10.709000 0.361400
N -5.321300 -10.278700 -3.208800
N -5.314400 -10.753400 -1.059500
C -4.890900 -11.564300 -2.960300
N -4.860500 -11.913500 -1.688500
H -4.791400 -12.799800 -7.924900
H -4.762300 -11.208100 -5.329700
N -4.449900 -12.470300 -3.915000
C -4.407000 -12.046000 -5.139800
C -4.358300 -11.112100 2.484800
C -4.270500 -11.060500 1.102700
H -4.226400 -11.380600 -7.560000
C -4.039300 -12.332000 -7.529700
H -3.993400 -14.759300 -6.192700
N -3.877300 -12.753100 -6.142900
H -3.609400 -11.340500 2.987600
H -3.468900 -11.258900 0.675600
C -3.331000 -14.095300 -5.946400
H -3.104000 -14.224800 -5.012700
H -2.940000 -12.436100 -9.262800
C -2.782300 -12.627700 -8.325500
O -2.402000 -14.001800 -8.174000
C -2.096500 -14.259900 -6.801900
H -2.061600 -12.056100 -8.018100
H -1.755800 -15.163200 -6.709400
H -1.408700 -13.645500 -6.500800
