24
Fragment
H -5.718600 -15.060000 -18.798800
H -5.617200 -15.599000 -21.093900
H -5.580700 -16.973600 -16.966300
H -5.570000 -13.320400 -20.552400
H -5.463500 -13.817600 -22.837800
N -5.386200 -17.446500 -17.658200
N -5.381200 -18.774300 -17.699200
C -5.049500 -16.962000 -18.838300
N -5.041100 -19.083200 -18.897700
C -4.942300 -15.517900 -19.157500
C -4.844700 -15.225800 -20.641400
N -4.826100 -17.971500 -19.634600
N -4.795300 -11.003500 -21.918900
C -4.776700 -13.749200 -20.912100
C -4.679100 -13.457100 -22.395900
N -4.580300 -9.891800 -22.655800
C -4.571800 -12.013000 -22.715200
N -4.240200 -10.200700 -23.854300
N -4.235200 -11.528500 -23.895300
H -4.157900 -15.157400 -18.715700
H -4.051300 -15.654600 -21.001100
H -4.040600 -12.001400 -24.587200
H -4.004200 -13.376000 -20.459600
H -3.902700 -13.915000 -22.754700
3
Fragment
H -4.963800 -10.608300 -19.978900
O -4.885300 -10.325200 -19.181500
H -4.860000 -9.477100 -19.233700
27
Fragment
H -5.718600 -15.060000 -18.798800
H -5.617200 -15.599000 -21.093900
H -5.580700 -16.973600 -16.966300
H -5.570000 -13.320400 -20.552400
H -5.463500 -13.817600 -22.837800
N -5.386200 -17.446500 -17.658200
N -5.381200 -18.774300 -17.699200
C -5.049500 -16.962000 -18.838300
N -5.041100 -19.083200 -18.897700
C -4.942300 -15.517900 -19.157500
C -4.844700 -15.225800 -20.641400
N -4.826100 -17.971500 -19.634600
N -4.795300 -11.003500 -21.918900
C -4.776700 -13.749200 -20.912100
C -4.679100 -13.457100 -22.395900
N -4.580300 -9.891800 -22.655800
C -4.571800 -12.013000 -22.715200
N -4.240200 -10.200700 -23.854300
N -4.235200 -11.528500 -23.895300
H -4.157900 -15.157400 -18.715700
H -4.051300 -15.654600 -21.001100
H -4.040600 -12.001400 -24.587200
H -4.004200 -13.376000 -20.459600
H -3.902700 -13.915000 -22.754700
H -4.963800 -10.608300 -19.978900
O -4.885300 -10.325200 -19.181500
H -4.860000 -9.477100 -19.233700
