24
Fragment
H -5.718600 -15.060000 -18.798800
H -5.617200 -15.599000 -21.093900
H -5.580700 -16.973600 -16.966300
H -5.570000 -13.320400 -20.552400
H -5.463500 -13.817600 -22.837800
N -5.386200 -17.446500 -17.658200
N -5.381200 -18.774300 -17.699200
C -5.049500 -16.962000 -18.838300
N -5.041100 -19.083200 -18.897700
C -4.942300 -15.517900 -19.157500
C -4.844700 -15.225800 -20.641400
N -4.826100 -17.971500 -19.634600
N -4.795300 -11.003500 -21.918900
C -4.776700 -13.749200 -20.912100
C -4.679100 -13.457100 -22.395900
N -4.580300 -9.891800 -22.655800
C -4.571800 -12.013000 -22.715200
N -4.240200 -10.200700 -23.854300
N -4.235200 -11.528500 -23.895300
H -4.157900 -15.157400 -18.715700
H -4.051300 -15.654600 -21.001100
H -4.040600 -12.001400 -24.587200
H -4.004200 -13.376000 -20.459600
H -3.902700 -13.915000 -22.754700
24
Fragment
H -9.215600 -20.855000 -18.798800
H -9.114200 -21.394000 -21.093900
H -9.077700 -22.768600 -16.966300
H -9.067000 -19.115400 -20.552400
H -8.960500 -19.612600 -22.837800
N -8.883200 -23.241500 -17.658200
N -8.878200 -24.569300 -17.699200
C -8.546500 -22.757000 -18.838300
N -8.538100 -24.878200 -18.897700
C -8.439300 -21.312900 -19.157500
C -8.341700 -21.020800 -20.641400
N -8.323100 -23.766500 -19.634600
N -8.292300 -16.798500 -21.918900
C -8.273700 -19.544200 -20.912100
C -8.176100 -19.252100 -22.395900
N -8.077300 -15.686800 -22.655800
C -8.068800 -17.808000 -22.715200
N -7.737200 -15.995700 -23.854300
N -7.732200 -17.323500 -23.895300
H -7.654900 -20.952400 -18.715700
H -7.548300 -21.449600 -21.001100
H -7.537600 -17.796400 -24.587200
H -7.501200 -19.171000 -20.459600
H -7.399700 -19.710000 -22.754700
48
Fragment
H -5.718600 -15.060000 -18.798800
H -5.617200 -15.599000 -21.093900
H -5.580700 -16.973600 -16.966300
H -5.570000 -13.320400 -20.552400
H -5.463500 -13.817600 -22.837800
N -5.386200 -17.446500 -17.658200
N -5.381200 -18.774300 -17.699200
C -5.049500 -16.962000 -18.838300
N -5.041100 -19.083200 -18.897700
C -4.942300 -15.517900 -19.157500
C -4.844700 -15.225800 -20.641400
N -4.826100 -17.971500 -19.634600
N -4.795300 -11.003500 -21.918900
C -4.776700 -13.749200 -20.912100
C -4.679100 -13.457100 -22.395900
N -4.580300 -9.891800 -22.655800
C -4.571800 -12.013000 -22.715200
N -4.240200 -10.200700 -23.854300
N -4.235200 -11.528500 -23.895300
H -4.157900 -15.157400 -18.715700
H -4.051300 -15.654600 -21.001100
H -4.040600 -12.001400 -24.587200
H -4.004200 -13.376000 -20.459600
H -3.902700 -13.915000 -22.754700
H -9.215600 -20.855000 -18.798800
H -9.114200 -21.394000 -21.093900
H -9.077700 -22.768600 -16.966300
H -9.067000 -19.115400 -20.552400
H -8.960500 -19.612600 -22.837800
N -8.883200 -23.241500 -17.658200
N -8.878200 -24.569300 -17.699200
C -8.546500 -22.757000 -18.838300
N -8.538100 -24.878200 -18.897700
C -8.439300 -21.312900 -19.157500
C -8.341700 -21.020800 -20.641400
N -8.323100 -23.766500 -19.634600
N -8.292300 -16.798500 -21.918900
C -8.273700 -19.544200 -20.912100
C -8.176100 -19.252100 -22.395900
N -8.077300 -15.686800 -22.655800
C -8.068800 -17.808000 -22.715200
N -7.737200 -15.995700 -23.854300
N -7.732200 -17.323500 -23.895300
H -7.654900 -20.952400 -18.715700
H -7.548300 -21.449600 -21.001100
H -7.537600 -17.796400 -24.587200
H -7.501200 -19.171000 -20.459600
H -7.399700 -19.710000 -22.754700
