37
Fragment
H -9.288500 -20.473100 -20.923100
H -8.804900 -18.496100 -21.776600
H -8.477800 -21.492800 -23.330700
C -8.340600 -20.268700 -20.892900
H -8.241600 -20.414700 -27.419100
N -8.147200 -18.963300 -21.478700
H -8.089600 -20.215400 -19.956900
H -7.936500 -22.264800 -21.152600
H -7.779400 -21.916900 -25.402000
N -7.695700 -21.467400 -22.974400
H -7.645200 -18.192600 -27.413000
C -7.588100 -21.435700 -21.514900
H -7.338100 -18.358900 -24.359300
C -7.299800 -20.216600 -27.300300
H -7.288100 -16.861800 -22.686500
C -6.975800 -18.818600 -27.729100
N -6.930900 -20.173500 -25.870700
C -6.917200 -21.495300 -25.261100
H -6.914600 -18.756400 -28.695300
C -6.773300 -18.482100 -21.535100
H -6.770200 -20.868100 -27.785400
H -6.651900 -21.374700 -21.267300
C -6.625300 -21.459800 -23.775500
N -6.586000 -18.215400 -23.966800
C -6.578900 -17.523400 -22.694600
H -6.553900 -18.032600 -20.705700
H -6.245700 -22.040100 -25.700000
H -6.171800 -19.236400 -21.637700
H -5.734500 -17.058600 -22.587900
C -5.646300 -19.456000 -25.816700
C -5.636600 -18.558300 -27.080900
H -5.543700 -17.623700 -26.841300
O -5.474300 -21.436900 -23.358700
C -5.474300 -18.633200 -24.546500
H -4.914700 -20.104900 -25.879100
H -4.910600 -18.804600 -27.674700
O -4.343200 -18.341100 -24.152800
37
Fragment
H -14.390400 -20.473100 -20.923100
H -13.906800 -18.496100 -21.776600
H -13.579700 -21.492800 -23.330700
C -13.442500 -20.268700 -20.892900
H -13.343500 -20.414700 -27.419100
N -13.249100 -18.963300 -21.478700
H -13.191500 -20.215400 -19.956900
H -13.038400 -22.264800 -21.152600
H -12.881300 -21.916900 -25.402000
N -12.797600 -21.467400 -22.974400
H -12.747100 -18.192600 -27.413000
C -12.690000 -21.435700 -21.514900
H -12.440000 -18.358900 -24.359300
C -12.401700 -20.216600 -27.300300
H -12.390000 -16.861800 -22.686500
C -12.077700 -18.818600 -27.729100
N -12.032800 -20.173500 -25.870700
C -12.019100 -21.495300 -25.261100
H -12.016500 -18.756400 -28.695300
C -11.875200 -18.482100 -21.535100
H -11.872100 -20.868100 -27.785400
H -11.753800 -21.374700 -21.267300
C -11.727200 -21.459800 -23.775500
N -11.687900 -18.215400 -23.966800
C -11.680800 -17.523400 -22.694600
H -11.655800 -18.032600 -20.705700
H -11.347600 -22.040100 -25.700000
H -11.273700 -19.236400 -21.637700
H -10.836400 -17.058600 -22.587900
C -10.748200 -19.456000 -25.816700
C -10.738500 -18.558300 -27.080900
H -10.645600 -17.623700 -26.841300
O -10.576200 -21.436900 -23.358700
C -10.576200 -18.633200 -24.546500
H -10.016600 -20.104900 -25.879100
H -10.012500 -18.804600 -27.674700
O -9.445100 -18.341100 -24.152800
74
Fragment
H -9.288500 -20.473100 -20.923100
H -8.804900 -18.496100 -21.776600
H -8.477800 -21.492800 -23.330700
C -8.340600 -20.268700 -20.892900
H -8.241600 -20.414700 -27.419100
N -8.147200 -18.963300 -21.478700
H -8.089600 -20.215400 -19.956900
H -7.936500 -22.264800 -21.152600
H -7.779400 -21.916900 -25.402000
N -7.695700 -21.467400 -22.974400
H -7.645200 -18.192600 -27.413000
C -7.588100 -21.435700 -21.514900
H -7.338100 -18.358900 -24.359300
C -7.299800 -20.216600 -27.300300
H -7.288100 -16.861800 -22.686500
C -6.975800 -18.818600 -27.729100
N -6.930900 -20.173500 -25.870700
C -6.917200 -21.495300 -25.261100
H -6.914600 -18.756400 -28.695300
C -6.773300 -18.482100 -21.535100
H -6.770200 -20.868100 -27.785400
H -6.651900 -21.374700 -21.267300
C -6.625300 -21.459800 -23.775500
N -6.586000 -18.215400 -23.966800
C -6.578900 -17.523400 -22.694600
H -6.553900 -18.032600 -20.705700
H -6.245700 -22.040100 -25.700000
H -6.171800 -19.236400 -21.637700
H -5.734500 -17.058600 -22.587900
C -5.646300 -19.456000 -25.816700
C -5.636600 -18.558300 -27.080900
H -5.543700 -17.623700 -26.841300
O -5.474300 -21.436900 -23.358700
C -5.474300 -18.633200 -24.546500
H -4.914700 -20.104900 -25.879100
H -4.910600 -18.804600 -27.674700
O -4.343200 -18.341100 -24.152800
H -14.390400 -20.473100 -20.923100
H -13.906800 -18.496100 -21.776600
H -13.579700 -21.492800 -23.330700
C -13.442500 -20.268700 -20.892900
H -13.343500 -20.414700 -27.419100
N -13.249100 -18.963300 -21.478700
H -13.191500 -20.215400 -19.956900
H -13.038400 -22.264800 -21.152600
H -12.881300 -21.916900 -25.402000
N -12.797600 -21.467400 -22.974400
H -12.747100 -18.192600 -27.413000
C -12.690000 -21.435700 -21.514900
H -12.440000 -18.358900 -24.359300
C -12.401700 -20.216600 -27.300300
H -12.390000 -16.861800 -22.686500
C -12.077700 -18.818600 -27.729100
N -12.032800 -20.173500 -25.870700
C -12.019100 -21.495300 -25.261100
H -12.016500 -18.756400 -28.695300
C -11.875200 -18.482100 -21.535100
H -11.872100 -20.868100 -27.785400
H -11.753800 -21.374700 -21.267300
C -11.727200 -21.459800 -23.775500
N -11.687900 -18.215400 -23.966800
C -11.680800 -17.523400 -22.694600
H -11.655800 -18.032600 -20.705700
H -11.347600 -22.040100 -25.700000
H -11.273700 -19.236400 -21.637700
H -10.836400 -17.058600 -22.587900
C -10.748200 -19.456000 -25.816700
C -10.738500 -18.558300 -27.080900
H -10.645600 -17.623700 -26.841300
O -10.576200 -21.436900 -23.358700
C -10.576200 -18.633200 -24.546500
H -10.016600 -20.104900 -25.879100
H -10.012500 -18.804600 -27.674700
O -9.445100 -18.341100 -24.152800
