37
Fragment
H -9.288500 -20.473100 -20.923100
H -8.804900 -18.496100 -21.776600
H -8.477800 -21.492800 -23.330700
C -8.340600 -20.268700 -20.892900
H -8.241600 -20.414700 -27.419100
N -8.147200 -18.963300 -21.478700
H -8.089600 -20.215400 -19.956900
H -7.936500 -22.264800 -21.152600
H -7.779400 -21.916900 -25.402000
N -7.695700 -21.467400 -22.974400
H -7.645200 -18.192600 -27.413000
C -7.588100 -21.435700 -21.514900
H -7.338100 -18.358900 -24.359300
C -7.299800 -20.216600 -27.300300
H -7.288100 -16.861800 -22.686500
C -6.975800 -18.818600 -27.729100
N -6.930900 -20.173500 -25.870700
C -6.917200 -21.495300 -25.261100
H -6.914600 -18.756400 -28.695300
C -6.773300 -18.482100 -21.535100
H -6.770200 -20.868100 -27.785400
H -6.651900 -21.374700 -21.267300
C -6.625300 -21.459800 -23.775500
N -6.586000 -18.215400 -23.966800
C -6.578900 -17.523400 -22.694600
H -6.553900 -18.032600 -20.705700
H -6.245700 -22.040100 -25.700000
H -6.171800 -19.236400 -21.637700
H -5.734500 -17.058600 -22.587900
C -5.646300 -19.456000 -25.816700
C -5.636600 -18.558300 -27.080900
H -5.543700 -17.623700 -26.841300
O -5.474300 -21.436900 -23.358700
C -5.474300 -18.633200 -24.546500
H -4.914700 -20.104900 -25.879100
H -4.910600 -18.804600 -27.674700
O -4.343200 -18.341100 -24.152800
37
Fragment
H -11.839500 -23.970200 -19.336900
H -11.355800 -25.947300 -18.483400
H -11.028800 -22.950500 -16.929300
C -10.891500 -24.174600 -19.367100
H -10.792600 -24.028600 -12.840900
N -10.698200 -25.480000 -18.781300
H -10.640500 -24.228000 -20.303100
H -10.487500 -22.178500 -19.107400
H -10.330300 -22.526400 -14.858000
N -10.246700 -22.975900 -17.285600
H -10.196100 -26.250800 -12.847000
C -10.139000 -23.007700 -18.745100
H -9.889000 -26.084400 -15.900700
C -9.850700 -24.226700 -12.959700
H -9.839000 -27.581500 -17.573500
C -9.526800 -25.624800 -12.530900
N -9.481900 -24.269900 -14.389300
C -9.468100 -22.948000 -14.998900
H -9.465600 -25.687000 -11.564700
C -9.324200 -25.961300 -18.724900
H -9.321200 -23.575300 -12.474600
H -9.202800 -23.068600 -18.992700
C -9.176300 -22.983600 -16.484500
N -9.137000 -26.227900 -16.293200
C -9.129900 -26.920000 -17.565400
H -9.104900 -26.410800 -19.554300
H -8.796700 -22.403300 -14.560000
H -8.722700 -25.207000 -18.622300
H -8.285500 -27.384700 -17.672100
C -8.197200 -24.987300 -14.443300
C -8.187500 -25.885100 -13.179100
H -8.094700 -26.819700 -13.418700
C -8.025300 -25.810200 -15.713500
O -8.025300 -23.006400 -16.901300
H -7.465600 -24.338400 -14.380900
H -7.461500 -25.638700 -12.585300
O -6.894200 -26.102200 -16.107200
74
Fragment
H -9.288500 -20.473100 -20.923100
H -8.804900 -18.496100 -21.776600
H -8.477800 -21.492800 -23.330700
C -8.340600 -20.268700 -20.892900
H -8.241600 -20.414700 -27.419100
N -8.147200 -18.963300 -21.478700
H -8.089600 -20.215400 -19.956900
H -7.936500 -22.264800 -21.152600
H -7.779400 -21.916900 -25.402000
N -7.695700 -21.467400 -22.974400
H -7.645200 -18.192600 -27.413000
C -7.588100 -21.435700 -21.514900
H -7.338100 -18.358900 -24.359300
C -7.299800 -20.216600 -27.300300
H -7.288100 -16.861800 -22.686500
C -6.975800 -18.818600 -27.729100
N -6.930900 -20.173500 -25.870700
C -6.917200 -21.495300 -25.261100
H -6.914600 -18.756400 -28.695300
C -6.773300 -18.482100 -21.535100
H -6.770200 -20.868100 -27.785400
H -6.651900 -21.374700 -21.267300
C -6.625300 -21.459800 -23.775500
N -6.586000 -18.215400 -23.966800
C -6.578900 -17.523400 -22.694600
H -6.553900 -18.032600 -20.705700
H -6.245700 -22.040100 -25.700000
H -6.171800 -19.236400 -21.637700
H -5.734500 -17.058600 -22.587900
C -5.646300 -19.456000 -25.816700
C -5.636600 -18.558300 -27.080900
H -5.543700 -17.623700 -26.841300
O -5.474300 -21.436900 -23.358700
C -5.474300 -18.633200 -24.546500
H -4.914700 -20.104900 -25.879100
H -4.910600 -18.804600 -27.674700
O -4.343200 -18.341100 -24.152800
H -11.839500 -23.970200 -19.336900
H -11.355800 -25.947300 -18.483400
H -11.028800 -22.950500 -16.929300
C -10.891500 -24.174600 -19.367100
H -10.792600 -24.028600 -12.840900
N -10.698200 -25.480000 -18.781300
H -10.640500 -24.228000 -20.303100
H -10.487500 -22.178500 -19.107400
H -10.330300 -22.526400 -14.858000
N -10.246700 -22.975900 -17.285600
H -10.196100 -26.250800 -12.847000
C -10.139000 -23.007700 -18.745100
H -9.889000 -26.084400 -15.900700
C -9.850700 -24.226700 -12.959700
H -9.839000 -27.581500 -17.573500
C -9.526800 -25.624800 -12.530900
N -9.481900 -24.269900 -14.389300
C -9.468100 -22.948000 -14.998900
H -9.465600 -25.687000 -11.564700
C -9.324200 -25.961300 -18.724900
H -9.321200 -23.575300 -12.474600
H -9.202800 -23.068600 -18.992700
C -9.176300 -22.983600 -16.484500
N -9.137000 -26.227900 -16.293200
C -9.129900 -26.920000 -17.565400
H -9.104900 -26.410800 -19.554300
H -8.796700 -22.403300 -14.560000
H -8.722700 -25.207000 -18.622300
H -8.285500 -27.384700 -17.672100
C -8.197200 -24.987300 -14.443300
C -8.187500 -25.885100 -13.179100
H -8.094700 -26.819700 -13.418700
C -8.025300 -25.810200 -15.713500
O -8.025300 -23.006400 -16.901300
H -7.465600 -24.338400 -14.380900
H -7.461500 -25.638700 -12.585300
O -6.894200 -26.102200 -16.107200
