37
Fragment
H -9.288500 -20.473100 -20.923100
H -8.804900 -18.496100 -21.776600
H -8.477800 -21.492800 -23.330700
C -8.340600 -20.268700 -20.892900
H -8.241600 -20.414700 -27.419100
N -8.147200 -18.963300 -21.478700
H -8.089600 -20.215400 -19.956900
H -7.936500 -22.264800 -21.152600
H -7.779400 -21.916900 -25.402000
N -7.695700 -21.467400 -22.974400
H -7.645200 -18.192600 -27.413000
C -7.588100 -21.435700 -21.514900
H -7.338100 -18.358900 -24.359300
C -7.299800 -20.216600 -27.300300
H -7.288100 -16.861800 -22.686500
C -6.975800 -18.818600 -27.729100
N -6.930900 -20.173500 -25.870700
C -6.917200 -21.495300 -25.261100
H -6.914600 -18.756400 -28.695300
C -6.773300 -18.482100 -21.535100
H -6.770200 -20.868100 -27.785400
H -6.651900 -21.374700 -21.267300
C -6.625300 -21.459800 -23.775500
N -6.586000 -18.215400 -23.966800
C -6.578900 -17.523400 -22.694600
H -6.553900 -18.032600 -20.705700
H -6.245700 -22.040100 -25.700000
H -6.171800 -19.236400 -21.637700
H -5.734500 -17.058600 -22.587900
C -5.646300 -19.456000 -25.816700
C -5.636600 -18.558300 -27.080900
H -5.543700 -17.623700 -26.841300
O -5.474300 -21.436900 -23.358700
C -5.474300 -18.633200 -24.546500
H -4.914700 -20.104900 -25.879100
H -4.910600 -18.804600 -27.674700
O -4.343200 -18.341100 -24.152800
37
Fragment
O -10.962500 -24.690200 -26.172200
H -10.395100 -25.153700 -22.650300
H -10.391000 -26.454000 -24.445900
O -9.831400 -27.786000 -26.966300
C -9.831400 -24.982200 -25.778500
H -9.762000 -23.972700 -23.483700
C -9.669100 -24.907300 -23.244100
C -9.659400 -25.805100 -24.508300
H -9.571200 -23.407700 -27.737100
H -9.133900 -25.585400 -28.687300
H -9.060000 -28.389100 -24.625000
H -8.751800 -24.381600 -29.619300
C -8.726800 -23.872400 -27.630400
N -8.719700 -24.564500 -26.358200
C -8.680400 -27.808800 -26.549500
H -8.653800 -27.723800 -29.057700
H -8.535500 -27.217100 -22.539600
C -8.532400 -24.831100 -28.789900
H -8.391100 -25.105400 -21.629700
C -8.388500 -27.844400 -25.063900
N -8.374800 -26.522500 -24.454300
C -8.329900 -25.167600 -22.595900
H -8.017600 -23.210900 -27.638500
C -8.005900 -26.565700 -23.024700
H -7.967600 -24.708000 -25.965700
C -7.717600 -27.784700 -28.810100
H -7.660500 -24.541600 -22.912000
N -7.610000 -27.816500 -27.350600
H -7.526300 -28.266000 -24.923000
H -7.369200 -28.613900 -29.172400
H -7.216100 -26.564400 -30.368100
N -7.158500 -25.312400 -28.846300
H -7.064100 -26.763800 -22.905900
C -6.965100 -26.617800 -29.432100
H -6.827900 -27.841900 -26.994300
H -6.500800 -24.845100 -28.548400
H -6.017200 -26.822200 -29.401900
74
Fragment
H -9.288500 -20.473100 -20.923100
H -8.804900 -18.496100 -21.776600
H -8.477800 -21.492800 -23.330700
C -8.340600 -20.268700 -20.892900
H -8.241600 -20.414700 -27.419100
N -8.147200 -18.963300 -21.478700
H -8.089600 -20.215400 -19.956900
H -7.936500 -22.264800 -21.152600
H -7.779400 -21.916900 -25.402000
N -7.695700 -21.467400 -22.974400
H -7.645200 -18.192600 -27.413000
C -7.588100 -21.435700 -21.514900
H -7.338100 -18.358900 -24.359300
C -7.299800 -20.216600 -27.300300
H -7.288100 -16.861800 -22.686500
C -6.975800 -18.818600 -27.729100
N -6.930900 -20.173500 -25.870700
C -6.917200 -21.495300 -25.261100
H -6.914600 -18.756400 -28.695300
C -6.773300 -18.482100 -21.535100
H -6.770200 -20.868100 -27.785400
H -6.651900 -21.374700 -21.267300
C -6.625300 -21.459800 -23.775500
N -6.586000 -18.215400 -23.966800
C -6.578900 -17.523400 -22.694600
H -6.553900 -18.032600 -20.705700
H -6.245700 -22.040100 -25.700000
H -6.171800 -19.236400 -21.637700
H -5.734500 -17.058600 -22.587900
C -5.646300 -19.456000 -25.816700
C -5.636600 -18.558300 -27.080900
H -5.543700 -17.623700 -26.841300
O -5.474300 -21.436900 -23.358700
C -5.474300 -18.633200 -24.546500
H -4.914700 -20.104900 -25.879100
H -4.910600 -18.804600 -27.674700
O -4.343200 -18.341100 -24.152800
O -10.962500 -24.690200 -26.172200
H -10.395100 -25.153700 -22.650300
H -10.391000 -26.454000 -24.445900
O -9.831400 -27.786000 -26.966300
C -9.831400 -24.982200 -25.778500
H -9.762000 -23.972700 -23.483700
C -9.669100 -24.907300 -23.244100
C -9.659400 -25.805100 -24.508300
H -9.571200 -23.407700 -27.737100
H -9.133900 -25.585400 -28.687300
H -9.060000 -28.389100 -24.625000
H -8.751800 -24.381600 -29.619300
C -8.726800 -23.872400 -27.630400
N -8.719700 -24.564500 -26.358200
C -8.680400 -27.808800 -26.549500
H -8.653800 -27.723800 -29.057700
H -8.535500 -27.217100 -22.539600
C -8.532400 -24.831100 -28.789900
H -8.391100 -25.105400 -21.629700
C -8.388500 -27.844400 -25.063900
N -8.374800 -26.522500 -24.454300
C -8.329900 -25.167600 -22.595900
H -8.017600 -23.210900 -27.638500
C -8.005900 -26.565700 -23.024700
H -7.967600 -24.708000 -25.965700
C -7.717600 -27.784700 -28.810100
H -7.660500 -24.541600 -22.912000
N -7.610000 -27.816500 -27.350600
H -7.526300 -28.266000 -24.923000
H -7.369200 -28.613900 -29.172400
H -7.216100 -26.564400 -30.368100
N -7.158500 -25.312400 -28.846300
H -7.064100 -26.763800 -22.905900
C -6.965100 -26.617800 -29.432100
H -6.827900 -27.841900 -26.994300
H -6.500800 -24.845100 -28.548400
H -6.017200 -26.822200 -29.401900
