32
Fragment
H -5.954600 -11.540100 -17.007900
H -5.468300 -15.496200 -17.419300
H -5.287100 -9.337900 -15.732200
O -5.273600 -14.621900 -17.020100
C -4.983900 -11.667400 -16.967300
H -4.945800 -8.174700 -14.688000
H -4.713100 -12.327800 -17.637600
C -4.648000 -14.774300 -15.859100
C -4.596400 -12.159600 -15.586900
C -4.589100 -8.956400 -15.159300
H -4.535100 -10.814900 -17.148100
C -4.453600 -13.499800 -15.169500
O -4.315700 -15.841300 -15.413300
C -4.261800 -11.402000 -14.457500
C -4.146700 -9.976700 -14.167000
N -4.042500 -13.566000 -13.870400
N -3.949900 -12.294600 -13.486500
H -3.826300 -8.684700 -15.710900
H -3.709000 -12.055300 -12.674900
H -3.655700 -7.748500 -13.272200
N -3.641300 -9.698800 -13.005000
H -3.565200 -4.038900 -12.719600
N -3.466100 -8.373200 -12.681000
N -3.271200 -5.834900 -12.238200
O -3.096800 -4.480200 -12.059400
C -3.005200 -8.027900 -11.461200
C -2.839800 -6.542500 -11.258000
H -2.793200 -6.335000 -9.230700
O -2.741600 -8.853500 -10.591700
C -2.230600 -6.063000 -9.985400
H -2.160800 -5.085400 -10.004600
H -1.337100 -6.452800 -9.882800
32
Fragment
H -4.525000 -7.060900 -20.588200
H -3.701400 -8.428200 -20.466400
C -3.631500 -7.450600 -20.485700
O -3.120600 -4.660200 -19.879300
H -3.068900 -7.178700 -21.240300
C -3.022300 -6.971200 -19.213000
C -2.857000 -5.485700 -19.009800
O -2.765300 -9.033400 -18.411600
N -2.590900 -7.678700 -18.232800
N -2.396000 -5.140400 -17.790000
H -2.297000 -9.474700 -17.751400
N -2.220900 -3.814800 -17.466000
H -2.206400 -5.765100 -17.198900
H -2.153100 -1.458300 -17.796100
H -2.035800 -4.828900 -14.760200
N -1.912300 -1.219000 -16.984500
N -1.819600 0.052400 -16.600600
C -1.715400 -3.537000 -16.304000
C -1.600300 -2.111700 -16.013500
O -1.546500 2.327700 -15.057800
C -1.408600 -0.013800 -15.301500
H -1.327000 -2.698700 -13.322900
C -1.273000 -4.557200 -15.311700
C -1.265800 -1.354000 -14.884100
C -1.214200 1.260700 -14.611900
H -1.149100 -1.185800 -12.833400
H -0.916300 -5.338900 -15.783000
C -0.878200 -1.846200 -13.503700
O -0.588500 1.108300 -13.450900
H -0.575000 -4.175700 -14.738800
H -0.393800 1.982600 -13.051800
H 0.092400 -1.973500 -13.463100
64
Fragment
H -5.954600 -11.540100 -17.007900
H -5.468300 -15.496200 -17.419300
H -5.287100 -9.337900 -15.732200
O -5.273600 -14.621900 -17.020100
C -4.983900 -11.667400 -16.967300
H -4.945800 -8.174700 -14.688000
H -4.713100 -12.327800 -17.637600
C -4.648000 -14.774300 -15.859100
C -4.596400 -12.159600 -15.586900
C -4.589100 -8.956400 -15.159300
H -4.535100 -10.814900 -17.148100
C -4.453600 -13.499800 -15.169500
O -4.315700 -15.841300 -15.413300
C -4.261800 -11.402000 -14.457500
C -4.146700 -9.976700 -14.167000
N -4.042500 -13.566000 -13.870400
N -3.949900 -12.294600 -13.486500
H -3.826300 -8.684700 -15.710900
H -3.709000 -12.055300 -12.674900
H -3.655700 -7.748500 -13.272200
N -3.641300 -9.698800 -13.005000
H -3.565200 -4.038900 -12.719600
N -3.466100 -8.373200 -12.681000
N -3.271200 -5.834900 -12.238200
O -3.096800 -4.480200 -12.059400
C -3.005200 -8.027900 -11.461200
C -2.839800 -6.542500 -11.258000
H -2.793200 -6.335000 -9.230700
O -2.741600 -8.853500 -10.591700
C -2.230600 -6.063000 -9.985400
H -2.160800 -5.085400 -10.004600
H -1.337100 -6.452800 -9.882800
H -4.525000 -7.060900 -20.588200
H -3.701400 -8.428200 -20.466400
C -3.631500 -7.450600 -20.485700
O -3.120600 -4.660200 -19.879300
H -3.068900 -7.178700 -21.240300
C -3.022300 -6.971200 -19.213000
C -2.857000 -5.485700 -19.009800
O -2.765300 -9.033400 -18.411600
N -2.590900 -7.678700 -18.232800
N -2.396000 -5.140400 -17.790000
H -2.297000 -9.474700 -17.751400
N -2.220900 -3.814800 -17.466000
H -2.206400 -5.765100 -17.198900
H -2.153100 -1.458300 -17.796100
H -2.035800 -4.828900 -14.760200
N -1.912300 -1.219000 -16.984500
N -1.819600 0.052400 -16.600600
C -1.715400 -3.537000 -16.304000
C -1.600300 -2.111700 -16.013500
O -1.546500 2.327700 -15.057800
C -1.408600 -0.013800 -15.301500
H -1.327000 -2.698700 -13.322900
C -1.273000 -4.557200 -15.311700
C -1.265800 -1.354000 -14.884100
C -1.214200 1.260700 -14.611900
H -1.149100 -1.185800 -12.833400
H -0.916300 -5.338900 -15.783000
C -0.878200 -1.846200 -13.503700
O -0.588500 1.108300 -13.450900
H -0.575000 -4.175700 -14.738800
H -0.393800 1.982600 -13.051800
H 0.092400 -1.973500 -13.463100
