32
Fragment
H -5.954600 -11.540100 -17.007900
H -5.468300 -15.496200 -17.419300
H -5.287100 -9.337900 -15.732200
O -5.273600 -14.621900 -17.020100
C -4.983900 -11.667400 -16.967300
H -4.945800 -8.174700 -14.688000
H -4.713100 -12.327800 -17.637600
C -4.648000 -14.774300 -15.859100
C -4.596400 -12.159600 -15.586900
C -4.589100 -8.956400 -15.159300
H -4.535100 -10.814900 -17.148100
C -4.453600 -13.499800 -15.169500
O -4.315700 -15.841300 -15.413300
C -4.261800 -11.402000 -14.457500
C -4.146700 -9.976700 -14.167000
N -4.042500 -13.566000 -13.870400
N -3.949900 -12.294600 -13.486500
H -3.826300 -8.684700 -15.710900
H -3.709000 -12.055300 -12.674900
H -3.655700 -7.748500 -13.272200
N -3.641300 -9.698800 -13.005000
H -3.565200 -4.038900 -12.719600
N -3.466100 -8.373200 -12.681000
N -3.271200 -5.834900 -12.238200
O -3.096800 -4.480200 -12.059400
C -3.005200 -8.027900 -11.461200
C -2.839800 -6.542500 -11.258000
H -2.793200 -6.335000 -9.230700
O -2.741600 -8.853500 -10.591700
C -2.230600 -6.063000 -9.985400
H -2.160800 -5.085400 -10.004600
H -1.337100 -6.452800 -9.882800
32
Fragment
H -1.733800 -3.465000 -6.850900
H -1.247500 -7.421100 -7.262300
H -1.066300 -1.262800 -5.575200
O -1.052800 -6.546800 -6.863100
C -0.763100 -3.592300 -6.810300
H -0.725000 -0.099600 -4.531000
H -0.492300 -4.252700 -7.480600
C -0.427200 -6.699300 -5.702100
C -0.375600 -4.084500 -5.429900
C -0.368300 -0.881300 -5.002300
H -0.314400 -2.739800 -6.991100
C -0.232800 -5.424700 -5.012500
O -0.094900 -7.766200 -5.256200
C -0.041000 -3.326900 -4.300500
C 0.074100 -1.901600 -4.010000
N 0.178300 -5.490900 -3.713400
N 0.270900 -4.219500 -3.329500
H 0.394500 -0.609600 -5.553900
H 0.511700 -3.980300 -2.517900
H 0.565100 0.326600 -3.115200
N 0.579500 -1.623700 -2.848000
H 0.655600 4.036200 -2.562600
N 0.754600 -0.298200 -2.524000
N 0.949500 2.240200 -2.081200
O 1.124000 3.594900 -1.902400
C 1.215600 0.047200 -1.304200
C 1.381000 1.532600 -1.101000
H 1.427600 1.740100 0.926300
O 1.479200 -0.778400 -0.434700
C 1.990200 2.012100 0.171700
H 2.060000 2.989700 0.152400
H 2.883700 1.622300 0.274200
64
Fragment
H -5.954600 -11.540100 -17.007900
H -5.468300 -15.496200 -17.419300
H -5.287100 -9.337900 -15.732200
O -5.273600 -14.621900 -17.020100
C -4.983900 -11.667400 -16.967300
H -4.945800 -8.174700 -14.688000
H -4.713100 -12.327800 -17.637600
C -4.648000 -14.774300 -15.859100
C -4.596400 -12.159600 -15.586900
C -4.589100 -8.956400 -15.159300
H -4.535100 -10.814900 -17.148100
C -4.453600 -13.499800 -15.169500
O -4.315700 -15.841300 -15.413300
C -4.261800 -11.402000 -14.457500
C -4.146700 -9.976700 -14.167000
N -4.042500 -13.566000 -13.870400
N -3.949900 -12.294600 -13.486500
H -3.826300 -8.684700 -15.710900
H -3.709000 -12.055300 -12.674900
H -3.655700 -7.748500 -13.272200
N -3.641300 -9.698800 -13.005000
H -3.565200 -4.038900 -12.719600
N -3.466100 -8.373200 -12.681000
N -3.271200 -5.834900 -12.238200
O -3.096800 -4.480200 -12.059400
C -3.005200 -8.027900 -11.461200
C -2.839800 -6.542500 -11.258000
H -2.793200 -6.335000 -9.230700
O -2.741600 -8.853500 -10.591700
C -2.230600 -6.063000 -9.985400
H -2.160800 -5.085400 -10.004600
H -1.337100 -6.452800 -9.882800
H -1.733800 -3.465000 -6.850900
H -1.247500 -7.421100 -7.262300
H -1.066300 -1.262800 -5.575200
O -1.052800 -6.546800 -6.863100
C -0.763100 -3.592300 -6.810300
H -0.725000 -0.099600 -4.531000
H -0.492300 -4.252700 -7.480600
C -0.427200 -6.699300 -5.702100
C -0.375600 -4.084500 -5.429900
C -0.368300 -0.881300 -5.002300
H -0.314400 -2.739800 -6.991100
C -0.232800 -5.424700 -5.012500
O -0.094900 -7.766200 -5.256200
C -0.041000 -3.326900 -4.300500
C 0.074100 -1.901600 -4.010000
N 0.178300 -5.490900 -3.713400
N 0.270900 -4.219500 -3.329500
H 0.394500 -0.609600 -5.553900
H 0.511700 -3.980300 -2.517900
H 0.565100 0.326600 -3.115200
N 0.579500 -1.623700 -2.848000
H 0.655600 4.036200 -2.562600
N 0.754600 -0.298200 -2.524000
N 0.949500 2.240200 -2.081200
O 1.124000 3.594900 -1.902400
C 1.215600 0.047200 -1.304200
C 1.381000 1.532600 -1.101000
H 1.427600 1.740100 0.926300
O 1.479200 -0.778400 -0.434700
C 1.990200 2.012100 0.171700
H 2.060000 2.989700 0.152400
H 2.883700 1.622300 0.274200
