32
Fragment
H -5.954600 -11.540100 -17.007900
H -5.468300 -15.496200 -17.419300
H -5.287100 -9.337900 -15.732200
O -5.273600 -14.621900 -17.020100
C -4.983900 -11.667400 -16.967300
H -4.945800 -8.174700 -14.688000
H -4.713100 -12.327800 -17.637600
C -4.648000 -14.774300 -15.859100
C -4.596400 -12.159600 -15.586900
C -4.589100 -8.956400 -15.159300
H -4.535100 -10.814900 -17.148100
C -4.453600 -13.499800 -15.169500
O -4.315700 -15.841300 -15.413300
C -4.261800 -11.402000 -14.457500
C -4.146700 -9.976700 -14.167000
N -4.042500 -13.566000 -13.870400
N -3.949900 -12.294600 -13.486500
H -3.826300 -8.684700 -15.710900
H -3.709000 -12.055300 -12.674900
H -3.655700 -7.748500 -13.272200
N -3.641300 -9.698800 -13.005000
H -3.565200 -4.038900 -12.719600
N -3.466100 -8.373200 -12.681000
N -3.271200 -5.834900 -12.238200
O -3.096800 -4.480200 -12.059400
C -3.005200 -8.027900 -11.461200
C -2.839800 -6.542500 -11.258000
H -2.793200 -6.335000 -9.230700
O -2.741600 -8.853500 -10.591700
C -2.230600 -6.063000 -9.985400
H -2.160800 -5.085400 -10.004600
H -1.337100 -6.452800 -9.882800
32
Fragment
H 0.034300 -9.697400 -10.431200
H 0.857900 -11.064800 -10.309400
C 0.927700 -10.087200 -10.328700
O 1.438700 -7.296700 -9.722300
H 1.490300 -9.815200 -11.083300
C 1.537000 -9.607700 -9.056000
C 1.702300 -8.122300 -8.852800
O 1.793900 -11.669900 -8.254600
N 1.968400 -10.315300 -8.075800
N 2.163300 -7.776900 -7.633000
H 2.262300 -12.111300 -7.594400
N 2.338400 -6.451400 -7.309000
H 2.352900 -8.401700 -7.041900
H 2.406200 -4.094800 -7.639100
H 2.523500 -7.465500 -4.603200
N 2.647000 -3.855600 -6.827500
N 2.739600 -2.584200 -6.443600
C 2.843800 -6.173500 -6.147000
C 2.958900 -4.748200 -5.856500
O 3.012800 -0.308900 -4.900800
C 3.150700 -2.650400 -5.144500
H 3.232300 -5.335200 -3.165900
C 3.286200 -7.193800 -5.154700
C 3.293500 -3.990600 -4.727100
C 3.345100 -1.375800 -4.454900
H 3.410200 -3.822400 -2.676400
H 3.643000 -7.975500 -5.626000
C 3.681100 -4.482800 -3.346700
O 3.970800 -1.528300 -3.293900
H 3.984200 -6.812300 -4.581800
H 4.165400 -0.653900 -2.894700
H 4.651700 -4.610100 -3.306100
64
Fragment
H -5.954600 -11.540100 -17.007900
H -5.468300 -15.496200 -17.419300
H -5.287100 -9.337900 -15.732200
O -5.273600 -14.621900 -17.020100
C -4.983900 -11.667400 -16.967300
H -4.945800 -8.174700 -14.688000
H -4.713100 -12.327800 -17.637600
C -4.648000 -14.774300 -15.859100
C -4.596400 -12.159600 -15.586900
C -4.589100 -8.956400 -15.159300
H -4.535100 -10.814900 -17.148100
C -4.453600 -13.499800 -15.169500
O -4.315700 -15.841300 -15.413300
C -4.261800 -11.402000 -14.457500
C -4.146700 -9.976700 -14.167000
N -4.042500 -13.566000 -13.870400
N -3.949900 -12.294600 -13.486500
H -3.826300 -8.684700 -15.710900
H -3.709000 -12.055300 -12.674900
H -3.655700 -7.748500 -13.272200
N -3.641300 -9.698800 -13.005000
H -3.565200 -4.038900 -12.719600
N -3.466100 -8.373200 -12.681000
N -3.271200 -5.834900 -12.238200
O -3.096800 -4.480200 -12.059400
C -3.005200 -8.027900 -11.461200
C -2.839800 -6.542500 -11.258000
H -2.793200 -6.335000 -9.230700
O -2.741600 -8.853500 -10.591700
C -2.230600 -6.063000 -9.985400
H -2.160800 -5.085400 -10.004600
H -1.337100 -6.452800 -9.882800
H 0.034300 -9.697400 -10.431200
H 0.857900 -11.064800 -10.309400
C 0.927700 -10.087200 -10.328700
O 1.438700 -7.296700 -9.722300
H 1.490300 -9.815200 -11.083300
C 1.537000 -9.607700 -9.056000
C 1.702300 -8.122300 -8.852800
O 1.793900 -11.669900 -8.254600
N 1.968400 -10.315300 -8.075800
N 2.163300 -7.776900 -7.633000
H 2.262300 -12.111300 -7.594400
N 2.338400 -6.451400 -7.309000
H 2.352900 -8.401700 -7.041900
H 2.406200 -4.094800 -7.639100
H 2.523500 -7.465500 -4.603200
N 2.647000 -3.855600 -6.827500
N 2.739600 -2.584200 -6.443600
C 2.843800 -6.173500 -6.147000
C 2.958900 -4.748200 -5.856500
O 3.012800 -0.308900 -4.900800
C 3.150700 -2.650400 -5.144500
H 3.232300 -5.335200 -3.165900
C 3.286200 -7.193800 -5.154700
C 3.293500 -3.990600 -4.727100
C 3.345100 -1.375800 -4.454900
H 3.410200 -3.822400 -2.676400
H 3.643000 -7.975500 -5.626000
C 3.681100 -4.482800 -3.346700
O 3.970800 -1.528300 -3.293900
H 3.984200 -6.812300 -4.581800
H 4.165400 -0.653900 -2.894700
H 4.651700 -4.610100 -3.306100
