32
Fragment
H -5.954600 -11.540100 -17.007900
H -5.468300 -15.496200 -17.419300
H -5.287100 -9.337900 -15.732200
O -5.273600 -14.621900 -17.020100
C -4.983900 -11.667400 -16.967300
H -4.945800 -8.174700 -14.688000
H -4.713100 -12.327800 -17.637600
C -4.648000 -14.774300 -15.859100
C -4.596400 -12.159600 -15.586900
C -4.589100 -8.956400 -15.159300
H -4.535100 -10.814900 -17.148100
C -4.453600 -13.499800 -15.169500
O -4.315700 -15.841300 -15.413300
C -4.261800 -11.402000 -14.457500
C -4.146700 -9.976700 -14.167000
N -4.042500 -13.566000 -13.870400
N -3.949900 -12.294600 -13.486500
H -3.826300 -8.684700 -15.710900
H -3.709000 -12.055300 -12.674900
H -3.655700 -7.748500 -13.272200
N -3.641300 -9.698800 -13.005000
H -3.565200 -4.038900 -12.719600
N -3.466100 -8.373200 -12.681000
N -3.271200 -5.834900 -12.238200
O -3.096800 -4.480200 -12.059400
C -3.005200 -8.027900 -11.461200
C -2.839800 -6.542500 -11.258000
H -2.793200 -6.335000 -9.230700
O -2.741600 -8.853500 -10.591700
C -2.230600 -6.063000 -9.985400
H -2.160800 -5.085400 -10.004600
H -1.337100 -6.452800 -9.882800
32
Fragment
H -10.175300 -19.615200 -27.164900
H -9.689100 -23.571300 -27.576300
H -9.507900 -17.413000 -25.889200
O -9.494400 -22.697000 -27.177100
C -9.204700 -19.742500 -27.124300
H -9.166600 -16.249800 -24.845000
H -8.933800 -20.402900 -27.794600
C -8.868700 -22.849400 -26.016200
C -8.817100 -20.234700 -25.743900
C -8.809900 -17.031500 -25.316300
H -8.755900 -18.890000 -27.305100
C -8.674400 -21.574900 -25.326500
O -8.536500 -23.916400 -25.570300
C -8.482600 -19.477100 -24.614500
C -8.367500 -18.051800 -24.324000
N -8.263300 -21.641100 -24.027400
N -8.170700 -20.369700 -23.643500
H -8.047100 -16.759800 -25.867900
H -7.929800 -20.130400 -22.831900
H -7.876500 -15.823600 -23.429200
N -7.862100 -17.773900 -23.162000
H -7.785900 -12.114000 -22.876600
N -7.686900 -16.448300 -22.838000
N -7.492000 -13.910000 -22.395200
O -7.317600 -12.555300 -22.216400
C -7.225900 -16.103000 -21.618200
C -7.060600 -14.617500 -21.415000
H -7.014000 -14.410100 -19.387700
O -6.962300 -16.928500 -20.748700
C -6.451400 -14.138100 -20.142400
H -6.381500 -13.160500 -20.161700
H -5.557900 -14.527900 -20.039800
64
Fragment
H -5.954600 -11.540100 -17.007900
H -5.468300 -15.496200 -17.419300
H -5.287100 -9.337900 -15.732200
O -5.273600 -14.621900 -17.020100
C -4.983900 -11.667400 -16.967300
H -4.945800 -8.174700 -14.688000
H -4.713100 -12.327800 -17.637600
C -4.648000 -14.774300 -15.859100
C -4.596400 -12.159600 -15.586900
C -4.589100 -8.956400 -15.159300
H -4.535100 -10.814900 -17.148100
C -4.453600 -13.499800 -15.169500
O -4.315700 -15.841300 -15.413300
C -4.261800 -11.402000 -14.457500
C -4.146700 -9.976700 -14.167000
N -4.042500 -13.566000 -13.870400
N -3.949900 -12.294600 -13.486500
H -3.826300 -8.684700 -15.710900
H -3.709000 -12.055300 -12.674900
H -3.655700 -7.748500 -13.272200
N -3.641300 -9.698800 -13.005000
H -3.565200 -4.038900 -12.719600
N -3.466100 -8.373200 -12.681000
N -3.271200 -5.834900 -12.238200
O -3.096800 -4.480200 -12.059400
C -3.005200 -8.027900 -11.461200
C -2.839800 -6.542500 -11.258000
H -2.793200 -6.335000 -9.230700
O -2.741600 -8.853500 -10.591700
C -2.230600 -6.063000 -9.985400
H -2.160800 -5.085400 -10.004600
H -1.337100 -6.452800 -9.882800
H -10.175300 -19.615200 -27.164900
H -9.689100 -23.571300 -27.576300
H -9.507900 -17.413000 -25.889200
O -9.494400 -22.697000 -27.177100
C -9.204700 -19.742500 -27.124300
H -9.166600 -16.249800 -24.845000
H -8.933800 -20.402900 -27.794600
C -8.868700 -22.849400 -26.016200
C -8.817100 -20.234700 -25.743900
C -8.809900 -17.031500 -25.316300
H -8.755900 -18.890000 -27.305100
C -8.674400 -21.574900 -25.326500
O -8.536500 -23.916400 -25.570300
C -8.482600 -19.477100 -24.614500
C -8.367500 -18.051800 -24.324000
N -8.263300 -21.641100 -24.027400
N -8.170700 -20.369700 -23.643500
H -8.047100 -16.759800 -25.867900
H -7.929800 -20.130400 -22.831900
H -7.876500 -15.823600 -23.429200
N -7.862100 -17.773900 -23.162000
H -7.785900 -12.114000 -22.876600
N -7.686900 -16.448300 -22.838000
N -7.492000 -13.910000 -22.395200
O -7.317600 -12.555300 -22.216400
C -7.225900 -16.103000 -21.618200
C -7.060600 -14.617500 -21.415000
H -7.014000 -14.410100 -19.387700
O -6.962300 -16.928500 -20.748700
C -6.451400 -14.138100 -20.142400
H -6.381500 -13.160500 -20.161700
H -5.557900 -14.527900 -20.039800
