32
Fragment
H -5.954600 -11.540100 -17.007900
H -5.468300 -15.496200 -17.419300
H -5.287100 -9.337900 -15.732200
O -5.273600 -14.621900 -17.020100
C -4.983900 -11.667400 -16.967300
H -4.945800 -8.174700 -14.688000
H -4.713100 -12.327800 -17.637600
C -4.648000 -14.774300 -15.859100
C -4.596400 -12.159600 -15.586900
C -4.589100 -8.956400 -15.159300
H -4.535100 -10.814900 -17.148100
C -4.453600 -13.499800 -15.169500
O -4.315700 -15.841300 -15.413300
C -4.261800 -11.402000 -14.457500
C -4.146700 -9.976700 -14.167000
N -4.042500 -13.566000 -13.870400
N -3.949900 -12.294600 -13.486500
H -3.826300 -8.684700 -15.710900
H -3.709000 -12.055300 -12.674900
H -3.655700 -7.748500 -13.272200
N -3.641300 -9.698800 -13.005000
H -3.565200 -4.038900 -12.719600
N -3.466100 -8.373200 -12.681000
N -3.271200 -5.834900 -12.238200
O -3.096800 -4.480200 -12.059400
C -3.005200 -8.027900 -11.461200
C -2.839800 -6.542500 -11.258000
H -2.793200 -6.335000 -9.230700
O -2.741600 -8.853500 -10.591700
C -2.230600 -6.063000 -9.985400
H -2.160800 -5.085400 -10.004600
H -1.337100 -6.452800 -9.882800
6
Fragment
H -2.598700 -10.090900 -7.442000
H -1.808700 -8.428400 -9.051900
C -1.644000 -9.869800 -7.456300
O -1.447400 -8.688400 -8.190600
H -1.324800 -9.740700 -6.538100
H -1.144600 -10.601800 -7.875700
38
Fragment
H -5.954600 -11.540100 -17.007900
H -5.468300 -15.496200 -17.419300
H -5.287100 -9.337900 -15.732200
O -5.273600 -14.621900 -17.020100
C -4.983900 -11.667400 -16.967300
H -4.945800 -8.174700 -14.688000
H -4.713100 -12.327800 -17.637600
C -4.648000 -14.774300 -15.859100
C -4.596400 -12.159600 -15.586900
C -4.589100 -8.956400 -15.159300
H -4.535100 -10.814900 -17.148100
C -4.453600 -13.499800 -15.169500
O -4.315700 -15.841300 -15.413300
C -4.261800 -11.402000 -14.457500
C -4.146700 -9.976700 -14.167000
N -4.042500 -13.566000 -13.870400
N -3.949900 -12.294600 -13.486500
H -3.826300 -8.684700 -15.710900
H -3.709000 -12.055300 -12.674900
H -3.655700 -7.748500 -13.272200
N -3.641300 -9.698800 -13.005000
H -3.565200 -4.038900 -12.719600
N -3.466100 -8.373200 -12.681000
N -3.271200 -5.834900 -12.238200
O -3.096800 -4.480200 -12.059400
C -3.005200 -8.027900 -11.461200
C -2.839800 -6.542500 -11.258000
H -2.793200 -6.335000 -9.230700
O -2.741600 -8.853500 -10.591700
C -2.230600 -6.063000 -9.985400
H -2.160800 -5.085400 -10.004600
H -1.337100 -6.452800 -9.882800
H -2.598700 -10.090900 -7.442000
H -1.808700 -8.428400 -9.051900
C -1.644000 -9.869800 -7.456300
O -1.447400 -8.688400 -8.190600
H -1.324800 -9.740700 -6.538100
H -1.144600 -10.601800 -7.875700
