16
Fragment
N -8.061400 -24.688900 -17.954100
N -7.620300 -20.758800 -17.847500
C -7.076900 -24.224100 -18.294900
C -6.772100 -21.412500 -18.227800
C -5.836800 -23.636200 -18.723700
C -5.697100 -22.231700 -18.703900
H -4.899500 -25.358900 -19.166900
C -4.802400 -24.434300 -19.157000
C -4.510900 -21.653700 -19.125700
H -4.413700 -20.729100 -19.115800
C -3.616100 -23.856300 -19.578800
C -3.476500 -22.451800 -19.559000
C -2.541200 -24.675500 -20.054900
C -2.236300 -21.863900 -19.987800
N -1.693000 -25.329200 -20.435200
N -1.251900 -21.399100 -20.328600
16
Fragment
N 0.598100 -24.688900 -17.954100
N 1.039200 -20.758800 -17.847500
C 1.582600 -24.224100 -18.294900
C 1.887400 -21.412500 -18.227800
C 2.822700 -23.636200 -18.723700
C 2.962400 -22.231700 -18.703900
H 3.760000 -25.358900 -19.166900
C 3.857100 -24.434300 -19.157000
C 4.148600 -21.653700 -19.125700
H 4.245800 -20.729100 -19.115800
C 5.043400 -23.856300 -19.578800
C 5.183000 -22.451800 -19.559000
C 6.118300 -24.675500 -20.054900
C 6.423200 -21.863900 -19.987800
N 6.966500 -25.329200 -20.435200
N 7.407600 -21.399100 -20.328600
32
Fragment
N -8.061400 -24.688900 -17.954100
N -7.620300 -20.758800 -17.847500
C -7.076900 -24.224100 -18.294900
C -6.772100 -21.412500 -18.227800
C -5.836800 -23.636200 -18.723700
C -5.697100 -22.231700 -18.703900
H -4.899500 -25.358900 -19.166900
C -4.802400 -24.434300 -19.157000
C -4.510900 -21.653700 -19.125700
H -4.413700 -20.729100 -19.115800
C -3.616100 -23.856300 -19.578800
C -3.476500 -22.451800 -19.559000
C -2.541200 -24.675500 -20.054900
C -2.236300 -21.863900 -19.987800
N -1.693000 -25.329200 -20.435200
N -1.251900 -21.399100 -20.328600
N 0.598100 -24.688900 -17.954100
N 1.039200 -20.758800 -17.847500
C 1.582600 -24.224100 -18.294900
C 1.887400 -21.412500 -18.227800
C 2.822700 -23.636200 -18.723700
C 2.962400 -22.231700 -18.703900
H 3.760000 -25.358900 -19.166900
C 3.857100 -24.434300 -19.157000
C 4.148600 -21.653700 -19.125700
H 4.245800 -20.729100 -19.115800
C 5.043400 -23.856300 -19.578800
C 5.183000 -22.451800 -19.559000
C 6.118300 -24.675500 -20.054900
C 6.423200 -21.863900 -19.987800
N 6.966500 -25.329200 -20.435200
N 7.407600 -21.399100 -20.328600
