16
Fragment
N -8.061400 -24.688900 -17.954100
N -7.620300 -20.758800 -17.847500
C -7.076900 -24.224100 -18.294900
C -6.772100 -21.412500 -18.227800
C -5.836800 -23.636200 -18.723700
C -5.697100 -22.231700 -18.703900
H -4.899500 -25.358900 -19.166900
C -4.802400 -24.434300 -19.157000
C -4.510900 -21.653700 -19.125700
H -4.413700 -20.729100 -19.115800
C -3.616100 -23.856300 -19.578800
C -3.476500 -22.451800 -19.559000
C -2.541200 -24.675500 -20.054900
C -2.236300 -21.863900 -19.987800
N -1.693000 -25.329200 -20.435200
N -1.251900 -21.399100 -20.328600
16
Fragment
H -14.373200 -22.211800 -15.170200
H -14.308100 -24.614900 -15.262000
C -13.499100 -22.215100 -15.485700
N -13.497800 -24.615700 -15.548800
H -13.279100 -20.219500 -15.601500
H -13.105900 -25.360300 -15.727800
C -12.837900 -21.028000 -15.731600
C -12.829300 -23.428400 -15.720900
C -11.529200 -23.428400 -16.181300
C -11.520500 -21.028000 -16.170600
H -11.252600 -25.360300 -16.174400
H -11.079400 -20.219500 -16.300800
N -10.860600 -24.615700 -16.353500
C -10.859400 -22.215100 -16.416500
H -10.050400 -24.614900 -16.640200
H -9.985300 -22.211800 -16.732100
32
Fragment
N -8.061400 -24.688900 -17.954100
N -7.620300 -20.758800 -17.847500
C -7.076900 -24.224100 -18.294900
C -6.772100 -21.412500 -18.227800
C -5.836800 -23.636200 -18.723700
C -5.697100 -22.231700 -18.703900
H -4.899500 -25.358900 -19.166900
C -4.802400 -24.434300 -19.157000
C -4.510900 -21.653700 -19.125700
H -4.413700 -20.729100 -19.115800
C -3.616100 -23.856300 -19.578800
C -3.476500 -22.451800 -19.559000
C -2.541200 -24.675500 -20.054900
C -2.236300 -21.863900 -19.987800
N -1.693000 -25.329200 -20.435200
N -1.251900 -21.399100 -20.328600
H -14.373200 -22.211800 -15.170200
H -14.308100 -24.614900 -15.262000
C -13.499100 -22.215100 -15.485700
N -13.497800 -24.615700 -15.548800
H -13.279100 -20.219500 -15.601500
H -13.105900 -25.360300 -15.727800
C -12.837900 -21.028000 -15.731600
C -12.829300 -23.428400 -15.720900
C -11.529200 -23.428400 -16.181300
C -11.520500 -21.028000 -16.170600
H -11.252600 -25.360300 -16.174400
H -11.079400 -20.219500 -16.300800
N -10.860600 -24.615700 -16.353500
C -10.859400 -22.215100 -16.416500
H -10.050400 -24.614900 -16.640200
H -9.985300 -22.211800 -16.732100
