16
Fragment
N -8.061400 -24.688900 -17.954100
N -7.620300 -20.758800 -17.847500
C -7.076900 -24.224100 -18.294900
C -6.772100 -21.412500 -18.227800
C -5.836800 -23.636200 -18.723700
C -5.697100 -22.231700 -18.703900
H -4.899500 -25.358900 -19.166900
C -4.802400 -24.434300 -19.157000
C -4.510900 -21.653700 -19.125700
H -4.413700 -20.729100 -19.115800
C -3.616100 -23.856300 -19.578800
C -3.476500 -22.451800 -19.559000
C -2.541200 -24.675500 -20.054900
C -2.236300 -21.863900 -19.987800
N -1.693000 -25.329200 -20.435200
N -1.251900 -21.399100 -20.328600
16
Fragment
N -3.731600 -18.104900 -17.954100
N -3.290500 -14.174800 -17.847500
C -2.747200 -17.640100 -18.294900
C -2.442300 -14.828500 -18.227800
C -1.507000 -17.052200 -18.723700
C -1.367400 -15.647700 -18.703900
H -0.569800 -18.774900 -19.166900
C -0.472700 -17.850300 -19.157000
C -0.181100 -15.069700 -19.125700
H -0.084000 -14.145100 -19.115800
C 0.713600 -17.272300 -19.578800
C 0.853200 -15.867800 -19.559000
C 1.788600 -18.091500 -20.054900
C 2.093400 -15.279900 -19.987800
N 2.636800 -18.745200 -20.435200
N 3.077800 -14.815100 -20.328600
32
Fragment
N -8.061400 -24.688900 -17.954100
N -7.620300 -20.758800 -17.847500
C -7.076900 -24.224100 -18.294900
C -6.772100 -21.412500 -18.227800
C -5.836800 -23.636200 -18.723700
C -5.697100 -22.231700 -18.703900
H -4.899500 -25.358900 -19.166900
C -4.802400 -24.434300 -19.157000
C -4.510900 -21.653700 -19.125700
H -4.413700 -20.729100 -19.115800
C -3.616100 -23.856300 -19.578800
C -3.476500 -22.451800 -19.559000
C -2.541200 -24.675500 -20.054900
C -2.236300 -21.863900 -19.987800
N -1.693000 -25.329200 -20.435200
N -1.251900 -21.399100 -20.328600
N -3.731600 -18.104900 -17.954100
N -3.290500 -14.174800 -17.847500
C -2.747200 -17.640100 -18.294900
C -2.442300 -14.828500 -18.227800
C -1.507000 -17.052200 -18.723700
C -1.367400 -15.647700 -18.703900
H -0.569800 -18.774900 -19.166900
C -0.472700 -17.850300 -19.157000
C -0.181100 -15.069700 -19.125700
H -0.084000 -14.145100 -19.115800
C 0.713600 -17.272300 -19.578800
C 0.853200 -15.867800 -19.559000
C 1.788600 -18.091500 -20.054900
C 2.093400 -15.279900 -19.987800
N 2.636800 -18.745200 -20.435200
N 3.077800 -14.815100 -20.328600
