3
Fragment
H -17.477200 -7.731000 -23.826400
O -17.080800 -7.056500 -23.285200
H -16.193500 -6.870400 -23.616100
27
Fragment
H -18.025200 -4.757700 -17.505700
H -17.953800 -6.293400 -16.882600
N -17.929000 -5.627100 -17.666500
H -17.654600 -3.353200 -20.005800
H -17.452200 -5.415700 -20.236200
O -17.043300 -3.598700 -19.436800
C -16.737800 -4.963700 -19.685800
C -16.632300 -5.708600 -18.363800
H -16.521300 -6.659000 -18.564800
H -16.177700 -4.894800 -22.343600
H -15.798600 -3.547500 -21.686500
O -15.664000 -3.947300 -16.993900
N -15.478900 -4.394900 -21.783900
C -15.444200 -5.259300 -17.510300
C -15.422000 -5.072100 -20.485100
H -15.358100 -5.854500 -16.796000
H -15.291900 -6.085200 -20.619700
H -15.171000 -3.041500 -19.240500
H -15.053200 -3.514500 -16.262600
O -14.321300 -3.135100 -19.473900
C -14.246400 -4.554000 -19.656400
C -14.132800 -5.291300 -18.322100
H -13.962800 -6.232200 -18.487500
H -13.420100 -4.697700 -20.185200
H -13.151300 -3.913700 -17.279900
N -13.021600 -4.828200 -17.487100
H -12.326500 -4.918500 -17.957200
30
Fragment
H -17.477200 -7.731000 -23.826400
O -17.080800 -7.056500 -23.285200
H -16.193500 -6.870400 -23.616100
H -18.025200 -4.757700 -17.505700
H -17.953800 -6.293400 -16.882600
N -17.929000 -5.627100 -17.666500
H -17.654600 -3.353200 -20.005800
H -17.452200 -5.415700 -20.236200
O -17.043300 -3.598700 -19.436800
C -16.737800 -4.963700 -19.685800
C -16.632300 -5.708600 -18.363800
H -16.521300 -6.659000 -18.564800
H -16.177700 -4.894800 -22.343600
H -15.798600 -3.547500 -21.686500
O -15.664000 -3.947300 -16.993900
N -15.478900 -4.394900 -21.783900
C -15.444200 -5.259300 -17.510300
C -15.422000 -5.072100 -20.485100
H -15.358100 -5.854500 -16.796000
H -15.291900 -6.085200 -20.619700
H -15.171000 -3.041500 -19.240500
H -15.053200 -3.514500 -16.262600
O -14.321300 -3.135100 -19.473900
C -14.246400 -4.554000 -19.656400
C -14.132800 -5.291300 -18.322100
H -13.962800 -6.232200 -18.487500
H -13.420100 -4.697700 -20.185200
H -13.151300 -3.913700 -17.279900
N -13.021600 -4.828200 -17.487100
H -12.326500 -4.918500 -17.957200
