3
Fragment
H -17.477200 -7.731000 -23.826400
O -17.080800 -7.056500 -23.285200
H -16.193500 -6.870400 -23.616100
27
Fragment
H -23.035900 -9.007300 -25.236500
H -22.964500 -7.471600 -24.613400
N -22.939700 -8.137900 -25.397300
H -22.665200 -10.411800 -27.736700
H -22.462900 -8.349300 -27.967000
O -22.054000 -10.166300 -27.167700
C -21.748500 -8.801300 -27.416600
C -21.643000 -8.056400 -26.094600
H -21.532000 -7.106000 -26.295600
H -21.188300 -8.870200 -30.074500
H -20.809200 -10.217500 -29.417300
O -20.674700 -9.817700 -24.724700
N -20.489500 -9.370100 -29.514700
C -20.454900 -8.505700 -25.241100
C -20.432700 -8.692900 -28.216000
H -20.368800 -7.910500 -24.526800
H -20.302600 -7.679800 -28.350500
H -20.181600 -10.723500 -26.971300
H -20.063800 -10.250500 -23.993400
O -19.332000 -10.629900 -27.204800
C -19.257000 -9.211000 -27.387200
C -19.143500 -8.473700 -26.052900
H -18.973500 -7.532800 -26.218300
H -18.430700 -9.067300 -27.916000
H -18.162000 -9.851300 -25.010800
N -18.032200 -8.936800 -25.218000
H -17.337100 -8.846500 -25.688000
30
Fragment
H -17.477200 -7.731000 -23.826400
O -17.080800 -7.056500 -23.285200
H -16.193500 -6.870400 -23.616100
H -23.035900 -9.007300 -25.236500
H -22.964500 -7.471600 -24.613400
N -22.939700 -8.137900 -25.397300
H -22.665200 -10.411800 -27.736700
H -22.462900 -8.349300 -27.967000
O -22.054000 -10.166300 -27.167700
C -21.748500 -8.801300 -27.416600
C -21.643000 -8.056400 -26.094600
H -21.532000 -7.106000 -26.295600
H -21.188300 -8.870200 -30.074500
H -20.809200 -10.217500 -29.417300
O -20.674700 -9.817700 -24.724700
N -20.489500 -9.370100 -29.514700
C -20.454900 -8.505700 -25.241100
C -20.432700 -8.692900 -28.216000
H -20.368800 -7.910500 -24.526800
H -20.302600 -7.679800 -28.350500
H -20.181600 -10.723500 -26.971300
H -20.063800 -10.250500 -23.993400
O -19.332000 -10.629900 -27.204800
C -19.257000 -9.211000 -27.387200
C -19.143500 -8.473700 -26.052900
H -18.973500 -7.532800 -26.218300
H -18.430700 -9.067300 -27.916000
H -18.162000 -9.851300 -25.010800
N -18.032200 -8.936800 -25.218000
H -17.337100 -8.846500 -25.688000
