3
Fragment
H -17.477200 -7.731000 -23.826400
O -17.080800 -7.056500 -23.285200
H -16.193500 -6.870400 -23.616100
27
Fragment
H -24.728800 -7.671500 -20.697000
N -24.033700 -7.581200 -21.167000
H -23.903900 -6.666700 -21.374200
H -23.635200 -7.450700 -18.468900
H -23.092500 -8.985200 -20.166600
C -22.922500 -8.044300 -20.332100
C -22.808900 -7.307000 -18.997700
O -22.734000 -5.888100 -19.180200
H -22.002100 -6.267500 -22.391600
H -21.884300 -5.794500 -19.413600
H -21.763300 -8.838200 -18.034500
H -21.697200 -8.607500 -21.858100
C -21.633300 -7.825100 -18.169000
C -21.611100 -8.012300 -21.143800
N -21.576400 -7.147900 -16.870200
O -21.391300 -6.700300 -21.660200
H -21.256700 -6.300500 -16.967600
H -20.877600 -7.647800 -16.310500
H -20.533900 -9.412000 -20.089300
C -20.423000 -8.461600 -20.290300
C -20.317500 -7.716700 -18.968400
O -20.012000 -6.351700 -19.217300
H -19.603100 -8.168700 -18.417900
H -19.400700 -6.106200 -18.648300
N -19.126300 -8.380100 -20.987600
H -19.101400 -9.046400 -21.771600
H -19.030000 -7.510700 -21.148400
30
Fragment
H -17.477200 -7.731000 -23.826400
O -17.080800 -7.056500 -23.285200
H -16.193500 -6.870400 -23.616100
H -24.728800 -7.671500 -20.697000
N -24.033700 -7.581200 -21.167000
H -23.903900 -6.666700 -21.374200
H -23.635200 -7.450700 -18.468900
H -23.092500 -8.985200 -20.166600
C -22.922500 -8.044300 -20.332100
C -22.808900 -7.307000 -18.997700
O -22.734000 -5.888100 -19.180200
H -22.002100 -6.267500 -22.391600
H -21.884300 -5.794500 -19.413600
H -21.763300 -8.838200 -18.034500
H -21.697200 -8.607500 -21.858100
C -21.633300 -7.825100 -18.169000
C -21.611100 -8.012300 -21.143800
N -21.576400 -7.147900 -16.870200
O -21.391300 -6.700300 -21.660200
H -21.256700 -6.300500 -16.967600
H -20.877600 -7.647800 -16.310500
H -20.533900 -9.412000 -20.089300
C -20.423000 -8.461600 -20.290300
C -20.317500 -7.716700 -18.968400
O -20.012000 -6.351700 -19.217300
H -19.603100 -8.168700 -18.417900
H -19.400700 -6.106200 -18.648300
N -19.126300 -8.380100 -20.987600
H -19.101400 -9.046400 -21.771600
H -19.030000 -7.510700 -21.148400
