3
Fragment
H -17.477200 -7.731000 -23.826400
O -17.080800 -7.056500 -23.285200
H -16.193500 -6.870400 -23.616100
27
Fragment
H -18.025200 -10.263700 -17.505700
H -17.953800 -11.799400 -16.882600
N -17.929000 -11.133100 -17.666500
H -17.654600 -8.859200 -20.005800
H -17.452200 -10.921700 -20.236200
O -17.043300 -9.104700 -19.436800
C -16.737800 -10.469700 -19.685800
C -16.632300 -11.214600 -18.363800
H -16.521300 -12.165000 -18.564800
H -16.177700 -10.400800 -22.343600
H -15.798600 -9.053500 -21.686500
O -15.664000 -9.453300 -16.993900
N -15.478900 -9.900900 -21.783900
C -15.444200 -10.765300 -17.510300
C -15.422000 -10.578100 -20.485100
H -15.358100 -11.360500 -16.796000
H -15.291900 -11.591200 -20.619700
H -15.171000 -8.547500 -19.240500
H -15.053200 -9.020500 -16.262600
O -14.321300 -8.641100 -19.473900
C -14.246400 -10.060000 -19.656400
C -14.132800 -10.797300 -18.322100
H -13.962800 -11.738200 -18.487500
H -13.420100 -10.203700 -20.185200
H -13.151300 -9.419700 -17.279900
N -13.021600 -10.334200 -17.487100
H -12.326500 -10.424500 -17.957200
30
Fragment
H -17.477200 -7.731000 -23.826400
O -17.080800 -7.056500 -23.285200
H -16.193500 -6.870400 -23.616100
H -18.025200 -10.263700 -17.505700
H -17.953800 -11.799400 -16.882600
N -17.929000 -11.133100 -17.666500
H -17.654600 -8.859200 -20.005800
H -17.452200 -10.921700 -20.236200
O -17.043300 -9.104700 -19.436800
C -16.737800 -10.469700 -19.685800
C -16.632300 -11.214600 -18.363800
H -16.521300 -12.165000 -18.564800
H -16.177700 -10.400800 -22.343600
H -15.798600 -9.053500 -21.686500
O -15.664000 -9.453300 -16.993900
N -15.478900 -9.900900 -21.783900
C -15.444200 -10.765300 -17.510300
C -15.422000 -10.578100 -20.485100
H -15.358100 -11.360500 -16.796000
H -15.291900 -11.591200 -20.619700
H -15.171000 -8.547500 -19.240500
H -15.053200 -9.020500 -16.262600
O -14.321300 -8.641100 -19.473900
C -14.246400 -10.060000 -19.656400
C -14.132800 -10.797300 -18.322100
H -13.962800 -11.738200 -18.487500
H -13.420100 -10.203700 -20.185200
H -13.151300 -9.419700 -17.279900
N -13.021600 -10.334200 -17.487100
H -12.326500 -10.424500 -17.957200
