34
Fragment
O -24.533200 -25.369600 -22.988200
H -24.052400 -25.267300 -25.410100
N -23.514900 -24.663900 -22.933900
C -23.349300 -24.659400 -25.356700
O -23.056800 -24.317700 -21.846000
H -23.052200 -24.471200 -27.314600
C -22.884200 -24.219100 -24.128800
C -22.749800 -24.178100 -26.485700
C -21.817000 -23.323400 -24.027900
C -21.696200 -23.259500 -26.434700
H -21.523800 -23.050700 -23.188100
H -21.512800 -23.004200 -28.344000
C -21.195100 -22.841100 -25.156400
N -21.187000 -22.757800 -27.586500
H -20.539400 -22.192800 -27.559300
H -20.194800 -20.991700 -23.348300
N -20.149600 -21.941200 -25.097700
H -19.835300 -21.590800 -25.818000
C -19.589300 -21.594300 -23.807100
H -19.506300 -22.398100 -23.269700
H -18.465100 -18.982200 -23.372000
C -18.245900 -20.944400 -23.931800
C -17.901000 -19.665000 -23.657400
N -17.154700 -21.678400 -24.329100
N -16.545200 -19.579500 -23.887600
C -16.126000 -20.832200 -24.298400
H -15.957400 -17.697800 -23.495200
C -15.659400 -18.536100 -23.763600
C -14.762800 -21.035900 -24.587400
H -14.459600 -21.869500 -24.868700
C -14.357800 -18.739300 -24.035100
C -13.896800 -19.998700 -24.450100
H -13.756100 -18.036400 -23.946100
H -12.993800 -20.123600 -24.632800
34
Fragment
H -31.568100 -32.509600 -31.045100
H -31.275900 -34.729500 -31.503400
C -30.729700 -32.835700 -31.281300
C -30.553400 -34.147200 -31.556600
H -30.206000 -30.055600 -30.864100
N -29.640400 -31.990000 -31.356700
C -29.525300 -30.639200 -31.109600
C -29.286600 -34.639300 -31.923700
H -29.183600 -35.543700 -32.116000
C -28.372400 -32.442900 -31.696800
C -28.216600 -30.334400 -31.295600
C -28.213700 -33.808000 -31.999800
H -28.181100 -28.391400 -30.699400
C -27.542500 -29.018900 -31.074900
N -27.495300 -31.446400 -31.666700
H -27.381300 -34.139300 -32.251000
H -27.267000 -28.788400 -33.059300
N -27.003900 -28.472400 -32.304400
H -26.823700 -29.131000 -30.433900
H -26.678200 -27.988500 -34.714700
N -26.088900 -27.361800 -34.701800
C -26.072800 -27.450500 -32.279300
H -25.826400 -27.296600 -30.284100
H -25.808000 -27.020600 -35.440000
C -25.602900 -26.911600 -33.516800
C -25.539200 -26.957300 -31.101000
C -24.644900 -25.893500 -33.492200
C -24.569300 -25.951800 -31.132900
O -24.457500 -25.930200 -28.836600
H -24.351900 -25.533900 -34.297900
C -24.124000 -25.407000 -32.324400
N -24.048800 -25.446100 -29.899500
H -23.488500 -24.728700 -32.331100
O -23.236200 -24.522500 -29.914600
68
Fragment
O -24.533200 -25.369600 -22.988200
H -24.052400 -25.267300 -25.410100
N -23.514900 -24.663900 -22.933900
C -23.349300 -24.659400 -25.356700
O -23.056800 -24.317700 -21.846000
H -23.052200 -24.471200 -27.314600
C -22.884200 -24.219100 -24.128800
C -22.749800 -24.178100 -26.485700
C -21.817000 -23.323400 -24.027900
C -21.696200 -23.259500 -26.434700
H -21.523800 -23.050700 -23.188100
H -21.512800 -23.004200 -28.344000
C -21.195100 -22.841100 -25.156400
N -21.187000 -22.757800 -27.586500
H -20.539400 -22.192800 -27.559300
H -20.194800 -20.991700 -23.348300
N -20.149600 -21.941200 -25.097700
H -19.835300 -21.590800 -25.818000
C -19.589300 -21.594300 -23.807100
H -19.506300 -22.398100 -23.269700
H -18.465100 -18.982200 -23.372000
C -18.245900 -20.944400 -23.931800
C -17.901000 -19.665000 -23.657400
N -17.154700 -21.678400 -24.329100
N -16.545200 -19.579500 -23.887600
C -16.126000 -20.832200 -24.298400
H -15.957400 -17.697800 -23.495200
C -15.659400 -18.536100 -23.763600
C -14.762800 -21.035900 -24.587400
H -14.459600 -21.869500 -24.868700
C -14.357800 -18.739300 -24.035100
C -13.896800 -19.998700 -24.450100
H -13.756100 -18.036400 -23.946100
H -12.993800 -20.123600 -24.632800
H -31.568100 -32.509600 -31.045100
H -31.275900 -34.729500 -31.503400
C -30.729700 -32.835700 -31.281300
C -30.553400 -34.147200 -31.556600
H -30.206000 -30.055600 -30.864100
N -29.640400 -31.990000 -31.356700
C -29.525300 -30.639200 -31.109600
C -29.286600 -34.639300 -31.923700
H -29.183600 -35.543700 -32.116000
C -28.372400 -32.442900 -31.696800
C -28.216600 -30.334400 -31.295600
C -28.213700 -33.808000 -31.999800
H -28.181100 -28.391400 -30.699400
C -27.542500 -29.018900 -31.074900
N -27.495300 -31.446400 -31.666700
H -27.381300 -34.139300 -32.251000
H -27.267000 -28.788400 -33.059300
N -27.003900 -28.472400 -32.304400
H -26.823700 -29.131000 -30.433900
H -26.678200 -27.988500 -34.714700
N -26.088900 -27.361800 -34.701800
C -26.072800 -27.450500 -32.279300
H -25.826400 -27.296600 -30.284100
H -25.808000 -27.020600 -35.440000
C -25.602900 -26.911600 -33.516800
C -25.539200 -26.957300 -31.101000
C -24.644900 -25.893500 -33.492200
C -24.569300 -25.951800 -31.132900
O -24.457500 -25.930200 -28.836600
H -24.351900 -25.533900 -34.297900
C -24.124000 -25.407000 -32.324400
N -24.048800 -25.446100 -29.899500
H -23.488500 -24.728700 -32.331100
O -23.236200 -24.522500 -29.914600
