34
Fragment
O -24.533200 -25.369600 -22.988200
H -24.052400 -25.267300 -25.410100
N -23.514900 -24.663900 -22.933900
C -23.349300 -24.659400 -25.356700
O -23.056800 -24.317700 -21.846000
H -23.052200 -24.471200 -27.314600
C -22.884200 -24.219100 -24.128800
C -22.749800 -24.178100 -26.485700
C -21.817000 -23.323400 -24.027900
C -21.696200 -23.259500 -26.434700
H -21.523800 -23.050700 -23.188100
H -21.512800 -23.004200 -28.344000
C -21.195100 -22.841100 -25.156400
N -21.187000 -22.757800 -27.586500
H -20.539400 -22.192800 -27.559300
H -20.194800 -20.991700 -23.348300
N -20.149600 -21.941200 -25.097700
H -19.835300 -21.590800 -25.818000
C -19.589300 -21.594300 -23.807100
H -19.506300 -22.398100 -23.269700
H -18.465100 -18.982200 -23.372000
C -18.245900 -20.944400 -23.931800
C -17.901000 -19.665000 -23.657400
N -17.154700 -21.678400 -24.329100
N -16.545200 -19.579500 -23.887600
C -16.126000 -20.832200 -24.298400
H -15.957400 -17.697800 -23.495200
C -15.659400 -18.536100 -23.763600
C -14.762800 -21.035900 -24.587400
H -14.459600 -21.869500 -24.868700
C -14.357800 -18.739300 -24.035100
C -13.896800 -19.998700 -24.450100
H -13.756100 -18.036400 -23.946100
H -12.993800 -20.123600 -24.632800
3
Fragment
H -17.842500 -18.170000 -20.570100
H -17.428300 -18.293800 -19.267800
O -17.169200 -18.105600 -20.055400
37
Fragment
O -24.533200 -25.369600 -22.988200
H -24.052400 -25.267300 -25.410100
N -23.514900 -24.663900 -22.933900
C -23.349300 -24.659400 -25.356700
O -23.056800 -24.317700 -21.846000
H -23.052200 -24.471200 -27.314600
C -22.884200 -24.219100 -24.128800
C -22.749800 -24.178100 -26.485700
C -21.817000 -23.323400 -24.027900
C -21.696200 -23.259500 -26.434700
H -21.523800 -23.050700 -23.188100
H -21.512800 -23.004200 -28.344000
C -21.195100 -22.841100 -25.156400
N -21.187000 -22.757800 -27.586500
H -20.539400 -22.192800 -27.559300
H -20.194800 -20.991700 -23.348300
N -20.149600 -21.941200 -25.097700
H -19.835300 -21.590800 -25.818000
C -19.589300 -21.594300 -23.807100
H -19.506300 -22.398100 -23.269700
H -18.465100 -18.982200 -23.372000
C -18.245900 -20.944400 -23.931800
C -17.901000 -19.665000 -23.657400
N -17.154700 -21.678400 -24.329100
N -16.545200 -19.579500 -23.887600
C -16.126000 -20.832200 -24.298400
H -15.957400 -17.697800 -23.495200
C -15.659400 -18.536100 -23.763600
C -14.762800 -21.035900 -24.587400
H -14.459600 -21.869500 -24.868700
C -14.357800 -18.739300 -24.035100
C -13.896800 -19.998700 -24.450100
H -13.756100 -18.036400 -23.946100
H -12.993800 -20.123600 -24.632800
H -17.842500 -18.170000 -20.570100
H -17.428300 -18.293800 -19.267800
O -17.169200 -18.105600 -20.055400
