38
Fragment
H -9.506700 -14.078200 -24.465600
H -9.206900 -11.811500 -25.652900
C -8.805900 -13.782800 -23.930800
N -8.406500 -14.455700 -22.861300
C -8.345600 -11.664200 -25.255000
H -8.310400 -10.777600 -24.887300
N -8.128000 -12.637700 -24.193400
H -7.663500 -11.761800 -25.921800
H -7.610300 -15.621000 -20.835200
C -7.375600 -13.648300 -22.436300
C -7.185100 -12.553100 -23.219400
H -6.978300 -14.907800 -19.590600
C -6.838300 -15.155300 -20.507300
N -6.616200 -13.928500 -21.323800
C -6.201100 -11.563400 -22.902600
H -6.068400 -15.725800 -20.571000
O -5.976000 -10.552600 -23.561500
H -5.849700 -9.568800 -20.575800
C -5.619300 -13.033600 -20.943400
N -5.490900 -11.888200 -21.756700
H -5.447500 -7.615900 -19.143400
H -5.253100 -10.496500 -19.458500
H -5.113300 -5.423400 -17.911500
C -5.033400 -9.980400 -20.249500
O -4.949700 -13.220100 -19.974200
H -4.709200 -8.409200 -18.014900
C -4.578000 -7.927500 -18.847300
C -4.481000 -10.898200 -21.307900
H -4.371200 -6.157900 -16.743300
C -4.263200 -5.742900 -17.601100
H -4.188700 -10.372400 -22.068700
C -4.037200 -8.898800 -19.883400
H -3.797000 -8.405600 -20.684000
C -3.721900 -6.742100 -18.573600
H -3.709100 -11.367500 -20.953000
H -3.652200 -5.006200 -17.526300
H -3.231800 -9.314100 -19.538100
O -2.660500 -6.589100 -19.098800
38
Fragment
O -11.904700 -12.310400 -28.648200
H -11.333300 -9.585400 -28.208900
H -10.913000 -13.893300 -30.220700
H -10.856000 -7.532000 -26.794000
C -10.843300 -12.157400 -29.173400
H -10.768200 -10.493900 -27.063000
C -10.527900 -10.000800 -27.863600
H -10.376500 -8.527200 -25.678300
C -10.302000 -13.156600 -30.145900
H -10.194000 -12.741600 -31.003700
C -10.084200 -8.001300 -26.439100
C -9.987200 -10.972000 -28.899700
H -9.856000 -10.490400 -29.732100
O -9.615500 -5.679400 -27.772800
C -9.531800 -8.919100 -27.497500
H -9.451900 -13.476100 -29.835500
H -9.312100 -8.403000 -28.288500
H -9.117700 -11.283600 -28.603600
N -9.074300 -7.011400 -25.990300
C -8.945900 -5.866000 -26.803600
H -8.715400 -9.330800 -27.171200
O -8.589200 -8.346900 -24.185400
H -8.496800 -3.173800 -27.176000
C -8.364100 -7.336100 -24.844400
N -7.949000 -4.971000 -26.423200
C -7.726900 -3.744300 -27.239700
H -7.586900 -3.991700 -28.156400
C -7.380100 -6.346400 -24.527600
C -7.189600 -5.251300 -25.310700
H -6.954900 -3.278500 -26.911800
H -6.901600 -7.137700 -21.825200
N -6.437200 -6.261800 -23.553600
H -6.254800 -8.121900 -22.859700
C -6.219600 -7.235400 -22.492000
N -6.158700 -4.443900 -24.885700
C -5.759200 -5.116800 -23.816200
H -5.358300 -7.088100 -22.094100
H -5.058500 -4.821400 -23.281400
76
Fragment
H -9.506700 -14.078200 -24.465600
H -9.206900 -11.811500 -25.652900
C -8.805900 -13.782800 -23.930800
N -8.406500 -14.455700 -22.861300
C -8.345600 -11.664200 -25.255000
H -8.310400 -10.777600 -24.887300
N -8.128000 -12.637700 -24.193400
H -7.663500 -11.761800 -25.921800
H -7.610300 -15.621000 -20.835200
C -7.375600 -13.648300 -22.436300
C -7.185100 -12.553100 -23.219400
H -6.978300 -14.907800 -19.590600
C -6.838300 -15.155300 -20.507300
N -6.616200 -13.928500 -21.323800
C -6.201100 -11.563400 -22.902600
H -6.068400 -15.725800 -20.571000
O -5.976000 -10.552600 -23.561500
H -5.849700 -9.568800 -20.575800
C -5.619300 -13.033600 -20.943400
N -5.490900 -11.888200 -21.756700
H -5.447500 -7.615900 -19.143400
H -5.253100 -10.496500 -19.458500
H -5.113300 -5.423400 -17.911500
C -5.033400 -9.980400 -20.249500
O -4.949700 -13.220100 -19.974200
H -4.709200 -8.409200 -18.014900
C -4.578000 -7.927500 -18.847300
C -4.481000 -10.898200 -21.307900
H -4.371200 -6.157900 -16.743300
C -4.263200 -5.742900 -17.601100
H -4.188700 -10.372400 -22.068700
C -4.037200 -8.898800 -19.883400
H -3.797000 -8.405600 -20.684000
C -3.721900 -6.742100 -18.573600
H -3.709100 -11.367500 -20.953000
H -3.652200 -5.006200 -17.526300
H -3.231800 -9.314100 -19.538100
O -2.660500 -6.589100 -19.098800
O -11.904700 -12.310400 -28.648200
H -11.333300 -9.585400 -28.208900
H -10.913000 -13.893300 -30.220700
H -10.856000 -7.532000 -26.794000
C -10.843300 -12.157400 -29.173400
H -10.768200 -10.493900 -27.063000
C -10.527900 -10.000800 -27.863600
H -10.376500 -8.527200 -25.678300
C -10.302000 -13.156600 -30.145900
H -10.194000 -12.741600 -31.003700
C -10.084200 -8.001300 -26.439100
C -9.987200 -10.972000 -28.899700
H -9.856000 -10.490400 -29.732100
O -9.615500 -5.679400 -27.772800
C -9.531800 -8.919100 -27.497500
H -9.451900 -13.476100 -29.835500
H -9.312100 -8.403000 -28.288500
H -9.117700 -11.283600 -28.603600
N -9.074300 -7.011400 -25.990300
C -8.945900 -5.866000 -26.803600
H -8.715400 -9.330800 -27.171200
O -8.589200 -8.346900 -24.185400
H -8.496800 -3.173800 -27.176000
C -8.364100 -7.336100 -24.844400
N -7.949000 -4.971000 -26.423200
C -7.726900 -3.744300 -27.239700
H -7.586900 -3.991700 -28.156400
C -7.380100 -6.346400 -24.527600
C -7.189600 -5.251300 -25.310700
H -6.954900 -3.278500 -26.911800
H -6.901600 -7.137700 -21.825200
N -6.437200 -6.261800 -23.553600
H -6.254800 -8.121900 -22.859700
C -6.219600 -7.235400 -22.492000
N -6.158700 -4.443900 -24.885700
C -5.759200 -5.116800 -23.816200
H -5.358300 -7.088100 -22.094100
H -5.058500 -4.821400 -23.281400
