36
Fragment
H -10.904700 -14.231600 -44.592500
H -10.469300 -13.100600 -42.620700
C -10.182900 -13.645900 -44.552300
C -9.928500 -12.965900 -43.365400
H -9.565700 -13.952900 -46.449400
C -9.389900 -13.473600 -45.670300
C -8.864800 -12.089700 -43.307000
H -8.673200 -11.643300 -42.512200
C -8.333700 -12.585500 -45.623400
C -8.071700 -11.870600 -44.443200
O -7.576000 -12.420500 -46.720300
C -6.972600 -10.940400 -44.338200
H -6.863000 -11.676300 -46.573900
H -6.830800 -10.499500 -43.530000
N -6.178000 -10.698400 -45.329800
C -5.148200 -9.785600 -45.076800
N -4.875300 -9.130300 -43.967700
H -4.389500 -7.745400 -42.097400
H -4.305200 -6.865600 -39.870300
N -4.243100 -9.524400 -46.033700
H -4.143800 -9.861600 -46.899300
C -3.749500 -8.442900 -44.298300
C -3.555000 -7.382500 -42.290400
C -3.500100 -6.431200 -40.041000
H -3.340800 -5.574200 -38.227100
N -3.308400 -8.648200 -45.547100
N -3.022500 -7.614400 -43.441000
C -2.929000 -5.658500 -39.057000
C -2.895000 -6.576000 -41.291800
C -1.745200 -5.016100 -39.312600
C -1.679600 -5.929800 -41.530700
H -1.598900 -6.562200 -43.431100
H -1.359000 -4.494600 -38.645100
C -1.111400 -5.124200 -40.537500
O -1.019900 -6.053500 -42.700400
H -0.317600 -4.666900 -40.699900
36
Fragment
H -13.860700 -9.249400 -39.066300
O -13.158400 -10.636100 -37.065700
C -13.066800 -9.706800 -39.228700
H -12.819300 -9.077100 -41.121100
H -12.579400 -11.144800 -36.335100
C -12.498700 -10.512400 -38.235400
C -12.433100 -9.598600 -40.453600
C -11.283300 -11.158500 -38.474400
C -11.249300 -10.241100 -40.709100
N -11.155800 -12.196900 -36.325200
N -10.869900 -13.230700 -34.219000
H -10.837500 -10.156800 -41.539000
C -10.678200 -11.013700 -39.725100
C -10.623300 -11.965000 -37.475700
C -10.428800 -13.025400 -35.467900
H -10.034500 -14.444200 -32.866800
N -9.935200 -14.106900 -33.732500
H -9.873100 -11.448100 -39.895800
H -9.788800 -12.328000 -37.668800
N -9.303000 -13.712800 -35.798400
C -9.030100 -14.368100 -34.689300
N -8.000300 -15.281000 -34.436300
H -7.347500 -15.082100 -36.236200
H -7.315300 -16.258900 -33.192300
C -7.205700 -15.522900 -35.428000
O -6.602300 -17.003100 -33.045800
C -6.106500 -16.453200 -35.323000
C -5.844600 -17.168100 -34.142800
H -5.505100 -16.225900 -37.254000
C -5.313500 -16.672200 -36.459200
C -4.788400 -18.056200 -34.095900
H -4.612500 -18.535500 -33.316700
C -4.249700 -17.548400 -36.400800
C -3.995400 -18.228500 -35.213900
H -3.709000 -17.683100 -37.145500
H -3.273600 -18.814100 -35.173700
72
Fragment
H -10.904700 -14.231600 -44.592500
H -10.469300 -13.100600 -42.620700
C -10.182900 -13.645900 -44.552300
C -9.928500 -12.965900 -43.365400
H -9.565700 -13.952900 -46.449400
C -9.389900 -13.473600 -45.670300
C -8.864800 -12.089700 -43.307000
H -8.673200 -11.643300 -42.512200
C -8.333700 -12.585500 -45.623400
C -8.071700 -11.870600 -44.443200
O -7.576000 -12.420500 -46.720300
C -6.972600 -10.940400 -44.338200
H -6.863000 -11.676300 -46.573900
H -6.830800 -10.499500 -43.530000
N -6.178000 -10.698400 -45.329800
C -5.148200 -9.785600 -45.076800
N -4.875300 -9.130300 -43.967700
H -4.389500 -7.745400 -42.097400
H -4.305200 -6.865600 -39.870300
N -4.243100 -9.524400 -46.033700
H -4.143800 -9.861600 -46.899300
C -3.749500 -8.442900 -44.298300
C -3.555000 -7.382500 -42.290400
C -3.500100 -6.431200 -40.041000
H -3.340800 -5.574200 -38.227100
N -3.308400 -8.648200 -45.547100
N -3.022500 -7.614400 -43.441000
C -2.929000 -5.658500 -39.057000
C -2.895000 -6.576000 -41.291800
C -1.745200 -5.016100 -39.312600
C -1.679600 -5.929800 -41.530700
H -1.598900 -6.562200 -43.431100
H -1.359000 -4.494600 -38.645100
C -1.111400 -5.124200 -40.537500
O -1.019900 -6.053500 -42.700400
H -0.317600 -4.666900 -40.699900
H -13.860700 -9.249400 -39.066300
O -13.158400 -10.636100 -37.065700
C -13.066800 -9.706800 -39.228700
H -12.819300 -9.077100 -41.121100
H -12.579400 -11.144800 -36.335100
C -12.498700 -10.512400 -38.235400
C -12.433100 -9.598600 -40.453600
C -11.283300 -11.158500 -38.474400
C -11.249300 -10.241100 -40.709100
N -11.155800 -12.196900 -36.325200
N -10.869900 -13.230700 -34.219000
H -10.837500 -10.156800 -41.539000
C -10.678200 -11.013700 -39.725100
C -10.623300 -11.965000 -37.475700
C -10.428800 -13.025400 -35.467900
H -10.034500 -14.444200 -32.866800
N -9.935200 -14.106900 -33.732500
H -9.873100 -11.448100 -39.895800
H -9.788800 -12.328000 -37.668800
N -9.303000 -13.712800 -35.798400
C -9.030100 -14.368100 -34.689300
N -8.000300 -15.281000 -34.436300
H -7.347500 -15.082100 -36.236200
H -7.315300 -16.258900 -33.192300
C -7.205700 -15.522900 -35.428000
O -6.602300 -17.003100 -33.045800
C -6.106500 -16.453200 -35.323000
C -5.844600 -17.168100 -34.142800
H -5.505100 -16.225900 -37.254000
C -5.313500 -16.672200 -36.459200
C -4.788400 -18.056200 -34.095900
H -4.612500 -18.535500 -33.316700
C -4.249700 -17.548400 -36.400800
C -3.995400 -18.228500 -35.213900
H -3.709000 -17.683100 -37.145500
H -3.273600 -18.814100 -35.173700
