36
Fragment
H -10.904700 -14.231600 -44.592500
H -10.469300 -13.100600 -42.620700
C -10.182900 -13.645900 -44.552300
C -9.928500 -12.965900 -43.365400
H -9.565700 -13.952900 -46.449400
C -9.389900 -13.473600 -45.670300
C -8.864800 -12.089700 -43.307000
H -8.673200 -11.643300 -42.512200
C -8.333700 -12.585500 -45.623400
C -8.071700 -11.870600 -44.443200
O -7.576000 -12.420500 -46.720300
C -6.972600 -10.940400 -44.338200
H -6.863000 -11.676300 -46.573900
H -6.830800 -10.499500 -43.530000
N -6.178000 -10.698400 -45.329800
C -5.148200 -9.785600 -45.076800
N -4.875300 -9.130300 -43.967700
H -4.389500 -7.745400 -42.097400
H -4.305200 -6.865600 -39.870300
N -4.243100 -9.524400 -46.033700
H -4.143800 -9.861600 -46.899300
C -3.749500 -8.442900 -44.298300
C -3.555000 -7.382500 -42.290400
C -3.500100 -6.431200 -40.041000
H -3.340800 -5.574200 -38.227100
N -3.308400 -8.648200 -45.547100
N -3.022500 -7.614400 -43.441000
C -2.929000 -5.658500 -39.057000
C -2.895000 -6.576000 -41.291800
C -1.745200 -5.016100 -39.312600
C -1.679600 -5.929800 -41.530700
H -1.598900 -6.562200 -43.431100
H -1.359000 -4.494600 -38.645100
C -1.111400 -5.124200 -40.537500
O -1.019900 -6.053500 -42.700400
H -0.317600 -4.666900 -40.699900
36
Fragment
H -13.860700 -0.084300 -39.066300
O -13.158400 -1.471000 -37.065700
C -13.066800 -0.541700 -39.228700
H -12.819300 0.088000 -41.121100
H -12.579400 -1.979700 -36.335100
C -12.498700 -1.347300 -38.235400
C -12.433100 -0.433500 -40.453600
C -11.283300 -1.993400 -38.474400
C -11.249300 -1.076000 -40.709100
N -11.155800 -3.031800 -36.325200
N -10.869900 -4.065600 -34.219000
H -10.837500 -0.991700 -41.539000
C -10.678200 -1.848600 -39.725100
C -10.623300 -2.799900 -37.475700
C -10.428800 -3.860300 -35.467900
H -10.034500 -5.279100 -32.866800
N -9.935200 -4.941800 -33.732500
H -9.873100 -2.283000 -39.895800
H -9.788800 -3.162900 -37.668800
N -9.303000 -4.547700 -35.798400
C -9.030100 -5.203000 -34.689300
N -8.000300 -6.115900 -34.436300
H -7.347500 -5.917000 -36.236200
H -7.315300 -7.093800 -33.192300
C -7.205700 -6.357800 -35.428000
O -6.602300 -7.838000 -33.045800
C -6.106500 -7.288100 -35.323000
C -5.844600 -8.003000 -34.142800
H -5.505100 -7.060800 -37.254000
C -5.313500 -7.507100 -36.459200
C -4.788400 -8.891100 -34.095900
H -4.612500 -9.370400 -33.316700
C -4.249700 -8.383300 -36.400800
C -3.995400 -9.063400 -35.213900
H -3.709000 -8.518000 -37.145500
H -3.273600 -9.649000 -35.173700
72
Fragment
H -10.904700 -14.231600 -44.592500
H -10.469300 -13.100600 -42.620700
C -10.182900 -13.645900 -44.552300
C -9.928500 -12.965900 -43.365400
H -9.565700 -13.952900 -46.449400
C -9.389900 -13.473600 -45.670300
C -8.864800 -12.089700 -43.307000
H -8.673200 -11.643300 -42.512200
C -8.333700 -12.585500 -45.623400
C -8.071700 -11.870600 -44.443200
O -7.576000 -12.420500 -46.720300
C -6.972600 -10.940400 -44.338200
H -6.863000 -11.676300 -46.573900
H -6.830800 -10.499500 -43.530000
N -6.178000 -10.698400 -45.329800
C -5.148200 -9.785600 -45.076800
N -4.875300 -9.130300 -43.967700
H -4.389500 -7.745400 -42.097400
H -4.305200 -6.865600 -39.870300
N -4.243100 -9.524400 -46.033700
H -4.143800 -9.861600 -46.899300
C -3.749500 -8.442900 -44.298300
C -3.555000 -7.382500 -42.290400
C -3.500100 -6.431200 -40.041000
H -3.340800 -5.574200 -38.227100
N -3.308400 -8.648200 -45.547100
N -3.022500 -7.614400 -43.441000
C -2.929000 -5.658500 -39.057000
C -2.895000 -6.576000 -41.291800
C -1.745200 -5.016100 -39.312600
C -1.679600 -5.929800 -41.530700
H -1.598900 -6.562200 -43.431100
H -1.359000 -4.494600 -38.645100
C -1.111400 -5.124200 -40.537500
O -1.019900 -6.053500 -42.700400
H -0.317600 -4.666900 -40.699900
H -13.860700 -0.084300 -39.066300
O -13.158400 -1.471000 -37.065700
C -13.066800 -0.541700 -39.228700
H -12.819300 0.088000 -41.121100
H -12.579400 -1.979700 -36.335100
C -12.498700 -1.347300 -38.235400
C -12.433100 -0.433500 -40.453600
C -11.283300 -1.993400 -38.474400
C -11.249300 -1.076000 -40.709100
N -11.155800 -3.031800 -36.325200
N -10.869900 -4.065600 -34.219000
H -10.837500 -0.991700 -41.539000
C -10.678200 -1.848600 -39.725100
C -10.623300 -2.799900 -37.475700
C -10.428800 -3.860300 -35.467900
H -10.034500 -5.279100 -32.866800
N -9.935200 -4.941800 -33.732500
H -9.873100 -2.283000 -39.895800
H -9.788800 -3.162900 -37.668800
N -9.303000 -4.547700 -35.798400
C -9.030100 -5.203000 -34.689300
N -8.000300 -6.115900 -34.436300
H -7.347500 -5.917000 -36.236200
H -7.315300 -7.093800 -33.192300
C -7.205700 -6.357800 -35.428000
O -6.602300 -7.838000 -33.045800
C -6.106500 -7.288100 -35.323000
C -5.844600 -8.003000 -34.142800
H -5.505100 -7.060800 -37.254000
C -5.313500 -7.507100 -36.459200
C -4.788400 -8.891100 -34.095900
H -4.612500 -9.370400 -33.316700
C -4.249700 -8.383300 -36.400800
C -3.995400 -9.063400 -35.213900
H -3.709000 -8.518000 -37.145500
H -3.273600 -9.649000 -35.173700
