36
Fragment
H -10.904700 -14.231600 -44.592500
H -10.469300 -13.100600 -42.620700
C -10.182900 -13.645900 -44.552300
C -9.928500 -12.965900 -43.365400
H -9.565700 -13.952900 -46.449400
C -9.389900 -13.473600 -45.670300
C -8.864800 -12.089700 -43.307000
H -8.673200 -11.643300 -42.512200
C -8.333700 -12.585500 -45.623400
C -8.071700 -11.870600 -44.443200
O -7.576000 -12.420500 -46.720300
C -6.972600 -10.940400 -44.338200
H -6.863000 -11.676300 -46.573900
H -6.830800 -10.499500 -43.530000
N -6.178000 -10.698400 -45.329800
C -5.148200 -9.785600 -45.076800
N -4.875300 -9.130300 -43.967700
H -4.389500 -7.745400 -42.097400
H -4.305200 -6.865600 -39.870300
N -4.243100 -9.524400 -46.033700
H -4.143800 -9.861600 -46.899300
C -3.749500 -8.442900 -44.298300
C -3.555000 -7.382500 -42.290400
C -3.500100 -6.431200 -40.041000
H -3.340800 -5.574200 -38.227100
N -3.308400 -8.648200 -45.547100
N -3.022500 -7.614400 -43.441000
C -2.929000 -5.658500 -39.057000
C -2.895000 -6.576000 -41.291800
C -1.745200 -5.016100 -39.312600
C -1.679600 -5.929800 -41.530700
H -1.598900 -6.562200 -43.431100
H -1.359000 -4.494600 -38.645100
C -1.111400 -5.124200 -40.537500
O -1.019900 -6.053500 -42.700400
H -0.317600 -4.666900 -40.699900
36
Fragment
H -5.048500 -14.231600 -44.592500
H -4.613100 -13.100600 -42.620700
C -4.326700 -13.645900 -44.552300
C -4.072300 -12.965900 -43.365400
H -3.709500 -13.952900 -46.449400
C -3.533700 -13.473600 -45.670300
C -3.008600 -12.089700 -43.307000
H -2.817000 -11.643300 -42.512200
C -2.477500 -12.585500 -45.623400
C -2.215500 -11.870600 -44.443200
O -1.719800 -12.420500 -46.720300
C -1.116400 -10.940400 -44.338200
H -1.006800 -11.676300 -46.573900
H -0.974600 -10.499500 -43.530000
N -0.321800 -10.698400 -45.329800
C 0.708000 -9.785600 -45.076800
N 0.980900 -9.130300 -43.967700
H 1.466700 -7.745400 -42.097400
H 1.551000 -6.865600 -39.870300
N 1.613100 -9.524400 -46.033700
H 1.712400 -9.861600 -46.899300
C 2.106700 -8.442900 -44.298300
C 2.301200 -7.382500 -42.290400
C 2.356100 -6.431200 -40.041000
H 2.515400 -5.574200 -38.227100
N 2.547800 -8.648200 -45.547100
N 2.833700 -7.614400 -43.441000
C 2.927200 -5.658500 -39.057000
C 2.961200 -6.576000 -41.291800
C 4.111000 -5.016100 -39.312600
C 4.176600 -5.929800 -41.530700
H 4.257300 -6.562200 -43.431100
H 4.497200 -4.494600 -38.645100
C 4.744800 -5.124200 -40.537500
O 4.836300 -6.053500 -42.700400
H 5.538600 -4.666900 -40.699900
72
Fragment
H -10.904700 -14.231600 -44.592500
H -10.469300 -13.100600 -42.620700
C -10.182900 -13.645900 -44.552300
C -9.928500 -12.965900 -43.365400
H -9.565700 -13.952900 -46.449400
C -9.389900 -13.473600 -45.670300
C -8.864800 -12.089700 -43.307000
H -8.673200 -11.643300 -42.512200
C -8.333700 -12.585500 -45.623400
C -8.071700 -11.870600 -44.443200
O -7.576000 -12.420500 -46.720300
C -6.972600 -10.940400 -44.338200
H -6.863000 -11.676300 -46.573900
H -6.830800 -10.499500 -43.530000
N -6.178000 -10.698400 -45.329800
C -5.148200 -9.785600 -45.076800
N -4.875300 -9.130300 -43.967700
H -4.389500 -7.745400 -42.097400
H -4.305200 -6.865600 -39.870300
N -4.243100 -9.524400 -46.033700
H -4.143800 -9.861600 -46.899300
C -3.749500 -8.442900 -44.298300
C -3.555000 -7.382500 -42.290400
C -3.500100 -6.431200 -40.041000
H -3.340800 -5.574200 -38.227100
N -3.308400 -8.648200 -45.547100
N -3.022500 -7.614400 -43.441000
C -2.929000 -5.658500 -39.057000
C -2.895000 -6.576000 -41.291800
C -1.745200 -5.016100 -39.312600
C -1.679600 -5.929800 -41.530700
H -1.598900 -6.562200 -43.431100
H -1.359000 -4.494600 -38.645100
C -1.111400 -5.124200 -40.537500
O -1.019900 -6.053500 -42.700400
H -0.317600 -4.666900 -40.699900
H -5.048500 -14.231600 -44.592500
H -4.613100 -13.100600 -42.620700
C -4.326700 -13.645900 -44.552300
C -4.072300 -12.965900 -43.365400
H -3.709500 -13.952900 -46.449400
C -3.533700 -13.473600 -45.670300
C -3.008600 -12.089700 -43.307000
H -2.817000 -11.643300 -42.512200
C -2.477500 -12.585500 -45.623400
C -2.215500 -11.870600 -44.443200
O -1.719800 -12.420500 -46.720300
C -1.116400 -10.940400 -44.338200
H -1.006800 -11.676300 -46.573900
H -0.974600 -10.499500 -43.530000
N -0.321800 -10.698400 -45.329800
C 0.708000 -9.785600 -45.076800
N 0.980900 -9.130300 -43.967700
H 1.466700 -7.745400 -42.097400
H 1.551000 -6.865600 -39.870300
N 1.613100 -9.524400 -46.033700
H 1.712400 -9.861600 -46.899300
C 2.106700 -8.442900 -44.298300
C 2.301200 -7.382500 -42.290400
C 2.356100 -6.431200 -40.041000
H 2.515400 -5.574200 -38.227100
N 2.547800 -8.648200 -45.547100
N 2.833700 -7.614400 -43.441000
C 2.927200 -5.658500 -39.057000
C 2.961200 -6.576000 -41.291800
C 4.111000 -5.016100 -39.312600
C 4.176600 -5.929800 -41.530700
H 4.257300 -6.562200 -43.431100
H 4.497200 -4.494600 -38.645100
C 4.744800 -5.124200 -40.537500
O 4.836300 -6.053500 -42.700400
H 5.538600 -4.666900 -40.699900
