36
Fragment
H -10.904700 -14.231600 -44.592500
H -10.469300 -13.100600 -42.620700
C -10.182900 -13.645900 -44.552300
C -9.928500 -12.965900 -43.365400
H -9.565700 -13.952900 -46.449400
C -9.389900 -13.473600 -45.670300
C -8.864800 -12.089700 -43.307000
H -8.673200 -11.643300 -42.512200
C -8.333700 -12.585500 -45.623400
C -8.071700 -11.870600 -44.443200
O -7.576000 -12.420500 -46.720300
C -6.972600 -10.940400 -44.338200
H -6.863000 -11.676300 -46.573900
H -6.830800 -10.499500 -43.530000
N -6.178000 -10.698400 -45.329800
C -5.148200 -9.785600 -45.076800
N -4.875300 -9.130300 -43.967700
H -4.389500 -7.745400 -42.097400
H -4.305200 -6.865600 -39.870300
N -4.243100 -9.524400 -46.033700
H -4.143800 -9.861600 -46.899300
C -3.749500 -8.442900 -44.298300
C -3.555000 -7.382500 -42.290400
C -3.500100 -6.431200 -40.041000
H -3.340800 -5.574200 -38.227100
N -3.308400 -8.648200 -45.547100
N -3.022500 -7.614400 -43.441000
C -2.929000 -5.658500 -39.057000
C -2.895000 -6.576000 -41.291800
C -1.745200 -5.016100 -39.312600
C -1.679600 -5.929800 -41.530700
H -1.598900 -6.562200 -43.431100
H -1.359000 -4.494600 -38.645100
C -1.111400 -5.124200 -40.537500
O -1.019900 -6.053500 -42.700400
H -0.317600 -4.666900 -40.699900
36
Fragment
H -16.696400 -22.828400 -55.019500
O -15.994100 -21.441800 -53.019000
C -15.902500 -22.371100 -55.181900
H -15.654900 -23.000700 -57.074300
H -15.415100 -20.933100 -52.288300
C -15.334400 -21.565500 -54.188700
C -15.268800 -22.479200 -56.406800
C -14.119000 -20.919300 -54.427600
C -14.084900 -21.836800 -56.662400
N -13.991500 -19.880900 -52.278400
N -13.705600 -18.847100 -50.172300
H -13.673100 -21.921100 -57.492300
C -13.513800 -21.064100 -55.678400
C -13.458900 -20.112800 -53.429000
C -13.264400 -19.052400 -51.421100
H -12.870100 -17.633700 -48.820100
N -12.770800 -17.970900 -49.685700
H -12.708800 -20.629700 -55.849100
H -12.624500 -19.749900 -53.622000
N -12.138700 -18.365000 -51.751600
C -11.865800 -17.709700 -50.642600
N -10.836000 -16.796900 -50.389600
H -10.183100 -16.995800 -52.189400
H -10.151000 -15.819000 -49.145500
C -10.041400 -16.554900 -51.381200
O -9.437900 -15.074800 -48.999100
C -8.942200 -15.624700 -51.276200
C -8.680200 -14.909800 -50.096000
H -8.340700 -15.852000 -53.207200
C -8.149100 -15.405600 -52.412400
C -7.624100 -14.021700 -50.049100
H -7.448200 -13.542400 -49.270000
C -7.085400 -14.529400 -52.354000
C -6.831100 -13.849400 -51.167100
H -6.544700 -14.394700 -53.098700
H -6.109300 -13.263700 -51.126900
72
Fragment
H -10.904700 -14.231600 -44.592500
H -10.469300 -13.100600 -42.620700
C -10.182900 -13.645900 -44.552300
C -9.928500 -12.965900 -43.365400
H -9.565700 -13.952900 -46.449400
C -9.389900 -13.473600 -45.670300
C -8.864800 -12.089700 -43.307000
H -8.673200 -11.643300 -42.512200
C -8.333700 -12.585500 -45.623400
C -8.071700 -11.870600 -44.443200
O -7.576000 -12.420500 -46.720300
C -6.972600 -10.940400 -44.338200
H -6.863000 -11.676300 -46.573900
H -6.830800 -10.499500 -43.530000
N -6.178000 -10.698400 -45.329800
C -5.148200 -9.785600 -45.076800
N -4.875300 -9.130300 -43.967700
H -4.389500 -7.745400 -42.097400
H -4.305200 -6.865600 -39.870300
N -4.243100 -9.524400 -46.033700
H -4.143800 -9.861600 -46.899300
C -3.749500 -8.442900 -44.298300
C -3.555000 -7.382500 -42.290400
C -3.500100 -6.431200 -40.041000
H -3.340800 -5.574200 -38.227100
N -3.308400 -8.648200 -45.547100
N -3.022500 -7.614400 -43.441000
C -2.929000 -5.658500 -39.057000
C -2.895000 -6.576000 -41.291800
C -1.745200 -5.016100 -39.312600
C -1.679600 -5.929800 -41.530700
H -1.598900 -6.562200 -43.431100
H -1.359000 -4.494600 -38.645100
C -1.111400 -5.124200 -40.537500
O -1.019900 -6.053500 -42.700400
H -0.317600 -4.666900 -40.699900
H -16.696400 -22.828400 -55.019500
O -15.994100 -21.441800 -53.019000
C -15.902500 -22.371100 -55.181900
H -15.654900 -23.000700 -57.074300
H -15.415100 -20.933100 -52.288300
C -15.334400 -21.565500 -54.188700
C -15.268800 -22.479200 -56.406800
C -14.119000 -20.919300 -54.427600
C -14.084900 -21.836800 -56.662400
N -13.991500 -19.880900 -52.278400
N -13.705600 -18.847100 -50.172300
H -13.673100 -21.921100 -57.492300
C -13.513800 -21.064100 -55.678400
C -13.458900 -20.112800 -53.429000
C -13.264400 -19.052400 -51.421100
H -12.870100 -17.633700 -48.820100
N -12.770800 -17.970900 -49.685700
H -12.708800 -20.629700 -55.849100
H -12.624500 -19.749900 -53.622000
N -12.138700 -18.365000 -51.751600
C -11.865800 -17.709700 -50.642600
N -10.836000 -16.796900 -50.389600
H -10.183100 -16.995800 -52.189400
H -10.151000 -15.819000 -49.145500
C -10.041400 -16.554900 -51.381200
O -9.437900 -15.074800 -48.999100
C -8.942200 -15.624700 -51.276200
C -8.680200 -14.909800 -50.096000
H -8.340700 -15.852000 -53.207200
C -8.149100 -15.405600 -52.412400
C -7.624100 -14.021700 -50.049100
H -7.448200 -13.542400 -49.270000
C -7.085400 -14.529400 -52.354000
C -6.831100 -13.849400 -51.167100
H -6.544700 -14.394700 -53.098700
H -6.109300 -13.263700 -51.126900
