36
Fragment
H -10.904700 -14.231600 -44.592500
H -10.469300 -13.100600 -42.620700
C -10.182900 -13.645900 -44.552300
C -9.928500 -12.965900 -43.365400
H -9.565700 -13.952900 -46.449400
C -9.389900 -13.473600 -45.670300
C -8.864800 -12.089700 -43.307000
H -8.673200 -11.643300 -42.512200
C -8.333700 -12.585500 -45.623400
C -8.071700 -11.870600 -44.443200
O -7.576000 -12.420500 -46.720300
C -6.972600 -10.940400 -44.338200
H -6.863000 -11.676300 -46.573900
H -6.830800 -10.499500 -43.530000
N -6.178000 -10.698400 -45.329800
C -5.148200 -9.785600 -45.076800
N -4.875300 -9.130300 -43.967700
H -4.389500 -7.745400 -42.097400
H -4.305200 -6.865600 -39.870300
N -4.243100 -9.524400 -46.033700
H -4.143800 -9.861600 -46.899300
C -3.749500 -8.442900 -44.298300
C -3.555000 -7.382500 -42.290400
C -3.500100 -6.431200 -40.041000
H -3.340800 -5.574200 -38.227100
N -3.308400 -8.648200 -45.547100
N -3.022500 -7.614400 -43.441000
C -2.929000 -5.658500 -39.057000
C -2.895000 -6.576000 -41.291800
C -1.745200 -5.016100 -39.312600
C -1.679600 -5.929800 -41.530700
H -1.598900 -6.562200 -43.431100
H -1.359000 -4.494600 -38.645100
C -1.111400 -5.124200 -40.537500
O -1.019900 -6.053500 -42.700400
H -0.317600 -4.666900 -40.699900
36
Fragment
H -22.617100 -23.396700 -44.592500
H -22.181700 -22.265700 -42.620700
C -21.895300 -22.811000 -44.552300
C -21.640900 -22.131000 -43.365400
H -21.278100 -23.118000 -46.449400
C -21.102300 -22.638700 -45.670300
C -20.577200 -21.254800 -43.307000
H -20.385600 -20.808400 -42.512200
C -20.046100 -21.750600 -45.623400
C -19.784100 -21.035700 -44.443200
O -19.288400 -21.585600 -46.720300
C -18.685000 -20.105500 -44.338200
H -18.575400 -20.841400 -46.573900
H -18.543200 -19.664600 -43.530000
N -17.890400 -19.863500 -45.329800
C -16.860600 -18.950700 -45.076800
N -16.587700 -18.295400 -43.967700
H -16.101900 -16.910500 -42.097400
H -16.017600 -16.030700 -39.870300
N -15.955500 -18.689500 -46.033700
H -15.856200 -19.026700 -46.899300
C -15.461900 -17.608000 -44.298300
C -15.267400 -16.547600 -42.290400
C -15.212500 -15.596300 -40.041000
H -15.053200 -14.739300 -38.227100
N -15.020800 -17.813300 -45.547100
N -14.734900 -16.779500 -43.441000
C -14.641400 -14.823600 -39.057000
C -14.607400 -15.741100 -41.291800
C -13.457600 -14.181200 -39.312600
C -13.392000 -15.094900 -41.530700
H -13.311300 -15.727300 -43.431100
H -13.071400 -13.659700 -38.645100
C -12.823800 -14.289300 -40.537500
O -12.732300 -15.218600 -42.700400
H -12.030000 -13.832000 -40.699900
72
Fragment
H -10.904700 -14.231600 -44.592500
H -10.469300 -13.100600 -42.620700
C -10.182900 -13.645900 -44.552300
C -9.928500 -12.965900 -43.365400
H -9.565700 -13.952900 -46.449400
C -9.389900 -13.473600 -45.670300
C -8.864800 -12.089700 -43.307000
H -8.673200 -11.643300 -42.512200
C -8.333700 -12.585500 -45.623400
C -8.071700 -11.870600 -44.443200
O -7.576000 -12.420500 -46.720300
C -6.972600 -10.940400 -44.338200
H -6.863000 -11.676300 -46.573900
H -6.830800 -10.499500 -43.530000
N -6.178000 -10.698400 -45.329800
C -5.148200 -9.785600 -45.076800
N -4.875300 -9.130300 -43.967700
H -4.389500 -7.745400 -42.097400
H -4.305200 -6.865600 -39.870300
N -4.243100 -9.524400 -46.033700
H -4.143800 -9.861600 -46.899300
C -3.749500 -8.442900 -44.298300
C -3.555000 -7.382500 -42.290400
C -3.500100 -6.431200 -40.041000
H -3.340800 -5.574200 -38.227100
N -3.308400 -8.648200 -45.547100
N -3.022500 -7.614400 -43.441000
C -2.929000 -5.658500 -39.057000
C -2.895000 -6.576000 -41.291800
C -1.745200 -5.016100 -39.312600
C -1.679600 -5.929800 -41.530700
H -1.598900 -6.562200 -43.431100
H -1.359000 -4.494600 -38.645100
C -1.111400 -5.124200 -40.537500
O -1.019900 -6.053500 -42.700400
H -0.317600 -4.666900 -40.699900
H -22.617100 -23.396700 -44.592500
H -22.181700 -22.265700 -42.620700
C -21.895300 -22.811000 -44.552300
C -21.640900 -22.131000 -43.365400
H -21.278100 -23.118000 -46.449400
C -21.102300 -22.638700 -45.670300
C -20.577200 -21.254800 -43.307000
H -20.385600 -20.808400 -42.512200
C -20.046100 -21.750600 -45.623400
C -19.784100 -21.035700 -44.443200
O -19.288400 -21.585600 -46.720300
C -18.685000 -20.105500 -44.338200
H -18.575400 -20.841400 -46.573900
H -18.543200 -19.664600 -43.530000
N -17.890400 -19.863500 -45.329800
C -16.860600 -18.950700 -45.076800
N -16.587700 -18.295400 -43.967700
H -16.101900 -16.910500 -42.097400
H -16.017600 -16.030700 -39.870300
N -15.955500 -18.689500 -46.033700
H -15.856200 -19.026700 -46.899300
C -15.461900 -17.608000 -44.298300
C -15.267400 -16.547600 -42.290400
C -15.212500 -15.596300 -40.041000
H -15.053200 -14.739300 -38.227100
N -15.020800 -17.813300 -45.547100
N -14.734900 -16.779500 -43.441000
C -14.641400 -14.823600 -39.057000
C -14.607400 -15.741100 -41.291800
C -13.457600 -14.181200 -39.312600
C -13.392000 -15.094900 -41.530700
H -13.311300 -15.727300 -43.431100
H -13.071400 -13.659700 -38.645100
C -12.823800 -14.289300 -40.537500
O -12.732300 -15.218600 -42.700400
H -12.030000 -13.832000 -40.699900
