40
Fragment
H -36.743800 -11.502100 -31.266600
C -35.822500 -11.377400 -31.285200
H -35.752900 -10.624500 -33.178200
H -35.500700 -12.097700 -29.410800
C -35.249500 -10.843800 -32.427900
C -35.071800 -11.739300 -30.153500
O -34.252600 -12.086900 -27.347700
H -34.203000 -9.835700 -34.844000
H -33.892800 -13.411600 -25.340400
C -33.875200 -10.655500 -32.380500
H -33.743400 -13.555000 -23.045800
C -33.692700 -11.566300 -30.135700
C -33.257900 -9.770000 -34.685100
C -33.129600 -12.243400 -27.814700
C -33.102800 -10.971400 -31.262300
C -33.087800 -13.201700 -24.924500
C -32.993800 -13.292600 -23.529200
H -32.972200 -8.864400 -34.824900
N -32.968200 -10.165200 -33.310600
N -32.818400 -11.984500 -29.122800
H -32.789300 -10.349800 -35.290800
N -32.046500 -12.681800 -27.098300
C -32.007000 -12.805100 -25.698300
H -31.993700 -12.089100 -29.348600
C -31.829000 -13.006300 -22.846500
H -31.772700 -13.061100 -21.919300
N -31.761700 -10.670000 -31.479300
C -31.751200 -10.205600 -32.718100
H -31.339200 -12.897400 -27.537600
H -30.972800 -9.929400 -33.146200
C -30.806900 -12.534000 -25.031900
C -30.742500 -12.628400 -23.634800
H -29.586100 -12.486400 -21.328900
N -29.569500 -12.128000 -25.538200
N -29.451700 -12.262100 -23.300800
C -28.902200 -12.243400 -21.958100
C -28.815900 -11.978000 -24.467200
H -28.581300 -11.361500 -21.756600
H -28.176900 -12.869300 -21.900200
H -27.928000 -11.703300 -24.507400
40
Fragment
H -39.738200 -13.534900 -39.318200
H -39.489300 -12.368900 -41.925500
H -39.084900 -13.876700 -42.069100
C -38.850300 -13.260100 -39.358400
C -38.764000 -12.994800 -41.867500
N -38.214500 -12.976000 -40.524800
N -38.096700 -13.110100 -38.287400
H -38.080100 -12.751800 -42.496700
C -36.923700 -12.609700 -40.190800
C -36.859300 -12.704200 -38.793700
H -36.693300 -15.308700 -30.679400
H -36.327000 -12.340700 -36.288100
C -35.915000 -15.032600 -31.107500
N -35.904500 -14.568200 -32.346300
H -35.893400 -12.177000 -41.906300
C -35.837100 -12.231800 -40.979100
H -35.672400 -13.149100 -34.477000
C -35.659200 -12.433000 -38.127400
N -35.619700 -12.556300 -36.727300
H -34.876800 -14.888300 -28.534800
N -34.847800 -13.253600 -34.702800
N -34.697900 -15.072900 -30.515000
H -34.694000 -16.373800 -29.000800
C -34.672400 -11.945600 -40.296500
C -34.578400 -12.036400 -38.901100
C -34.563400 -14.266800 -32.563400
C -34.536600 -12.994800 -36.010900
C -34.408300 -15.468100 -29.140500
C -33.973400 -13.671900 -33.689900
H -33.922800 -11.683100 -40.779800
C -33.791000 -14.582600 -31.445100
H -33.773400 -11.826600 -38.485300
H -33.463200 -15.402500 -28.981600
O -33.413600 -13.151200 -36.477900
C -32.594400 -13.498800 -33.672200
C -32.416700 -14.394400 -31.397700
H -32.165500 -13.140400 -34.414800
H -31.913300 -14.613600 -30.647500
C -31.843700 -13.860800 -32.540400
H -30.922400 -13.736000 -32.559000
80
Fragment
H -36.743800 -11.502100 -31.266600
C -35.822500 -11.377400 -31.285200
H -35.752900 -10.624500 -33.178200
H -35.500700 -12.097700 -29.410800
C -35.249500 -10.843800 -32.427900
C -35.071800 -11.739300 -30.153500
O -34.252600 -12.086900 -27.347700
H -34.203000 -9.835700 -34.844000
H -33.892800 -13.411600 -25.340400
C -33.875200 -10.655500 -32.380500
H -33.743400 -13.555000 -23.045800
C -33.692700 -11.566300 -30.135700
C -33.257900 -9.770000 -34.685100
C -33.129600 -12.243400 -27.814700
C -33.102800 -10.971400 -31.262300
C -33.087800 -13.201700 -24.924500
C -32.993800 -13.292600 -23.529200
H -32.972200 -8.864400 -34.824900
N -32.968200 -10.165200 -33.310600
N -32.818400 -11.984500 -29.122800
H -32.789300 -10.349800 -35.290800
N -32.046500 -12.681800 -27.098300
C -32.007000 -12.805100 -25.698300
H -31.993700 -12.089100 -29.348600
C -31.829000 -13.006300 -22.846500
H -31.772700 -13.061100 -21.919300
N -31.761700 -10.670000 -31.479300
C -31.751200 -10.205600 -32.718100
H -31.339200 -12.897400 -27.537600
H -30.972800 -9.929400 -33.146200
C -30.806900 -12.534000 -25.031900
C -30.742500 -12.628400 -23.634800
H -29.586100 -12.486400 -21.328900
N -29.569500 -12.128000 -25.538200
N -29.451700 -12.262100 -23.300800
C -28.902200 -12.243400 -21.958100
C -28.815900 -11.978000 -24.467200
H -28.581300 -11.361500 -21.756600
H -28.176900 -12.869300 -21.900200
H -27.928000 -11.703300 -24.507400
H -39.738200 -13.534900 -39.318200
H -39.489300 -12.368900 -41.925500
H -39.084900 -13.876700 -42.069100
C -38.850300 -13.260100 -39.358400
C -38.764000 -12.994800 -41.867500
N -38.214500 -12.976000 -40.524800
N -38.096700 -13.110100 -38.287400
H -38.080100 -12.751800 -42.496700
C -36.923700 -12.609700 -40.190800
C -36.859300 -12.704200 -38.793700
H -36.693300 -15.308700 -30.679400
H -36.327000 -12.340700 -36.288100
C -35.915000 -15.032600 -31.107500
N -35.904500 -14.568200 -32.346300
H -35.893400 -12.177000 -41.906300
C -35.837100 -12.231800 -40.979100
H -35.672400 -13.149100 -34.477000
C -35.659200 -12.433000 -38.127400
N -35.619700 -12.556300 -36.727300
H -34.876800 -14.888300 -28.534800
N -34.847800 -13.253600 -34.702800
N -34.697900 -15.072900 -30.515000
H -34.694000 -16.373800 -29.000800
C -34.672400 -11.945600 -40.296500
C -34.578400 -12.036400 -38.901100
C -34.563400 -14.266800 -32.563400
C -34.536600 -12.994800 -36.010900
C -34.408300 -15.468100 -29.140500
C -33.973400 -13.671900 -33.689900
H -33.922800 -11.683100 -40.779800
C -33.791000 -14.582600 -31.445100
H -33.773400 -11.826600 -38.485300
H -33.463200 -15.402500 -28.981600
O -33.413600 -13.151200 -36.477900
C -32.594400 -13.498800 -33.672200
C -32.416700 -14.394400 -31.397700
H -32.165500 -13.140400 -34.414800
H -31.913300 -14.613600 -30.647500
C -31.843700 -13.860800 -32.540400
H -30.922400 -13.736000 -32.559000
