40
Fragment
H -36.743800 -11.502100 -31.266600
C -35.822500 -11.377400 -31.285200
H -35.752900 -10.624500 -33.178200
H -35.500700 -12.097700 -29.410800
C -35.249500 -10.843800 -32.427900
C -35.071800 -11.739300 -30.153500
O -34.252600 -12.086900 -27.347700
H -34.203000 -9.835700 -34.844000
H -33.892800 -13.411600 -25.340400
C -33.875200 -10.655500 -32.380500
H -33.743400 -13.555000 -23.045800
C -33.692700 -11.566300 -30.135700
C -33.257900 -9.770000 -34.685100
C -33.129600 -12.243400 -27.814700
C -33.102800 -10.971400 -31.262300
C -33.087800 -13.201700 -24.924500
C -32.993800 -13.292600 -23.529200
H -32.972200 -8.864400 -34.824900
N -32.968200 -10.165200 -33.310600
N -32.818400 -11.984500 -29.122800
H -32.789300 -10.349800 -35.290800
N -32.046500 -12.681800 -27.098300
C -32.007000 -12.805100 -25.698300
H -31.993700 -12.089100 -29.348600
C -31.829000 -13.006300 -22.846500
H -31.772700 -13.061100 -21.919300
N -31.761700 -10.670000 -31.479300
C -31.751200 -10.205600 -32.718100
H -31.339200 -12.897400 -27.537600
H -30.972800 -9.929400 -33.146200
C -30.806900 -12.534000 -25.031900
C -30.742500 -12.628400 -23.634800
H -29.586100 -12.486400 -21.328900
N -29.569500 -12.128000 -25.538200
N -29.451700 -12.262100 -23.300800
C -28.902200 -12.243400 -21.958100
C -28.815900 -11.978000 -24.467200
H -28.581300 -11.361500 -21.756600
H -28.176900 -12.869300 -21.900200
H -27.928000 -11.703300 -24.507400
40
Fragment
H -33.880000 -9.929400 -23.361800
H -33.631100 -8.763400 -25.969000
H -33.226800 -10.271200 -26.112700
C -32.992100 -9.654700 -23.402000
C -32.905800 -9.389300 -25.911100
N -32.356400 -9.370600 -24.568400
N -32.238500 -9.504700 -22.331000
H -32.221900 -9.146300 -26.540300
C -31.065500 -9.004300 -24.234400
C -31.001100 -9.098700 -22.837300
H -30.835200 -11.703300 -14.723000
H -30.468900 -8.735300 -20.331700
C -30.056800 -11.427100 -15.151100
N -30.046300 -10.962700 -16.389900
H -30.035300 -8.571600 -25.949900
C -29.979000 -8.626400 -25.022700
H -29.814300 -9.543600 -18.520600
C -29.801000 -8.827600 -22.170900
N -29.761500 -8.950900 -20.770900
H -29.018700 -11.282900 -12.578400
N -28.989600 -9.648200 -18.746400
N -28.839800 -11.467500 -14.558600
H -28.835900 -12.768300 -13.044400
C -28.814200 -8.340100 -24.340100
C -28.720200 -8.431000 -22.944700
C -28.705200 -10.661300 -16.606900
C -28.678400 -9.389300 -20.054500
C -28.550100 -11.862700 -13.184100
C -28.115300 -10.066400 -17.733500
H -28.064700 -8.077700 -24.823400
C -27.932800 -10.977200 -15.488700
H -27.915200 -8.221100 -22.528800
H -27.605000 -11.797000 -13.025200
O -27.555500 -9.545800 -20.521500
C -26.736200 -9.893400 -17.715800
C -26.558500 -10.788900 -15.441300
H -26.307300 -9.535000 -18.458400
H -26.055100 -11.008200 -14.691100
C -25.985500 -10.255300 -16.584000
H -25.064200 -10.130600 -16.602600
80
Fragment
H -36.743800 -11.502100 -31.266600
C -35.822500 -11.377400 -31.285200
H -35.752900 -10.624500 -33.178200
H -35.500700 -12.097700 -29.410800
C -35.249500 -10.843800 -32.427900
C -35.071800 -11.739300 -30.153500
O -34.252600 -12.086900 -27.347700
H -34.203000 -9.835700 -34.844000
H -33.892800 -13.411600 -25.340400
C -33.875200 -10.655500 -32.380500
H -33.743400 -13.555000 -23.045800
C -33.692700 -11.566300 -30.135700
C -33.257900 -9.770000 -34.685100
C -33.129600 -12.243400 -27.814700
C -33.102800 -10.971400 -31.262300
C -33.087800 -13.201700 -24.924500
C -32.993800 -13.292600 -23.529200
H -32.972200 -8.864400 -34.824900
N -32.968200 -10.165200 -33.310600
N -32.818400 -11.984500 -29.122800
H -32.789300 -10.349800 -35.290800
N -32.046500 -12.681800 -27.098300
C -32.007000 -12.805100 -25.698300
H -31.993700 -12.089100 -29.348600
C -31.829000 -13.006300 -22.846500
H -31.772700 -13.061100 -21.919300
N -31.761700 -10.670000 -31.479300
C -31.751200 -10.205600 -32.718100
H -31.339200 -12.897400 -27.537600
H -30.972800 -9.929400 -33.146200
C -30.806900 -12.534000 -25.031900
C -30.742500 -12.628400 -23.634800
H -29.586100 -12.486400 -21.328900
N -29.569500 -12.128000 -25.538200
N -29.451700 -12.262100 -23.300800
C -28.902200 -12.243400 -21.958100
C -28.815900 -11.978000 -24.467200
H -28.581300 -11.361500 -21.756600
H -28.176900 -12.869300 -21.900200
H -27.928000 -11.703300 -24.507400
H -33.880000 -9.929400 -23.361800
H -33.631100 -8.763400 -25.969000
H -33.226800 -10.271200 -26.112700
C -32.992100 -9.654700 -23.402000
C -32.905800 -9.389300 -25.911100
N -32.356400 -9.370600 -24.568400
N -32.238500 -9.504700 -22.331000
H -32.221900 -9.146300 -26.540300
C -31.065500 -9.004300 -24.234400
C -31.001100 -9.098700 -22.837300
H -30.835200 -11.703300 -14.723000
H -30.468900 -8.735300 -20.331700
C -30.056800 -11.427100 -15.151100
N -30.046300 -10.962700 -16.389900
H -30.035300 -8.571600 -25.949900
C -29.979000 -8.626400 -25.022700
H -29.814300 -9.543600 -18.520600
C -29.801000 -8.827600 -22.170900
N -29.761500 -8.950900 -20.770900
H -29.018700 -11.282900 -12.578400
N -28.989600 -9.648200 -18.746400
N -28.839800 -11.467500 -14.558600
H -28.835900 -12.768300 -13.044400
C -28.814200 -8.340100 -24.340100
C -28.720200 -8.431000 -22.944700
C -28.705200 -10.661300 -16.606900
C -28.678400 -9.389300 -20.054500
C -28.550100 -11.862700 -13.184100
C -28.115300 -10.066400 -17.733500
H -28.064700 -8.077700 -24.823400
C -27.932800 -10.977200 -15.488700
H -27.915200 -8.221100 -22.528800
H -27.605000 -11.797000 -13.025200
O -27.555500 -9.545800 -20.521500
C -26.736200 -9.893400 -17.715800
C -26.558500 -10.788900 -15.441300
H -26.307300 -9.535000 -18.458400
H -26.055100 -11.008200 -14.691100
C -25.985500 -10.255300 -16.584000
H -25.064200 -10.130600 -16.602600
