40
Fragment
H -36.743800 -11.502100 -31.266600
C -35.822500 -11.377400 -31.285200
H -35.752900 -10.624500 -33.178200
H -35.500700 -12.097700 -29.410800
C -35.249500 -10.843800 -32.427900
C -35.071800 -11.739300 -30.153500
O -34.252600 -12.086900 -27.347700
H -34.203000 -9.835700 -34.844000
H -33.892800 -13.411600 -25.340400
C -33.875200 -10.655500 -32.380500
H -33.743400 -13.555000 -23.045800
C -33.692700 -11.566300 -30.135700
C -33.257900 -9.770000 -34.685100
C -33.129600 -12.243400 -27.814700
C -33.102800 -10.971400 -31.262300
C -33.087800 -13.201700 -24.924500
C -32.993800 -13.292600 -23.529200
H -32.972200 -8.864400 -34.824900
N -32.968200 -10.165200 -33.310600
N -32.818400 -11.984500 -29.122800
H -32.789300 -10.349800 -35.290800
N -32.046500 -12.681800 -27.098300
C -32.007000 -12.805100 -25.698300
H -31.993700 -12.089100 -29.348600
C -31.829000 -13.006300 -22.846500
H -31.772700 -13.061100 -21.919300
N -31.761700 -10.670000 -31.479300
C -31.751200 -10.205600 -32.718100
H -31.339200 -12.897400 -27.537600
H -30.972800 -9.929400 -33.146200
C -30.806900 -12.534000 -25.031900
C -30.742500 -12.628400 -23.634800
H -29.586100 -12.486400 -21.328900
N -29.569500 -12.128000 -25.538200
N -29.451700 -12.262100 -23.300800
C -28.902200 -12.243400 -21.958100
C -28.815900 -11.978000 -24.467200
H -28.581300 -11.361500 -21.756600
H -28.176900 -12.869300 -21.900200
H -27.928000 -11.703300 -24.507400
40
Fragment
H -44.181300 -8.097800 -31.340000
H -43.932400 -9.263800 -33.947300
H -43.528100 -7.756000 -34.090900
C -43.293400 -8.372600 -31.380200
C -43.207100 -8.637900 -33.889300
N -42.657700 -8.656700 -32.546600
N -42.539900 -8.522600 -30.309200
H -42.523200 -8.880900 -34.518500
C -41.366900 -9.023000 -32.212600
C -41.302500 -8.928500 -30.815500
H -41.136500 -6.324000 -22.701200
H -40.770200 -9.292000 -28.309900
C -40.358100 -6.600100 -23.129300
N -40.347600 -7.064500 -24.368100
H -40.336600 -9.455700 -33.928100
C -40.280300 -9.400900 -33.000900
H -40.115600 -8.483600 -26.498800
C -40.102400 -9.199700 -30.149100
N -40.062900 -9.076400 -28.749100
H -39.320000 -6.744400 -20.556600
N -39.291000 -8.379100 -26.724600
N -39.141100 -6.559800 -22.536800
H -39.137200 -5.258900 -21.022600
C -39.115500 -9.687100 -32.318300
C -39.021500 -9.596300 -30.922900
C -39.006500 -7.365900 -24.585200
C -38.979700 -8.637900 -28.032700
C -38.851500 -6.164600 -21.162300
C -38.416600 -7.960800 -25.711700
H -38.366000 -9.949600 -32.801600
C -38.234200 -7.050100 -23.466900
H -38.216600 -9.806100 -30.507100
H -37.906400 -6.230200 -21.003400
O -37.856800 -8.481500 -28.499700
C -37.037500 -8.133900 -25.694000
C -36.859800 -7.238300 -23.419500
H -36.608600 -8.492300 -26.436600
H -36.356400 -7.019100 -22.669300
C -36.286900 -7.771900 -24.562200
H -35.365600 -7.896700 -24.580800
80
Fragment
H -36.743800 -11.502100 -31.266600
C -35.822500 -11.377400 -31.285200
H -35.752900 -10.624500 -33.178200
H -35.500700 -12.097700 -29.410800
C -35.249500 -10.843800 -32.427900
C -35.071800 -11.739300 -30.153500
O -34.252600 -12.086900 -27.347700
H -34.203000 -9.835700 -34.844000
H -33.892800 -13.411600 -25.340400
C -33.875200 -10.655500 -32.380500
H -33.743400 -13.555000 -23.045800
C -33.692700 -11.566300 -30.135700
C -33.257900 -9.770000 -34.685100
C -33.129600 -12.243400 -27.814700
C -33.102800 -10.971400 -31.262300
C -33.087800 -13.201700 -24.924500
C -32.993800 -13.292600 -23.529200
H -32.972200 -8.864400 -34.824900
N -32.968200 -10.165200 -33.310600
N -32.818400 -11.984500 -29.122800
H -32.789300 -10.349800 -35.290800
N -32.046500 -12.681800 -27.098300
C -32.007000 -12.805100 -25.698300
H -31.993700 -12.089100 -29.348600
C -31.829000 -13.006300 -22.846500
H -31.772700 -13.061100 -21.919300
N -31.761700 -10.670000 -31.479300
C -31.751200 -10.205600 -32.718100
H -31.339200 -12.897400 -27.537600
H -30.972800 -9.929400 -33.146200
C -30.806900 -12.534000 -25.031900
C -30.742500 -12.628400 -23.634800
H -29.586100 -12.486400 -21.328900
N -29.569500 -12.128000 -25.538200
N -29.451700 -12.262100 -23.300800
C -28.902200 -12.243400 -21.958100
C -28.815900 -11.978000 -24.467200
H -28.581300 -11.361500 -21.756600
H -28.176900 -12.869300 -21.900200
H -27.928000 -11.703300 -24.507400
H -44.181300 -8.097800 -31.340000
H -43.932400 -9.263800 -33.947300
H -43.528100 -7.756000 -34.090900
C -43.293400 -8.372600 -31.380200
C -43.207100 -8.637900 -33.889300
N -42.657700 -8.656700 -32.546600
N -42.539900 -8.522600 -30.309200
H -42.523200 -8.880900 -34.518500
C -41.366900 -9.023000 -32.212600
C -41.302500 -8.928500 -30.815500
H -41.136500 -6.324000 -22.701200
H -40.770200 -9.292000 -28.309900
C -40.358100 -6.600100 -23.129300
N -40.347600 -7.064500 -24.368100
H -40.336600 -9.455700 -33.928100
C -40.280300 -9.400900 -33.000900
H -40.115600 -8.483600 -26.498800
C -40.102400 -9.199700 -30.149100
N -40.062900 -9.076400 -28.749100
H -39.320000 -6.744400 -20.556600
N -39.291000 -8.379100 -26.724600
N -39.141100 -6.559800 -22.536800
H -39.137200 -5.258900 -21.022600
C -39.115500 -9.687100 -32.318300
C -39.021500 -9.596300 -30.922900
C -39.006500 -7.365900 -24.585200
C -38.979700 -8.637900 -28.032700
C -38.851500 -6.164600 -21.162300
C -38.416600 -7.960800 -25.711700
H -38.366000 -9.949600 -32.801600
C -38.234200 -7.050100 -23.466900
H -38.216600 -9.806100 -30.507100
H -37.906400 -6.230200 -21.003400
O -37.856800 -8.481500 -28.499700
C -37.037500 -8.133900 -25.694000
C -36.859800 -7.238300 -23.419500
H -36.608600 -8.492300 -26.436600
H -36.356400 -7.019100 -22.669300
C -36.286900 -7.771900 -24.562200
H -35.365600 -7.896700 -24.580800
