40
Fragment
H -36.743800 -11.502100 -31.266600
C -35.822500 -11.377400 -31.285200
H -35.752900 -10.624500 -33.178200
H -35.500700 -12.097700 -29.410800
C -35.249500 -10.843800 -32.427900
C -35.071800 -11.739300 -30.153500
O -34.252600 -12.086900 -27.347700
H -34.203000 -9.835700 -34.844000
H -33.892800 -13.411600 -25.340400
C -33.875200 -10.655500 -32.380500
H -33.743400 -13.555000 -23.045800
C -33.692700 -11.566300 -30.135700
C -33.257900 -9.770000 -34.685100
C -33.129600 -12.243400 -27.814700
C -33.102800 -10.971400 -31.262300
C -33.087800 -13.201700 -24.924500
C -32.993800 -13.292600 -23.529200
H -32.972200 -8.864400 -34.824900
N -32.968200 -10.165200 -33.310600
N -32.818400 -11.984500 -29.122800
H -32.789300 -10.349800 -35.290800
N -32.046500 -12.681800 -27.098300
C -32.007000 -12.805100 -25.698300
H -31.993700 -12.089100 -29.348600
C -31.829000 -13.006300 -22.846500
H -31.772700 -13.061100 -21.919300
N -31.761700 -10.670000 -31.479300
C -31.751200 -10.205600 -32.718100
H -31.339200 -12.897400 -27.537600
H -30.972800 -9.929400 -33.146200
C -30.806900 -12.534000 -25.031900
C -30.742500 -12.628400 -23.634800
H -29.586100 -12.486400 -21.328900
N -29.569500 -12.128000 -25.538200
N -29.451700 -12.262100 -23.300800
C -28.902200 -12.243400 -21.958100
C -28.815900 -11.978000 -24.467200
H -28.581300 -11.361500 -21.756600
H -28.176900 -12.869300 -21.900200
H -27.928000 -11.703300 -24.507400
40
Fragment
H -26.442500 -13.736000 -23.288400
C -25.521100 -13.860800 -23.307000
H -25.451600 -14.613600 -25.200000
H -25.199400 -13.140400 -21.432600
C -24.948200 -14.394400 -24.449700
C -24.770500 -13.498800 -22.175300
O -23.951200 -13.151200 -19.369500
H -23.901600 -15.402500 -26.865800
H -23.591400 -11.826600 -17.362200
C -23.573900 -14.582600 -24.402300
H -23.442000 -11.683100 -15.067600
C -23.391400 -13.671900 -22.157500
C -22.956600 -15.468100 -26.706900
C -22.828300 -12.994800 -19.836500
C -22.801500 -14.266800 -23.284100
C -22.786500 -12.036400 -16.946300
C -22.692500 -11.945600 -15.551000
H -22.670800 -16.373800 -26.846700
N -22.666900 -15.072900 -25.332400
N -22.517000 -13.253600 -21.144600
H -22.488000 -14.888300 -27.312600
N -21.745200 -12.556300 -19.120100
C -21.705600 -12.433000 -17.720100
H -21.692400 -13.149100 -21.370400
C -21.527700 -12.231800 -14.868300
H -21.471400 -12.177000 -13.941100
N -21.460400 -14.568200 -23.501100
C -21.449900 -15.032600 -24.739900
H -21.037800 -12.340700 -19.559400
H -20.671500 -15.308700 -25.168000
C -20.505600 -12.704200 -17.053700
C -20.441100 -12.609700 -15.656600
H -19.284800 -12.751800 -13.350700
N -19.268100 -13.110100 -17.560000
N -19.150300 -12.976000 -15.322600
C -18.600900 -12.994800 -13.979900
C -18.514600 -13.260100 -16.489000
H -18.279900 -13.876700 -13.778400
H -17.875600 -12.368900 -13.922000
H -17.626700 -13.534900 -16.529200
80
Fragment
H -36.743800 -11.502100 -31.266600
C -35.822500 -11.377400 -31.285200
H -35.752900 -10.624500 -33.178200
H -35.500700 -12.097700 -29.410800
C -35.249500 -10.843800 -32.427900
C -35.071800 -11.739300 -30.153500
O -34.252600 -12.086900 -27.347700
H -34.203000 -9.835700 -34.844000
H -33.892800 -13.411600 -25.340400
C -33.875200 -10.655500 -32.380500
H -33.743400 -13.555000 -23.045800
C -33.692700 -11.566300 -30.135700
C -33.257900 -9.770000 -34.685100
C -33.129600 -12.243400 -27.814700
C -33.102800 -10.971400 -31.262300
C -33.087800 -13.201700 -24.924500
C -32.993800 -13.292600 -23.529200
H -32.972200 -8.864400 -34.824900
N -32.968200 -10.165200 -33.310600
N -32.818400 -11.984500 -29.122800
H -32.789300 -10.349800 -35.290800
N -32.046500 -12.681800 -27.098300
C -32.007000 -12.805100 -25.698300
H -31.993700 -12.089100 -29.348600
C -31.829000 -13.006300 -22.846500
H -31.772700 -13.061100 -21.919300
N -31.761700 -10.670000 -31.479300
C -31.751200 -10.205600 -32.718100
H -31.339200 -12.897400 -27.537600
H -30.972800 -9.929400 -33.146200
C -30.806900 -12.534000 -25.031900
C -30.742500 -12.628400 -23.634800
H -29.586100 -12.486400 -21.328900
N -29.569500 -12.128000 -25.538200
N -29.451700 -12.262100 -23.300800
C -28.902200 -12.243400 -21.958100
C -28.815900 -11.978000 -24.467200
H -28.581300 -11.361500 -21.756600
H -28.176900 -12.869300 -21.900200
H -27.928000 -11.703300 -24.507400
H -26.442500 -13.736000 -23.288400
C -25.521100 -13.860800 -23.307000
H -25.451600 -14.613600 -25.200000
H -25.199400 -13.140400 -21.432600
C -24.948200 -14.394400 -24.449700
C -24.770500 -13.498800 -22.175300
O -23.951200 -13.151200 -19.369500
H -23.901600 -15.402500 -26.865800
H -23.591400 -11.826600 -17.362200
C -23.573900 -14.582600 -24.402300
H -23.442000 -11.683100 -15.067600
C -23.391400 -13.671900 -22.157500
C -22.956600 -15.468100 -26.706900
C -22.828300 -12.994800 -19.836500
C -22.801500 -14.266800 -23.284100
C -22.786500 -12.036400 -16.946300
C -22.692500 -11.945600 -15.551000
H -22.670800 -16.373800 -26.846700
N -22.666900 -15.072900 -25.332400
N -22.517000 -13.253600 -21.144600
H -22.488000 -14.888300 -27.312600
N -21.745200 -12.556300 -19.120100
C -21.705600 -12.433000 -17.720100
H -21.692400 -13.149100 -21.370400
C -21.527700 -12.231800 -14.868300
H -21.471400 -12.177000 -13.941100
N -21.460400 -14.568200 -23.501100
C -21.449900 -15.032600 -24.739900
H -21.037800 -12.340700 -19.559400
H -20.671500 -15.308700 -25.168000
C -20.505600 -12.704200 -17.053700
C -20.441100 -12.609700 -15.656600
H -19.284800 -12.751800 -13.350700
N -19.268100 -13.110100 -17.560000
N -19.150300 -12.976000 -15.322600
C -18.600900 -12.994800 -13.979900
C -18.514600 -13.260100 -16.489000
H -18.279900 -13.876700 -13.778400
H -17.875600 -12.368900 -13.922000
H -17.626700 -13.534900 -16.529200
