40
Fragment
H -36.743800 -11.502100 -31.266600
C -35.822500 -11.377400 -31.285200
H -35.752900 -10.624500 -33.178200
H -35.500700 -12.097700 -29.410800
C -35.249500 -10.843800 -32.427900
C -35.071800 -11.739300 -30.153500
O -34.252600 -12.086900 -27.347700
H -34.203000 -9.835700 -34.844000
H -33.892800 -13.411600 -25.340400
C -33.875200 -10.655500 -32.380500
H -33.743400 -13.555000 -23.045800
C -33.692700 -11.566300 -30.135700
C -33.257900 -9.770000 -34.685100
C -33.129600 -12.243400 -27.814700
C -33.102800 -10.971400 -31.262300
C -33.087800 -13.201700 -24.924500
C -32.993800 -13.292600 -23.529200
H -32.972200 -8.864400 -34.824900
N -32.968200 -10.165200 -33.310600
N -32.818400 -11.984500 -29.122800
H -32.789300 -10.349800 -35.290800
N -32.046500 -12.681800 -27.098300
C -32.007000 -12.805100 -25.698300
H -31.993700 -12.089100 -29.348600
C -31.829000 -13.006300 -22.846500
H -31.772700 -13.061100 -21.919300
N -31.761700 -10.670000 -31.479300
C -31.751200 -10.205600 -32.718100
H -31.339200 -12.897400 -27.537600
H -30.972800 -9.929400 -33.146200
C -30.806900 -12.534000 -25.031900
C -30.742500 -12.628400 -23.634800
H -29.586100 -12.486400 -21.328900
N -29.569500 -12.128000 -25.538200
N -29.451700 -12.262100 -23.300800
C -28.902200 -12.243400 -21.958100
C -28.815900 -11.978000 -24.467200
H -28.581300 -11.361500 -21.756600
H -28.176900 -12.869300 -21.900200
H -27.928000 -11.703300 -24.507400
40
Fragment
H -42.602000 -7.896700 -47.223000
C -41.680600 -7.771900 -47.241600
H -41.611100 -7.019100 -49.134600
H -41.358900 -8.492300 -45.367300
C -41.107700 -7.238300 -48.384300
C -40.930000 -8.133900 -46.109900
O -40.110700 -8.481500 -43.304100
H -40.061100 -6.230200 -50.800400
H -39.750900 -9.806100 -41.296800
C -39.733400 -7.050100 -48.336900
H -39.601500 -9.949600 -39.002200
C -39.550900 -7.960800 -46.092200
C -39.116100 -6.164600 -50.641500
C -38.987800 -8.637900 -43.771100
C -38.961000 -7.365900 -47.218700
C -38.946000 -9.596300 -40.880900
C -38.852000 -9.687100 -39.485600
H -38.830300 -5.258900 -50.781300
N -38.826400 -6.559800 -49.267000
N -38.676500 -8.379100 -45.079200
H -38.647500 -6.744400 -51.247200
N -37.904700 -9.076400 -43.054700
C -37.865100 -9.199700 -41.654700
H -37.851900 -8.483600 -45.305000
C -37.687200 -9.400900 -38.802900
H -37.630900 -9.455700 -37.875700
N -37.619900 -7.064500 -47.435700
C -37.609400 -6.600100 -48.674500
H -37.197300 -9.292000 -43.494000
H -36.831000 -6.324000 -49.102600
C -36.665100 -8.928500 -40.988300
C -36.600600 -9.023000 -39.591200
H -35.444300 -8.880900 -37.285300
N -35.427700 -8.522600 -41.494600
N -35.309800 -8.656700 -39.257200
C -34.760400 -8.637900 -37.914500
C -34.674100 -8.372600 -40.423600
H -34.439400 -7.756000 -37.713000
H -34.035100 -9.263800 -37.856600
H -33.786200 -8.097800 -40.463800
80
Fragment
H -36.743800 -11.502100 -31.266600
C -35.822500 -11.377400 -31.285200
H -35.752900 -10.624500 -33.178200
H -35.500700 -12.097700 -29.410800
C -35.249500 -10.843800 -32.427900
C -35.071800 -11.739300 -30.153500
O -34.252600 -12.086900 -27.347700
H -34.203000 -9.835700 -34.844000
H -33.892800 -13.411600 -25.340400
C -33.875200 -10.655500 -32.380500
H -33.743400 -13.555000 -23.045800
C -33.692700 -11.566300 -30.135700
C -33.257900 -9.770000 -34.685100
C -33.129600 -12.243400 -27.814700
C -33.102800 -10.971400 -31.262300
C -33.087800 -13.201700 -24.924500
C -32.993800 -13.292600 -23.529200
H -32.972200 -8.864400 -34.824900
N -32.968200 -10.165200 -33.310600
N -32.818400 -11.984500 -29.122800
H -32.789300 -10.349800 -35.290800
N -32.046500 -12.681800 -27.098300
C -32.007000 -12.805100 -25.698300
H -31.993700 -12.089100 -29.348600
C -31.829000 -13.006300 -22.846500
H -31.772700 -13.061100 -21.919300
N -31.761700 -10.670000 -31.479300
C -31.751200 -10.205600 -32.718100
H -31.339200 -12.897400 -27.537600
H -30.972800 -9.929400 -33.146200
C -30.806900 -12.534000 -25.031900
C -30.742500 -12.628400 -23.634800
H -29.586100 -12.486400 -21.328900
N -29.569500 -12.128000 -25.538200
N -29.451700 -12.262100 -23.300800
C -28.902200 -12.243400 -21.958100
C -28.815900 -11.978000 -24.467200
H -28.581300 -11.361500 -21.756600
H -28.176900 -12.869300 -21.900200
H -27.928000 -11.703300 -24.507400
H -42.602000 -7.896700 -47.223000
C -41.680600 -7.771900 -47.241600
H -41.611100 -7.019100 -49.134600
H -41.358900 -8.492300 -45.367300
C -41.107700 -7.238300 -48.384300
C -40.930000 -8.133900 -46.109900
O -40.110700 -8.481500 -43.304100
H -40.061100 -6.230200 -50.800400
H -39.750900 -9.806100 -41.296800
C -39.733400 -7.050100 -48.336900
H -39.601500 -9.949600 -39.002200
C -39.550900 -7.960800 -46.092200
C -39.116100 -6.164600 -50.641500
C -38.987800 -8.637900 -43.771100
C -38.961000 -7.365900 -47.218700
C -38.946000 -9.596300 -40.880900
C -38.852000 -9.687100 -39.485600
H -38.830300 -5.258900 -50.781300
N -38.826400 -6.559800 -49.267000
N -38.676500 -8.379100 -45.079200
H -38.647500 -6.744400 -51.247200
N -37.904700 -9.076400 -43.054700
C -37.865100 -9.199700 -41.654700
H -37.851900 -8.483600 -45.305000
C -37.687200 -9.400900 -38.802900
H -37.630900 -9.455700 -37.875700
N -37.619900 -7.064500 -47.435700
C -37.609400 -6.600100 -48.674500
H -37.197300 -9.292000 -43.494000
H -36.831000 -6.324000 -49.102600
C -36.665100 -8.928500 -40.988300
C -36.600600 -9.023000 -39.591200
H -35.444300 -8.880900 -37.285300
N -35.427700 -8.522600 -41.494600
N -35.309800 -8.656700 -39.257200
C -34.760400 -8.637900 -37.914500
C -34.674100 -8.372600 -40.423600
H -34.439400 -7.756000 -37.713000
H -34.035100 -9.263800 -37.856600
H -33.786200 -8.097800 -40.463800
