22
Fragment
H -17.499700 -18.564500 -19.432700
H -17.154800 -16.347000 -19.432700
C -16.649000 -18.234900 -19.254500
H -16.599800 -20.908000 -19.113900
C -16.443600 -16.917500 -19.252400
C -15.759600 -20.542100 -18.952100
H -15.616100 -14.383900 -19.059000
C -15.578500 -19.153800 -18.985200
C -15.154400 -16.362500 -18.980000
C -14.920500 -14.982200 -18.909000
H -14.800200 -22.278200 -18.660500
C -14.698100 -21.354400 -18.681600
C -14.284000 -18.658800 -18.717800
C -14.073100 -17.231600 -18.718800
C -13.677600 -14.520700 -18.621100
H -13.504600 -13.607900 -18.572600
C -13.458500 -20.769800 -18.437800
N -13.232600 -19.470900 -18.441800
N -12.831600 -16.760600 -18.436600
H -12.740700 -21.334200 -18.260700
C -12.668000 -15.455900 -18.399200
H -11.816500 -15.133300 -18.211300
22
Fragment
H -10.658100 -19.602700 -19.432700
H -10.313200 -21.820200 -19.432700
C -9.807400 -19.932300 -19.254500
H -9.758200 -17.259200 -19.113900
C -9.602000 -21.249700 -19.252400
C -8.918000 -17.625100 -18.952100
H -8.774500 -23.783300 -19.059000
C -8.736900 -19.013400 -18.985200
C -8.312800 -21.804700 -18.980000
C -8.078900 -23.185000 -18.909000
H -7.958600 -15.889000 -18.660500
C -7.856500 -16.812800 -18.681600
C -7.442400 -19.508400 -18.717800
C -7.231500 -20.935600 -18.718800
C -6.836000 -23.646500 -18.621100
H -6.663000 -24.559300 -18.572600
C -6.616900 -17.397400 -18.437800
N -6.391000 -18.696300 -18.441800
N -5.990000 -21.406600 -18.436600
H -5.899100 -16.833000 -18.260700
C -5.826400 -22.711300 -18.399200
H -4.974900 -23.033900 -18.211300
44
Fragment
H -17.499700 -18.564500 -19.432700
H -17.154800 -16.347000 -19.432700
C -16.649000 -18.234900 -19.254500
H -16.599800 -20.908000 -19.113900
C -16.443600 -16.917500 -19.252400
C -15.759600 -20.542100 -18.952100
H -15.616100 -14.383900 -19.059000
C -15.578500 -19.153800 -18.985200
C -15.154400 -16.362500 -18.980000
C -14.920500 -14.982200 -18.909000
H -14.800200 -22.278200 -18.660500
C -14.698100 -21.354400 -18.681600
C -14.284000 -18.658800 -18.717800
C -14.073100 -17.231600 -18.718800
C -13.677600 -14.520700 -18.621100
H -13.504600 -13.607900 -18.572600
C -13.458500 -20.769800 -18.437800
N -13.232600 -19.470900 -18.441800
N -12.831600 -16.760600 -18.436600
H -12.740700 -21.334200 -18.260700
C -12.668000 -15.455900 -18.399200
H -11.816500 -15.133300 -18.211300
H -10.658100 -19.602700 -19.432700
H -10.313200 -21.820200 -19.432700
C -9.807400 -19.932300 -19.254500
H -9.758200 -17.259200 -19.113900
C -9.602000 -21.249700 -19.252400
C -8.918000 -17.625100 -18.952100
H -8.774500 -23.783300 -19.059000
C -8.736900 -19.013400 -18.985200
C -8.312800 -21.804700 -18.980000
C -8.078900 -23.185000 -18.909000
H -7.958600 -15.889000 -18.660500
C -7.856500 -16.812800 -18.681600
C -7.442400 -19.508400 -18.717800
C -7.231500 -20.935600 -18.718800
C -6.836000 -23.646500 -18.621100
H -6.663000 -24.559300 -18.572600
C -6.616900 -17.397400 -18.437800
N -6.391000 -18.696300 -18.441800
N -5.990000 -21.406600 -18.436600
H -5.899100 -16.833000 -18.260700
C -5.826400 -22.711300 -18.399200
H -4.974900 -23.033900 -18.211300
