22
Fragment
H -17.499700 -18.564500 -19.432700
H -17.154800 -16.347000 -19.432700
C -16.649000 -18.234900 -19.254500
H -16.599800 -20.908000 -19.113900
C -16.443600 -16.917500 -19.252400
C -15.759600 -20.542100 -18.952100
H -15.616100 -14.383900 -19.059000
C -15.578500 -19.153800 -18.985200
C -15.154400 -16.362500 -18.980000
C -14.920500 -14.982200 -18.909000
H -14.800200 -22.278200 -18.660500
C -14.698100 -21.354400 -18.681600
C -14.284000 -18.658800 -18.717800
C -14.073100 -17.231600 -18.718800
C -13.677600 -14.520700 -18.621100
H -13.504600 -13.607900 -18.572600
C -13.458500 -20.769800 -18.437800
N -13.232600 -19.470900 -18.441800
N -12.831600 -16.760600 -18.436600
H -12.740700 -21.334200 -18.260700
C -12.668000 -15.455900 -18.399200
H -11.816500 -15.133300 -18.211300
16
Fragment
H -14.212900 -20.161200 -13.175900
H -13.606300 -20.227300 -14.621200
C -13.429100 -20.375700 -13.688800
H -13.196900 -21.297300 -13.549600
O -12.578000 -20.269600 -11.188100
C -12.300100 -19.508900 -13.253900
H -12.121200 -20.139600 -10.428000
N -12.040600 -18.726400 -15.422000
N -11.858800 -19.440800 -12.056400
H -11.778300 -18.027600 -17.050300
C -11.599400 -18.658300 -14.224400
O -11.321500 -17.897600 -16.290300
H -10.702500 -16.869900 -13.928800
C -10.470400 -17.791500 -13.789600
H -10.293200 -17.939900 -12.857100
H -9.686600 -18.006000 -14.302500
38
Fragment
H -17.499700 -18.564500 -19.432700
H -17.154800 -16.347000 -19.432700
C -16.649000 -18.234900 -19.254500
H -16.599800 -20.908000 -19.113900
C -16.443600 -16.917500 -19.252400
C -15.759600 -20.542100 -18.952100
H -15.616100 -14.383900 -19.059000
C -15.578500 -19.153800 -18.985200
C -15.154400 -16.362500 -18.980000
C -14.920500 -14.982200 -18.909000
H -14.800200 -22.278200 -18.660500
C -14.698100 -21.354400 -18.681600
C -14.284000 -18.658800 -18.717800
C -14.073100 -17.231600 -18.718800
C -13.677600 -14.520700 -18.621100
H -13.504600 -13.607900 -18.572600
C -13.458500 -20.769800 -18.437800
N -13.232600 -19.470900 -18.441800
N -12.831600 -16.760600 -18.436600
H -12.740700 -21.334200 -18.260700
C -12.668000 -15.455900 -18.399200
H -11.816500 -15.133300 -18.211300
H -14.212900 -20.161200 -13.175900
H -13.606300 -20.227300 -14.621200
C -13.429100 -20.375700 -13.688800
H -13.196900 -21.297300 -13.549600
O -12.578000 -20.269600 -11.188100
C -12.300100 -19.508900 -13.253900
H -12.121200 -20.139600 -10.428000
N -12.040600 -18.726400 -15.422000
N -11.858800 -19.440800 -12.056400
H -11.778300 -18.027600 -17.050300
C -11.599400 -18.658300 -14.224400
O -11.321500 -17.897600 -16.290300
H -10.702500 -16.869900 -13.928800
C -10.470400 -17.791500 -13.789600
H -10.293200 -17.939900 -12.857100
H -9.686600 -18.006000 -14.302500
