22
Fragment
H -17.499700 -18.564500 -19.432700
H -17.154800 -16.347000 -19.432700
C -16.649000 -18.234900 -19.254500
H -16.599800 -20.908000 -19.113900
C -16.443600 -16.917500 -19.252400
C -15.759600 -20.542100 -18.952100
H -15.616100 -14.383900 -19.059000
C -15.578500 -19.153800 -18.985200
C -15.154400 -16.362500 -18.980000
C -14.920500 -14.982200 -18.909000
H -14.800200 -22.278200 -18.660500
C -14.698100 -21.354400 -18.681600
C -14.284000 -18.658800 -18.717800
C -14.073100 -17.231600 -18.718800
C -13.677600 -14.520700 -18.621100
H -13.504600 -13.607900 -18.572600
C -13.458500 -20.769800 -18.437800
N -13.232600 -19.470900 -18.441800
N -12.831600 -16.760600 -18.436600
H -12.740700 -21.334200 -18.260700
C -12.668000 -15.455900 -18.399200
H -11.816500 -15.133300 -18.211300
16
Fragment
H -21.054500 -18.006000 -13.175900
H -20.447900 -17.939900 -14.621200
C -20.270700 -17.791500 -13.688800
H -20.038500 -16.869900 -13.549600
O -19.419600 -17.897600 -11.188100
C -19.141700 -18.658300 -13.253900
H -18.962800 -18.027600 -10.428000
N -18.882200 -19.440800 -15.422000
N -18.700400 -18.726400 -12.056400
H -18.619900 -20.139600 -17.050300
C -18.441000 -19.508900 -14.224400
O -18.163100 -20.269600 -16.290300
H -17.544100 -21.297300 -13.928800
C -17.312000 -20.375700 -13.789600
H -17.134800 -20.227300 -12.857100
H -16.528200 -20.161200 -14.302500
38
Fragment
H -17.499700 -18.564500 -19.432700
H -17.154800 -16.347000 -19.432700
C -16.649000 -18.234900 -19.254500
H -16.599800 -20.908000 -19.113900
C -16.443600 -16.917500 -19.252400
C -15.759600 -20.542100 -18.952100
H -15.616100 -14.383900 -19.059000
C -15.578500 -19.153800 -18.985200
C -15.154400 -16.362500 -18.980000
C -14.920500 -14.982200 -18.909000
H -14.800200 -22.278200 -18.660500
C -14.698100 -21.354400 -18.681600
C -14.284000 -18.658800 -18.717800
C -14.073100 -17.231600 -18.718800
C -13.677600 -14.520700 -18.621100
H -13.504600 -13.607900 -18.572600
C -13.458500 -20.769800 -18.437800
N -13.232600 -19.470900 -18.441800
N -12.831600 -16.760600 -18.436600
H -12.740700 -21.334200 -18.260700
C -12.668000 -15.455900 -18.399200
H -11.816500 -15.133300 -18.211300
H -21.054500 -18.006000 -13.175900
H -20.447900 -17.939900 -14.621200
C -20.270700 -17.791500 -13.688800
H -20.038500 -16.869900 -13.549600
O -19.419600 -17.897600 -11.188100
C -19.141700 -18.658300 -13.253900
H -18.962800 -18.027600 -10.428000
N -18.882200 -19.440800 -15.422000
N -18.700400 -18.726400 -12.056400
H -18.619900 -20.139600 -17.050300
C -18.441000 -19.508900 -14.224400
O -18.163100 -20.269600 -16.290300
H -17.544100 -21.297300 -13.928800
C -17.312000 -20.375700 -13.789600
H -17.134800 -20.227300 -12.857100
H -16.528200 -20.161200 -14.302500
