22
Fragment
H -17.499700 -18.564500 -19.432700
H -17.154800 -16.347000 -19.432700
C -16.649000 -18.234900 -19.254500
H -16.599800 -20.908000 -19.113900
C -16.443600 -16.917500 -19.252400
C -15.759600 -20.542100 -18.952100
H -15.616100 -14.383900 -19.059000
C -15.578500 -19.153800 -18.985200
C -15.154400 -16.362500 -18.980000
C -14.920500 -14.982200 -18.909000
H -14.800200 -22.278200 -18.660500
C -14.698100 -21.354400 -18.681600
C -14.284000 -18.658800 -18.717800
C -14.073100 -17.231600 -18.718800
C -13.677600 -14.520700 -18.621100
H -13.504600 -13.607900 -18.572600
C -13.458500 -20.769800 -18.437800
N -13.232600 -19.470900 -18.441800
N -12.831600 -16.760600 -18.436600
H -12.740700 -21.334200 -18.260700
C -12.668000 -15.455900 -18.399200
H -11.816500 -15.133300 -18.211300
16
Fragment
H -20.187700 -26.522400 -20.045500
H -19.581200 -26.588500 -21.490800
C -19.404000 -26.736900 -20.558300
H -19.171800 -27.658500 -20.419200
O -18.552800 -26.630800 -18.057700
C -18.274900 -25.870100 -20.123500
H -18.096100 -26.500800 -17.297600
N -18.015500 -25.087600 -22.291500
N -17.833700 -25.802000 -18.926000
H -17.753100 -24.388800 -23.919900
C -17.574200 -25.019500 -21.094000
O -17.296400 -24.258800 -23.159900
H -16.677400 -23.231100 -20.798400
C -16.445200 -24.152700 -20.659200
H -16.268000 -24.301100 -19.726700
H -15.661500 -24.367200 -21.172100
38
Fragment
H -17.499700 -18.564500 -19.432700
H -17.154800 -16.347000 -19.432700
C -16.649000 -18.234900 -19.254500
H -16.599800 -20.908000 -19.113900
C -16.443600 -16.917500 -19.252400
C -15.759600 -20.542100 -18.952100
H -15.616100 -14.383900 -19.059000
C -15.578500 -19.153800 -18.985200
C -15.154400 -16.362500 -18.980000
C -14.920500 -14.982200 -18.909000
H -14.800200 -22.278200 -18.660500
C -14.698100 -21.354400 -18.681600
C -14.284000 -18.658800 -18.717800
C -14.073100 -17.231600 -18.718800
C -13.677600 -14.520700 -18.621100
H -13.504600 -13.607900 -18.572600
C -13.458500 -20.769800 -18.437800
N -13.232600 -19.470900 -18.441800
N -12.831600 -16.760600 -18.436600
H -12.740700 -21.334200 -18.260700
C -12.668000 -15.455900 -18.399200
H -11.816500 -15.133300 -18.211300
H -20.187700 -26.522400 -20.045500
H -19.581200 -26.588500 -21.490800
C -19.404000 -26.736900 -20.558300
H -19.171800 -27.658500 -20.419200
O -18.552800 -26.630800 -18.057700
C -18.274900 -25.870100 -20.123500
H -18.096100 -26.500800 -17.297600
N -18.015500 -25.087600 -22.291500
N -17.833700 -25.802000 -18.926000
H -17.753100 -24.388800 -23.919900
C -17.574200 -25.019500 -21.094000
O -17.296400 -24.258800 -23.159900
H -16.677400 -23.231100 -20.798400
C -16.445200 -24.152700 -20.659200
H -16.268000 -24.301100 -19.726700
H -15.661500 -24.367200 -21.172100
