15
Fragment
O -23.154700 -19.201200 -23.119800
N -21.986300 -18.892400 -23.343100
N -21.564800 -18.758900 -20.979100
O -21.505500 -18.683800 -24.409500
O -21.474200 -18.657600 -18.263800
C -21.136600 -18.810100 -22.192700
C -20.413200 -18.688600 -20.284900
N -20.396400 -18.592000 -18.854500
N -19.756800 -18.780300 -22.259000
O -19.321900 -18.383400 -18.325300
N -19.304000 -18.695700 -21.000100
H -19.172100 -18.227200 -24.063200
C -18.844500 -18.801800 -23.367400
H -18.772900 -19.698300 -23.704000
H -17.981300 -18.489500 -23.079400
15
Fragment
H -21.152200 -17.273500 -14.988700
H -20.360600 -16.064700 -15.613300
C -20.289000 -16.961200 -15.276800
H -19.961400 -17.535800 -15.972600
N -19.829500 -17.067300 -12.909400
O -19.811600 -17.379600 -10.234700
N -19.376700 -16.982700 -14.168300
N -18.737100 -17.171000 -10.763800
C -18.720300 -17.074400 -12.194200
C -17.996900 -16.952900 -14.102000
O -17.659300 -17.105400 -10.173200
O -17.628000 -17.079200 -16.318800
N -17.568700 -17.004100 -12.888400
N -17.147200 -16.870600 -15.252500
O -15.978800 -16.561800 -15.029200
30
Fragment
O -23.154700 -19.201200 -23.119800
N -21.986300 -18.892400 -23.343100
N -21.564800 -18.758900 -20.979100
O -21.505500 -18.683800 -24.409500
O -21.474200 -18.657600 -18.263800
C -21.136600 -18.810100 -22.192700
C -20.413200 -18.688600 -20.284900
N -20.396400 -18.592000 -18.854500
N -19.756800 -18.780300 -22.259000
O -19.321900 -18.383400 -18.325300
N -19.304000 -18.695700 -21.000100
H -19.172100 -18.227200 -24.063200
C -18.844500 -18.801800 -23.367400
H -18.772900 -19.698300 -23.704000
H -17.981300 -18.489500 -23.079400
H -21.152200 -17.273500 -14.988700
H -20.360600 -16.064700 -15.613300
C -20.289000 -16.961200 -15.276800
H -19.961400 -17.535800 -15.972600
N -19.829500 -17.067300 -12.909400
O -19.811600 -17.379600 -10.234700
N -19.376700 -16.982700 -14.168300
N -18.737100 -17.171000 -10.763800
C -18.720300 -17.074400 -12.194200
C -17.996900 -16.952900 -14.102000
O -17.659300 -17.105400 -10.173200
O -17.628000 -17.079200 -16.318800
N -17.568700 -17.004100 -12.888400
N -17.147200 -16.870600 -15.252500
O -15.978800 -16.561800 -15.029200
