15
Fragment
O -23.154700 -19.201200 -23.119800
N -21.986300 -18.892400 -23.343100
N -21.564800 -18.758900 -20.979100
O -21.505500 -18.683800 -24.409500
O -21.474200 -18.657600 -18.263800
C -21.136600 -18.810100 -22.192700
C -20.413200 -18.688600 -20.284900
N -20.396400 -18.592000 -18.854500
N -19.756800 -18.780300 -22.259000
O -19.321900 -18.383400 -18.325300
N -19.304000 -18.695700 -21.000100
H -19.172100 -18.227200 -24.063200
C -18.844500 -18.801800 -23.367400
H -18.772900 -19.698300 -23.704000
H -17.981300 -18.489500 -23.079400
36
Fragment
O -29.068400 -20.822400 -18.396500
O -28.349400 -16.590500 -20.076100
H -28.312500 -19.096200 -19.652200
N -28.012900 -20.657900 -17.778400
O -27.751200 -21.068000 -16.636000
N -27.503000 -16.601200 -19.174800
C -27.363300 -19.014000 -19.422400
N -27.111700 -17.801600 -18.679700
O -26.990900 -15.590300 -18.660300
N -26.979800 -19.999900 -18.456400
H -26.960700 -19.262000 -21.548600
C -26.439700 -19.118900 -20.731500
O -26.121100 -17.749200 -23.006600
H -26.062900 -19.753100 -16.747600
H -25.973500 -17.368900 -17.200700
C -25.888500 -17.928000 -17.917600
C -25.843800 -19.468200 -17.699100
O -25.834800 -20.955900 -22.556700
N -25.611200 -17.919600 -20.797800
N -25.442400 -20.194200 -20.493600
N -25.344000 -17.446400 -22.106900
N -25.085700 -20.991700 -21.629500
O -24.735700 -21.673600 -16.872200
N -24.703300 -17.492900 -18.606900
N -24.591500 -19.943800 -18.281600
C -24.477400 -18.104400 -19.885200
O -24.383500 -16.689400 -22.233100
C -24.369000 -19.653000 -19.660300
O -24.361200 -15.741700 -17.257400
N -24.191200 -21.248000 -17.859300
N -24.173300 -16.241200 -18.346400
O -24.089500 -21.634200 -21.495200
H -23.860300 -17.833800 -20.372300
H -23.726100 -19.860400 -20.064800
O -23.533800 -15.731000 -19.304300
O -23.322400 -21.768900 -18.514600
51
Fragment
O -23.154700 -19.201200 -23.119800
N -21.986300 -18.892400 -23.343100
N -21.564800 -18.758900 -20.979100
O -21.505500 -18.683800 -24.409500
O -21.474200 -18.657600 -18.263800
C -21.136600 -18.810100 -22.192700
C -20.413200 -18.688600 -20.284900
N -20.396400 -18.592000 -18.854500
N -19.756800 -18.780300 -22.259000
O -19.321900 -18.383400 -18.325300
N -19.304000 -18.695700 -21.000100
H -19.172100 -18.227200 -24.063200
C -18.844500 -18.801800 -23.367400
H -18.772900 -19.698300 -23.704000
H -17.981300 -18.489500 -23.079400
O -29.068400 -20.822400 -18.396500
O -28.349400 -16.590500 -20.076100
H -28.312500 -19.096200 -19.652200
N -28.012900 -20.657900 -17.778400
O -27.751200 -21.068000 -16.636000
N -27.503000 -16.601200 -19.174800
C -27.363300 -19.014000 -19.422400
N -27.111700 -17.801600 -18.679700
O -26.990900 -15.590300 -18.660300
N -26.979800 -19.999900 -18.456400
H -26.960700 -19.262000 -21.548600
C -26.439700 -19.118900 -20.731500
O -26.121100 -17.749200 -23.006600
H -26.062900 -19.753100 -16.747600
H -25.973500 -17.368900 -17.200700
C -25.888500 -17.928000 -17.917600
C -25.843800 -19.468200 -17.699100
O -25.834800 -20.955900 -22.556700
N -25.611200 -17.919600 -20.797800
N -25.442400 -20.194200 -20.493600
N -25.344000 -17.446400 -22.106900
N -25.085700 -20.991700 -21.629500
O -24.735700 -21.673600 -16.872200
N -24.703300 -17.492900 -18.606900
N -24.591500 -19.943800 -18.281600
C -24.477400 -18.104400 -19.885200
O -24.383500 -16.689400 -22.233100
C -24.369000 -19.653000 -19.660300
O -24.361200 -15.741700 -17.257400
N -24.191200 -21.248000 -17.859300
N -24.173300 -16.241200 -18.346400
O -24.089500 -21.634200 -21.495200
H -23.860300 -17.833800 -20.372300
H -23.726100 -19.860400 -20.064800
O -23.533800 -15.731000 -19.304300
O -23.322400 -21.768900 -18.514600
