20
Fragment
H -14.677300 -12.229700 -19.794800
N -14.302400 -12.617900 -19.049800
H -14.269800 -13.438200 -19.192700
N -12.964100 -12.168900 -18.942300
H -12.788500 -11.655500 -18.307700
O -12.192100 -13.379400 -20.683800
C -11.993600 -12.596200 -19.741200
Cl -10.674000 -10.732700 -21.778400
C -10.634600 -12.066800 -19.409800
H -10.478000 -12.920000 -17.565400
C -10.004800 -12.405900 -18.209700
C -9.917600 -11.268100 -20.302300
C -8.705700 -12.009400 -17.938400
C -8.624100 -10.852000 -20.045900
H -8.296300 -12.264000 -17.120000
H -8.164400 -10.305800 -20.673800
C -7.994900 -11.238700 -18.858400
N -6.699500 -10.806600 -18.570800
H -6.250200 -11.384900 -18.087400
H -6.204800 -10.505100 -19.339900
3
Fragment
H -14.898400 -15.530700 -17.928300
H -14.635200 -16.073400 -19.147900
O -14.278300 -15.635500 -18.527100
23
Fragment
H -14.677300 -12.229700 -19.794800
N -14.302400 -12.617900 -19.049800
H -14.269800 -13.438200 -19.192700
N -12.964100 -12.168900 -18.942300
H -12.788500 -11.655500 -18.307700
O -12.192100 -13.379400 -20.683800
C -11.993600 -12.596200 -19.741200
Cl -10.674000 -10.732700 -21.778400
C -10.634600 -12.066800 -19.409800
H -10.478000 -12.920000 -17.565400
C -10.004800 -12.405900 -18.209700
C -9.917600 -11.268100 -20.302300
C -8.705700 -12.009400 -17.938400
C -8.624100 -10.852000 -20.045900
H -8.296300 -12.264000 -17.120000
H -8.164400 -10.305800 -20.673800
C -7.994900 -11.238700 -18.858400
N -6.699500 -10.806600 -18.570800
H -6.250200 -11.384900 -18.087400
H -6.204800 -10.505100 -19.339900
H -14.898400 -15.530700 -17.928300
H -14.635200 -16.073400 -19.147900
O -14.278300 -15.635500 -18.527100
