20
Fragment
H -14.677300 -12.229700 -19.794800
N -14.302400 -12.617900 -19.049800
H -14.269800 -13.438200 -19.192700
N -12.964100 -12.168900 -18.942300
H -12.788500 -11.655500 -18.307700
O -12.192100 -13.379400 -20.683800
C -11.993600 -12.596200 -19.741200
Cl -10.674000 -10.732700 -21.778400
C -10.634600 -12.066800 -19.409800
H -10.478000 -12.920000 -17.565400
C -10.004800 -12.405900 -18.209700
C -9.917600 -11.268100 -20.302300
C -8.705700 -12.009400 -17.938400
C -8.624100 -10.852000 -20.045900
H -8.296300 -12.264000 -17.120000
H -8.164400 -10.305800 -20.673800
C -7.994900 -11.238700 -18.858400
N -6.699500 -10.806600 -18.570800
H -6.250200 -11.384900 -18.087400
H -6.204800 -10.505100 -19.339900
20
Fragment
H -12.998700 -10.475700 -16.010000
H -12.953300 -9.595900 -17.262500
N -12.503900 -10.174200 -16.779100
C -11.208500 -9.742100 -16.491600
H -11.039000 -10.675000 -14.676100
H -10.907100 -8.716800 -18.230000
C -10.579400 -10.128800 -15.304000
C -10.497800 -8.971400 -17.411500
C -9.285900 -9.712700 -15.047600
C -9.198700 -8.574900 -17.140200
H -8.725500 -8.060800 -17.784500
C -8.568800 -8.914000 -15.940100
Cl -8.529500 -10.248100 -13.571500
C -7.209900 -8.384600 -15.608800
O -7.011300 -7.601400 -14.666100
H -6.414900 -9.325300 -17.042200
N -6.239300 -8.811900 -16.407700
H -4.933700 -7.542600 -16.157300
N -4.901000 -8.362900 -16.300100
H -4.526200 -8.751100 -15.555100
40
Fragment
H -14.677300 -12.229700 -19.794800
N -14.302400 -12.617900 -19.049800
H -14.269800 -13.438200 -19.192700
N -12.964100 -12.168900 -18.942300
H -12.788500 -11.655500 -18.307700
O -12.192100 -13.379400 -20.683800
C -11.993600 -12.596200 -19.741200
Cl -10.674000 -10.732700 -21.778400
C -10.634600 -12.066800 -19.409800
H -10.478000 -12.920000 -17.565400
C -10.004800 -12.405900 -18.209700
C -9.917600 -11.268100 -20.302300
C -8.705700 -12.009400 -17.938400
C -8.624100 -10.852000 -20.045900
H -8.296300 -12.264000 -17.120000
H -8.164400 -10.305800 -20.673800
C -7.994900 -11.238700 -18.858400
N -6.699500 -10.806600 -18.570800
H -6.250200 -11.384900 -18.087400
H -6.204800 -10.505100 -19.339900
H -12.998700 -10.475700 -16.010000
H -12.953300 -9.595900 -17.262500
N -12.503900 -10.174200 -16.779100
C -11.208500 -9.742100 -16.491600
H -11.039000 -10.675000 -14.676100
H -10.907100 -8.716800 -18.230000
C -10.579400 -10.128800 -15.304000
C -10.497800 -8.971400 -17.411500
C -9.285900 -9.712700 -15.047600
C -9.198700 -8.574900 -17.140200
H -8.725500 -8.060800 -17.784500
C -8.568800 -8.914000 -15.940100
Cl -8.529500 -10.248100 -13.571500
C -7.209900 -8.384600 -15.608800
O -7.011300 -7.601400 -14.666100
H -6.414900 -9.325300 -17.042200
N -6.239300 -8.811900 -16.407700
H -4.933700 -7.542600 -16.157300
N -4.901000 -8.362900 -16.300100
H -4.526200 -8.751100 -15.555100
