20
Fragment
H -14.677300 -12.229700 -19.794800
N -14.302400 -12.617900 -19.049800
H -14.269800 -13.438200 -19.192700
N -12.964100 -12.168900 -18.942300
H -12.788500 -11.655500 -18.307700
O -12.192100 -13.379400 -20.683800
C -11.993600 -12.596200 -19.741200
Cl -10.674000 -10.732700 -21.778400
C -10.634600 -12.066800 -19.409800
H -10.478000 -12.920000 -17.565400
C -10.004800 -12.405900 -18.209700
C -9.917600 -11.268100 -20.302300
C -8.705700 -12.009400 -17.938400
C -8.624100 -10.852000 -20.045900
H -8.296300 -12.264000 -17.120000
H -8.164400 -10.305800 -20.673800
C -7.994900 -11.238700 -18.858400
N -6.699500 -10.806600 -18.570800
H -6.250200 -11.384900 -18.087400
H -6.204800 -10.505100 -19.339900
20
Fragment
H -21.782600 -14.001900 -21.901600
H -21.737200 -14.881700 -23.154200
N -21.287800 -14.303400 -22.670700
C -19.992400 -14.735500 -22.383200
H -19.822900 -13.802600 -20.567800
H -19.691000 -15.760800 -24.121600
C -19.363300 -14.348800 -21.195700
C -19.281700 -15.506200 -23.303100
C -18.069800 -14.764900 -20.939300
C -17.982600 -15.902700 -23.031900
H -17.509400 -16.416800 -23.676200
C -17.352800 -15.563600 -21.831800
Cl -17.313400 -14.229500 -19.463200
C -15.993800 -16.093000 -21.500400
O -15.795200 -16.876200 -20.557700
H -15.198900 -15.152300 -22.933900
N -15.023200 -15.665700 -22.299300
H -13.717600 -16.935000 -22.048900
N -13.685000 -16.114700 -22.191700
H -13.310100 -15.726500 -21.446800
40
Fragment
H -14.677300 -12.229700 -19.794800
N -14.302400 -12.617900 -19.049800
H -14.269800 -13.438200 -19.192700
N -12.964100 -12.168900 -18.942300
H -12.788500 -11.655500 -18.307700
O -12.192100 -13.379400 -20.683800
C -11.993600 -12.596200 -19.741200
Cl -10.674000 -10.732700 -21.778400
C -10.634600 -12.066800 -19.409800
H -10.478000 -12.920000 -17.565400
C -10.004800 -12.405900 -18.209700
C -9.917600 -11.268100 -20.302300
C -8.705700 -12.009400 -17.938400
C -8.624100 -10.852000 -20.045900
H -8.296300 -12.264000 -17.120000
H -8.164400 -10.305800 -20.673800
C -7.994900 -11.238700 -18.858400
N -6.699500 -10.806600 -18.570800
H -6.250200 -11.384900 -18.087400
H -6.204800 -10.505100 -19.339900
H -21.782600 -14.001900 -21.901600
H -21.737200 -14.881700 -23.154200
N -21.287800 -14.303400 -22.670700
C -19.992400 -14.735500 -22.383200
H -19.822900 -13.802600 -20.567800
H -19.691000 -15.760800 -24.121600
C -19.363300 -14.348800 -21.195700
C -19.281700 -15.506200 -23.303100
C -18.069800 -14.764900 -20.939300
C -17.982600 -15.902700 -23.031900
H -17.509400 -16.416800 -23.676200
C -17.352800 -15.563600 -21.831800
Cl -17.313400 -14.229500 -19.463200
C -15.993800 -16.093000 -21.500400
O -15.795200 -16.876200 -20.557700
H -15.198900 -15.152300 -22.933900
N -15.023200 -15.665700 -22.299300
H -13.717600 -16.935000 -22.048900
N -13.685000 -16.114700 -22.191700
H -13.310100 -15.726500 -21.446800
