30
Fragment
H -7.189600 -11.059000 -22.046400
H -6.669900 -13.007600 -23.144300
C -6.382900 -11.131900 -22.503700
C -6.078300 -12.290100 -23.166000
Cl -5.967300 -8.618500 -21.713400
C -5.500000 -10.074500 -22.508700
C -4.897100 -12.392100 -23.863700
H -4.696200 -13.163500 -24.341600
C -4.254800 -10.150900 -23.155700
C -4.014900 -11.330700 -23.842700
N -3.357600 -9.085300 -23.135800
H -3.184900 -10.216000 -20.780400
H -3.141500 -6.553700 -23.586900
H -3.124200 -8.719100 -23.878300
C -2.819600 -8.590000 -21.919400
C -2.817700 -9.361900 -20.767200
Cl -2.517900 -11.492500 -24.713300
C -2.302100 -6.427800 -23.116800
C -2.279600 -7.300900 -21.894500
H -2.277600 -9.386600 -18.831500
C -2.271700 -8.865700 -19.601900
H -2.246500 -5.497000 -22.848300
C -1.727800 -6.838300 -20.707900
C -1.722500 -7.613600 -19.569600
H -1.354600 -5.987000 -20.680900
H -1.347800 -7.287800 -18.783400
C -1.153800 -6.751600 -24.044100
O -1.011600 -7.845300 -24.545800
O -0.327300 -5.750400 -24.231400
H 0.300900 -5.997900 -24.696900
15
Fragment
H -4.385500 -18.573600 -25.604500
N -3.631200 -18.653500 -26.009700
H -3.389800 -19.417400 -26.322300
N -3.238100 -16.402200 -25.652600
C -2.843900 -17.603100 -26.151700
H -2.773700 -14.537800 -25.445600
C -2.450700 -15.330600 -25.808500
C -1.599800 -17.635200 -26.802300
N -1.276600 -15.249100 -26.409100
C -0.890900 -16.450600 -26.890900
N -0.877000 -18.671200 -27.377200
C 0.224600 -18.087700 -27.782400
N 0.265900 -16.754400 -27.529600
H 0.900400 -16.210600 -27.734000
H 0.914700 -18.545500 -28.204900
45
Fragment
H -7.189600 -11.059000 -22.046400
H -6.669900 -13.007600 -23.144300
C -6.382900 -11.131900 -22.503700
C -6.078300 -12.290100 -23.166000
Cl -5.967300 -8.618500 -21.713400
C -5.500000 -10.074500 -22.508700
C -4.897100 -12.392100 -23.863700
H -4.696200 -13.163500 -24.341600
C -4.254800 -10.150900 -23.155700
C -4.014900 -11.330700 -23.842700
N -3.357600 -9.085300 -23.135800
H -3.184900 -10.216000 -20.780400
H -3.141500 -6.553700 -23.586900
H -3.124200 -8.719100 -23.878300
C -2.819600 -8.590000 -21.919400
C -2.817700 -9.361900 -20.767200
Cl -2.517900 -11.492500 -24.713300
C -2.302100 -6.427800 -23.116800
C -2.279600 -7.300900 -21.894500
H -2.277600 -9.386600 -18.831500
C -2.271700 -8.865700 -19.601900
H -2.246500 -5.497000 -22.848300
C -1.727800 -6.838300 -20.707900
C -1.722500 -7.613600 -19.569600
H -1.354600 -5.987000 -20.680900
H -1.347800 -7.287800 -18.783400
C -1.153800 -6.751600 -24.044100
O -1.011600 -7.845300 -24.545800
O -0.327300 -5.750400 -24.231400
H 0.300900 -5.997900 -24.696900
H -4.385500 -18.573600 -25.604500
N -3.631200 -18.653500 -26.009700
H -3.389800 -19.417400 -26.322300
N -3.238100 -16.402200 -25.652600
C -2.843900 -17.603100 -26.151700
H -2.773700 -14.537800 -25.445600
C -2.450700 -15.330600 -25.808500
C -1.599800 -17.635200 -26.802300
N -1.276600 -15.249100 -26.409100
C -0.890900 -16.450600 -26.890900
N -0.877000 -18.671200 -27.377200
C 0.224600 -18.087700 -27.782400
N 0.265900 -16.754400 -27.529600
H 0.900400 -16.210600 -27.734000
H 0.914700 -18.545500 -28.204900
