15
Fragment
O -9.760200 -14.821600 -12.937300
O -9.262200 -14.854600 -15.552200
C -9.049600 -15.693500 -13.371700
H -8.869100 -14.145900 -15.309200
O -8.773100 -16.645700 -11.245000
N -8.720000 -15.806400 -14.711300
N -8.455100 -16.664200 -12.590000
H -8.075900 -16.245800 -10.867000
C -7.962600 -16.796600 -15.305200
O -7.735000 -16.853900 -16.490500
C -7.704800 -17.735900 -13.028000
N -7.510300 -17.731200 -14.394700
O -7.241800 -18.585800 -12.306800
O -6.963400 -18.875100 -14.944000
H -6.145500 -18.904900 -14.629500
15
Fragment
H -11.604900 -16.868300 -17.736700
O -10.787000 -16.898100 -17.422200
O -10.508600 -17.187400 -20.059400
N -10.240100 -18.042000 -17.971500
C -10.045600 -18.037300 -19.338200
O -10.015400 -18.919300 -15.875700
C -9.787800 -18.976600 -17.061000
H -9.674500 -19.527400 -21.499200
N -9.295300 -19.109000 -19.776200
N -9.030400 -19.966800 -17.654900
O -8.977200 -19.127500 -21.121200
H -8.881300 -21.627300 -17.057000
C -8.700700 -20.079700 -18.994500
O -8.488200 -20.918600 -16.814000
O -7.990200 -20.951600 -19.428900
30
Fragment
O -9.760200 -14.821600 -12.937300
O -9.262200 -14.854600 -15.552200
C -9.049600 -15.693500 -13.371700
H -8.869100 -14.145900 -15.309200
O -8.773100 -16.645700 -11.245000
N -8.720000 -15.806400 -14.711300
N -8.455100 -16.664200 -12.590000
H -8.075900 -16.245800 -10.867000
C -7.962600 -16.796600 -15.305200
O -7.735000 -16.853900 -16.490500
C -7.704800 -17.735900 -13.028000
N -7.510300 -17.731200 -14.394700
O -7.241800 -18.585800 -12.306800
O -6.963400 -18.875100 -14.944000
H -6.145500 -18.904900 -14.629500
H -11.604900 -16.868300 -17.736700
O -10.787000 -16.898100 -17.422200
O -10.508600 -17.187400 -20.059400
N -10.240100 -18.042000 -17.971500
C -10.045600 -18.037300 -19.338200
O -10.015400 -18.919300 -15.875700
C -9.787800 -18.976600 -17.061000
H -9.674500 -19.527400 -21.499200
N -9.295300 -19.109000 -19.776200
N -9.030400 -19.966800 -17.654900
O -8.977200 -19.127500 -21.121200
H -8.881300 -21.627300 -17.057000
C -8.700700 -20.079700 -18.994500
O -8.488200 -20.918600 -16.814000
O -7.990200 -20.951600 -19.428900
