15
Fragment
O -9.760200 -14.821600 -12.937300
O -9.262200 -14.854600 -15.552200
C -9.049600 -15.693500 -13.371700
H -8.869100 -14.145900 -15.309200
O -8.773100 -16.645700 -11.245000
N -8.720000 -15.806400 -14.711300
N -8.455100 -16.664200 -12.590000
H -8.075900 -16.245800 -10.867000
C -7.962600 -16.796600 -15.305200
O -7.735000 -16.853900 -16.490500
C -7.704800 -17.735900 -13.028000
N -7.510300 -17.731200 -14.394700
O -7.241800 -18.585800 -12.306800
O -6.963400 -18.875100 -14.944000
H -6.145500 -18.904900 -14.629500
15
Fragment
H -5.289600 -16.868300 -9.645100
O -4.471700 -16.898100 -9.330600
O -4.193300 -17.187400 -11.967900
N -3.924700 -18.042000 -9.879900
C -3.730200 -18.037300 -11.246600
O -3.700100 -18.919300 -7.784200
C -3.472500 -18.976600 -8.969500
H -3.359200 -19.527400 -13.407700
N -2.980000 -19.109000 -11.684700
N -2.715100 -19.966800 -9.563300
O -2.661900 -19.127500 -13.029700
H -2.565900 -21.627300 -8.965400
C -2.385400 -20.079700 -10.903000
O -2.172900 -20.918600 -8.722400
O -1.674900 -20.951600 -11.337400
30
Fragment
O -9.760200 -14.821600 -12.937300
O -9.262200 -14.854600 -15.552200
C -9.049600 -15.693500 -13.371700
H -8.869100 -14.145900 -15.309200
O -8.773100 -16.645700 -11.245000
N -8.720000 -15.806400 -14.711300
N -8.455100 -16.664200 -12.590000
H -8.075900 -16.245800 -10.867000
C -7.962600 -16.796600 -15.305200
O -7.735000 -16.853900 -16.490500
C -7.704800 -17.735900 -13.028000
N -7.510300 -17.731200 -14.394700
O -7.241800 -18.585800 -12.306800
O -6.963400 -18.875100 -14.944000
H -6.145500 -18.904900 -14.629500
H -5.289600 -16.868300 -9.645100
O -4.471700 -16.898100 -9.330600
O -4.193300 -17.187400 -11.967900
N -3.924700 -18.042000 -9.879900
C -3.730200 -18.037300 -11.246600
O -3.700100 -18.919300 -7.784200
C -3.472500 -18.976600 -8.969500
H -3.359200 -19.527400 -13.407700
N -2.980000 -19.109000 -11.684700
N -2.715100 -19.966800 -9.563300
O -2.661900 -19.127500 -13.029700
H -2.565900 -21.627300 -8.965400
C -2.385400 -20.079700 -10.903000
O -2.172900 -20.918600 -8.722400
O -1.674900 -20.951600 -11.337400
