15
Fragment
O -9.760200 -14.821600 -12.937300
O -9.262200 -14.854600 -15.552200
C -9.049600 -15.693500 -13.371700
H -8.869100 -14.145900 -15.309200
O -8.773100 -16.645700 -11.245000
N -8.720000 -15.806400 -14.711300
N -8.455100 -16.664200 -12.590000
H -8.075900 -16.245800 -10.867000
C -7.962600 -16.796600 -15.305200
O -7.735000 -16.853900 -16.490500
C -7.704800 -17.735900 -13.028000
N -7.510300 -17.731200 -14.394700
O -7.241800 -18.585800 -12.306800
O -6.963400 -18.875100 -14.944000
H -6.145500 -18.904900 -14.629500
15
Fragment
O -6.004700 -14.989400 -12.937300
O -5.506700 -14.956400 -15.552200
C -5.294200 -14.117500 -13.371700
H -5.113700 -15.665100 -15.309200
O -5.017700 -13.165300 -11.245000
N -4.964500 -14.004600 -14.711300
N -4.699600 -13.146800 -12.590000
H -4.320400 -13.565200 -10.867000
C -4.207100 -13.014400 -15.305200
O -3.979500 -12.957100 -16.490500
C -3.949400 -12.075100 -13.028000
N -3.754900 -12.079800 -14.394700
O -3.486300 -11.225200 -12.306800
O -3.208000 -10.935900 -14.944000
H -2.390000 -10.906100 -14.629500
30
Fragment
O -9.760200 -14.821600 -12.937300
O -9.262200 -14.854600 -15.552200
C -9.049600 -15.693500 -13.371700
H -8.869100 -14.145900 -15.309200
O -8.773100 -16.645700 -11.245000
N -8.720000 -15.806400 -14.711300
N -8.455100 -16.664200 -12.590000
H -8.075900 -16.245800 -10.867000
C -7.962600 -16.796600 -15.305200
O -7.735000 -16.853900 -16.490500
C -7.704800 -17.735900 -13.028000
N -7.510300 -17.731200 -14.394700
O -7.241800 -18.585800 -12.306800
O -6.963400 -18.875100 -14.944000
H -6.145500 -18.904900 -14.629500
O -6.004700 -14.989400 -12.937300
O -5.506700 -14.956400 -15.552200
C -5.294200 -14.117500 -13.371700
H -5.113700 -15.665100 -15.309200
O -5.017700 -13.165300 -11.245000
N -4.964500 -14.004600 -14.711300
N -4.699600 -13.146800 -12.590000
H -4.320400 -13.565200 -10.867000
C -4.207100 -13.014400 -15.305200
O -3.979500 -12.957100 -16.490500
C -3.949400 -12.075100 -13.028000
N -3.754900 -12.079800 -14.394700
O -3.486300 -11.225200 -12.306800
O -3.208000 -10.935900 -14.944000
H -2.390000 -10.906100 -14.629500
