15
Fragment
O -9.760200 -14.821600 -12.937300
O -9.262200 -14.854600 -15.552200
C -9.049600 -15.693500 -13.371700
H -8.869100 -14.145900 -15.309200
O -8.773100 -16.645700 -11.245000
N -8.720000 -15.806400 -14.711300
N -8.455100 -16.664200 -12.590000
H -8.075900 -16.245800 -10.867000
C -7.962600 -16.796600 -15.305200
O -7.735000 -16.853900 -16.490500
C -7.704800 -17.735900 -13.028000
N -7.510300 -17.731200 -14.394700
O -7.241800 -18.585800 -12.306800
O -6.963400 -18.875100 -14.944000
H -6.145500 -18.904900 -14.629500
15
Fragment
O -8.564600 -14.821600 -21.028800
O -8.066600 -14.854600 -23.643800
C -7.854100 -15.693500 -21.463200
H -7.673500 -14.145900 -23.400800
O -7.577600 -16.645700 -19.336500
N -7.524400 -15.806400 -22.802900
N -7.259500 -16.664200 -20.681500
H -6.880300 -16.245800 -18.958500
C -6.767000 -16.796600 -23.396700
O -6.539400 -16.853900 -24.582000
C -6.509200 -17.735900 -21.119600
N -6.314700 -17.731200 -22.486300
O -6.046200 -18.585800 -20.398300
O -5.767800 -18.875100 -23.035600
H -4.949900 -18.904900 -22.721100
30
Fragment
O -9.760200 -14.821600 -12.937300
O -9.262200 -14.854600 -15.552200
C -9.049600 -15.693500 -13.371700
H -8.869100 -14.145900 -15.309200
O -8.773100 -16.645700 -11.245000
N -8.720000 -15.806400 -14.711300
N -8.455100 -16.664200 -12.590000
H -8.075900 -16.245800 -10.867000
C -7.962600 -16.796600 -15.305200
O -7.735000 -16.853900 -16.490500
C -7.704800 -17.735900 -13.028000
N -7.510300 -17.731200 -14.394700
O -7.241800 -18.585800 -12.306800
O -6.963400 -18.875100 -14.944000
H -6.145500 -18.904900 -14.629500
O -8.564600 -14.821600 -21.028800
O -8.066600 -14.854600 -23.643800
C -7.854100 -15.693500 -21.463200
H -7.673500 -14.145900 -23.400800
O -7.577600 -16.645700 -19.336500
N -7.524400 -15.806400 -22.802900
N -7.259500 -16.664200 -20.681500
H -6.880300 -16.245800 -18.958500
C -6.767000 -16.796600 -23.396700
O -6.539400 -16.853900 -24.582000
C -6.509200 -17.735900 -21.119600
N -6.314700 -17.731200 -22.486300
O -6.046200 -18.585800 -20.398300
O -5.767800 -18.875100 -23.035600
H -4.949900 -18.904900 -22.721100
