15
Fragment
O -9.760200 -14.821600 -12.937300
O -9.262200 -14.854600 -15.552200
C -9.049600 -15.693500 -13.371700
H -8.869100 -14.145900 -15.309200
O -8.773100 -16.645700 -11.245000
N -8.720000 -15.806400 -14.711300
N -8.455100 -16.664200 -12.590000
H -8.075900 -16.245800 -10.867000
C -7.962600 -16.796600 -15.305200
O -7.735000 -16.853900 -16.490500
C -7.704800 -17.735900 -13.028000
N -7.510300 -17.731200 -14.394700
O -7.241800 -18.585800 -12.306800
O -6.963400 -18.875100 -14.944000
H -6.145500 -18.904900 -14.629500
3
Fragment
H -7.587000 -18.210900 -9.143500
H -7.123400 -18.594900 -10.349100
O -6.939700 -18.599300 -9.554800
18
Fragment
O -9.760200 -14.821600 -12.937300
O -9.262200 -14.854600 -15.552200
C -9.049600 -15.693500 -13.371700
H -8.869100 -14.145900 -15.309200
O -8.773100 -16.645700 -11.245000
N -8.720000 -15.806400 -14.711300
N -8.455100 -16.664200 -12.590000
H -8.075900 -16.245800 -10.867000
C -7.962600 -16.796600 -15.305200
O -7.735000 -16.853900 -16.490500
C -7.704800 -17.735900 -13.028000
N -7.510300 -17.731200 -14.394700
O -7.241800 -18.585800 -12.306800
O -6.963400 -18.875100 -14.944000
H -6.145500 -18.904900 -14.629500
H -7.587000 -18.210900 -9.143500
H -7.123400 -18.594900 -10.349100
O -6.939700 -18.599300 -9.554800
