21
Fragment
H -14.996600 -8.448100 -41.066800
H -14.289200 -9.286200 -39.877400
H -14.289200 -7.610100 -39.877400
C -14.258300 -8.448100 -40.427000
H -13.884700 -8.448100 -42.991800
C -13.042300 -8.448100 -42.596700
C -12.974000 -8.448100 -41.209800
H -12.652100 -9.171300 -45.269800
H -12.652100 -7.725000 -45.269800
O -12.399400 -8.448100 -38.344600
C -12.091000 -8.448100 -44.922100
C -11.936000 -8.448100 -43.425900
C -11.698400 -8.448100 -40.628300
C -11.497400 -8.448100 -39.154900
H -11.324900 -8.448100 -45.373500
C -10.689100 -8.448100 -42.821300
C -10.569900 -8.448100 -41.448500
O -10.232100 -8.448100 -38.788000
H -10.093100 -8.448100 -37.809500
H -9.923000 -8.448100 -43.348900
H -9.723500 -8.448100 -41.062600
21
Fragment
H -11.022900 -8.448100 -49.628400
H -10.315600 -9.286200 -50.817800
H -10.315600 -7.610100 -50.817800
C -10.284600 -8.448100 -50.268200
H -9.911100 -8.448100 -47.703300
C -9.068700 -8.448100 -48.098500
C -9.000300 -8.448100 -49.485300
H -8.678500 -9.171300 -45.425300
H -8.678500 -7.725000 -45.425300
O -8.425700 -8.448100 -52.350500
C -8.117400 -8.448100 -45.773100
C -7.962400 -8.448100 -47.269300
C -7.724800 -8.448100 -50.066800
C -7.523700 -8.448100 -51.540200
H -7.351300 -8.448100 -45.321700
C -6.715500 -8.448100 -47.873800
C -6.596300 -8.448100 -49.246700
O -6.258500 -8.448100 -51.907200
H -6.119400 -8.448100 -52.885600
H -5.949300 -8.448100 -47.346200
H -5.749900 -8.448100 -49.632500
42
Fragment
H -14.996600 -8.448100 -41.066800
H -14.289200 -9.286200 -39.877400
H -14.289200 -7.610100 -39.877400
C -14.258300 -8.448100 -40.427000
H -13.884700 -8.448100 -42.991800
C -13.042300 -8.448100 -42.596700
C -12.974000 -8.448100 -41.209800
H -12.652100 -9.171300 -45.269800
H -12.652100 -7.725000 -45.269800
O -12.399400 -8.448100 -38.344600
C -12.091000 -8.448100 -44.922100
C -11.936000 -8.448100 -43.425900
C -11.698400 -8.448100 -40.628300
C -11.497400 -8.448100 -39.154900
H -11.324900 -8.448100 -45.373500
C -10.689100 -8.448100 -42.821300
C -10.569900 -8.448100 -41.448500
O -10.232100 -8.448100 -38.788000
H -10.093100 -8.448100 -37.809500
H -9.923000 -8.448100 -43.348900
H -9.723500 -8.448100 -41.062600
H -11.022900 -8.448100 -49.628400
H -10.315600 -9.286200 -50.817800
H -10.315600 -7.610100 -50.817800
C -10.284600 -8.448100 -50.268200
H -9.911100 -8.448100 -47.703300
C -9.068700 -8.448100 -48.098500
C -9.000300 -8.448100 -49.485300
H -8.678500 -9.171300 -45.425300
H -8.678500 -7.725000 -45.425300
O -8.425700 -8.448100 -52.350500
C -8.117400 -8.448100 -45.773100
C -7.962400 -8.448100 -47.269300
C -7.724800 -8.448100 -50.066800
C -7.523700 -8.448100 -51.540200
H -7.351300 -8.448100 -45.321700
C -6.715500 -8.448100 -47.873800
C -6.596300 -8.448100 -49.246700
O -6.258500 -8.448100 -51.907200
H -6.119400 -8.448100 -52.885600
H -5.949300 -8.448100 -47.346200
H -5.749900 -8.448100 -49.632500
