21
Fragment
H -14.996600 -8.448100 -41.066800
H -14.289200 -9.286200 -39.877400
H -14.289200 -7.610100 -39.877400
C -14.258300 -8.448100 -40.427000
H -13.884700 -8.448100 -42.991800
C -13.042300 -8.448100 -42.596700
C -12.974000 -8.448100 -41.209800
H -12.652100 -9.171300 -45.269800
H -12.652100 -7.725000 -45.269800
O -12.399400 -8.448100 -38.344600
C -12.091000 -8.448100 -44.922100
C -11.936000 -8.448100 -43.425900
C -11.698400 -8.448100 -40.628300
C -11.497400 -8.448100 -39.154900
H -11.324900 -8.448100 -45.373500
C -10.689100 -8.448100 -42.821300
C -10.569900 -8.448100 -41.448500
O -10.232100 -8.448100 -38.788000
H -10.093100 -8.448100 -37.809500
H -9.923000 -8.448100 -43.348900
H -9.723500 -8.448100 -41.062600
21
Fragment
H -7.049300 -8.448100 -41.066800
H -6.341900 -9.286200 -39.877400
H -6.341900 -7.610100 -39.877400
C -6.311000 -8.448100 -40.427000
H -5.937400 -8.448100 -42.991800
C -5.095000 -8.448100 -42.596700
C -5.026700 -8.448100 -41.209800
H -4.704800 -9.171300 -45.269800
H -4.704800 -7.725000 -45.269800
O -4.452100 -8.448100 -38.344600
C -4.143700 -8.448100 -44.922100
C -3.988700 -8.448100 -43.425900
C -3.751100 -8.448100 -40.628300
C -3.550100 -8.448100 -39.154900
H -3.377600 -8.448100 -45.373500
C -2.741800 -8.448100 -42.821300
C -2.622600 -8.448100 -41.448500
O -2.284800 -8.448100 -38.788000
H -2.145800 -8.448100 -37.809500
H -1.975700 -8.448100 -43.348900
H -1.776200 -8.448100 -41.062600
42
Fragment
H -14.996600 -8.448100 -41.066800
H -14.289200 -9.286200 -39.877400
H -14.289200 -7.610100 -39.877400
C -14.258300 -8.448100 -40.427000
H -13.884700 -8.448100 -42.991800
C -13.042300 -8.448100 -42.596700
C -12.974000 -8.448100 -41.209800
H -12.652100 -9.171300 -45.269800
H -12.652100 -7.725000 -45.269800
O -12.399400 -8.448100 -38.344600
C -12.091000 -8.448100 -44.922100
C -11.936000 -8.448100 -43.425900
C -11.698400 -8.448100 -40.628300
C -11.497400 -8.448100 -39.154900
H -11.324900 -8.448100 -45.373500
C -10.689100 -8.448100 -42.821300
C -10.569900 -8.448100 -41.448500
O -10.232100 -8.448100 -38.788000
H -10.093100 -8.448100 -37.809500
H -9.923000 -8.448100 -43.348900
H -9.723500 -8.448100 -41.062600
H -7.049300 -8.448100 -41.066800
H -6.341900 -9.286200 -39.877400
H -6.341900 -7.610100 -39.877400
C -6.311000 -8.448100 -40.427000
H -5.937400 -8.448100 -42.991800
C -5.095000 -8.448100 -42.596700
C -5.026700 -8.448100 -41.209800
H -4.704800 -9.171300 -45.269800
H -4.704800 -7.725000 -45.269800
O -4.452100 -8.448100 -38.344600
C -4.143700 -8.448100 -44.922100
C -3.988700 -8.448100 -43.425900
C -3.751100 -8.448100 -40.628300
C -3.550100 -8.448100 -39.154900
H -3.377600 -8.448100 -45.373500
C -2.741800 -8.448100 -42.821300
C -2.622600 -8.448100 -41.448500
O -2.284800 -8.448100 -38.788000
H -2.145800 -8.448100 -37.809500
H -1.975700 -8.448100 -43.348900
H -1.776200 -8.448100 -41.062600
