21
Fragment
H -14.996600 -8.448100 -41.066800
H -14.289200 -9.286200 -39.877400
H -14.289200 -7.610100 -39.877400
C -14.258300 -8.448100 -40.427000
H -13.884700 -8.448100 -42.991800
C -13.042300 -8.448100 -42.596700
C -12.974000 -8.448100 -41.209800
H -12.652100 -9.171300 -45.269800
H -12.652100 -7.725000 -45.269800
O -12.399400 -8.448100 -38.344600
C -12.091000 -8.448100 -44.922100
C -11.936000 -8.448100 -43.425900
C -11.698400 -8.448100 -40.628300
C -11.497400 -8.448100 -39.154900
H -11.324900 -8.448100 -45.373500
C -10.689100 -8.448100 -42.821300
C -10.569900 -8.448100 -41.448500
O -10.232100 -8.448100 -38.788000
H -10.093100 -8.448100 -37.809500
H -9.923000 -8.448100 -43.348900
H -9.723500 -8.448100 -41.062600
16
Fragment
H -9.218900 -5.068900 -41.123800
H -8.695900 -5.068900 -43.541200
H -8.455900 -5.805600 -40.437100
H -8.455900 -4.332200 -40.437100
C -8.439200 -5.068900 -40.894200
C -7.794700 -5.068900 -43.312100
C -7.429100 -5.068900 -42.001400
O -7.008700 -5.068900 -45.556200
C -6.812400 -5.068900 -44.325100
N -6.132100 -5.068900 -41.601900
N -5.521800 -5.068900 -43.866400
C -5.203900 -5.068900 -42.540700
H -4.882000 -5.068900 -44.441400
N -3.918800 -5.068900 -42.216000
H -3.684400 -5.068900 -41.388600
H -3.319600 -5.068900 -42.832700
37
Fragment
H -14.996600 -8.448100 -41.066800
H -14.289200 -9.286200 -39.877400
H -14.289200 -7.610100 -39.877400
C -14.258300 -8.448100 -40.427000
H -13.884700 -8.448100 -42.991800
C -13.042300 -8.448100 -42.596700
C -12.974000 -8.448100 -41.209800
H -12.652100 -9.171300 -45.269800
H -12.652100 -7.725000 -45.269800
O -12.399400 -8.448100 -38.344600
C -12.091000 -8.448100 -44.922100
C -11.936000 -8.448100 -43.425900
C -11.698400 -8.448100 -40.628300
C -11.497400 -8.448100 -39.154900
H -11.324900 -8.448100 -45.373500
C -10.689100 -8.448100 -42.821300
C -10.569900 -8.448100 -41.448500
O -10.232100 -8.448100 -38.788000
H -10.093100 -8.448100 -37.809500
H -9.923000 -8.448100 -43.348900
H -9.723500 -8.448100 -41.062600
H -9.218900 -5.068900 -41.123800
H -8.695900 -5.068900 -43.541200
H -8.455900 -5.805600 -40.437100
H -8.455900 -4.332200 -40.437100
C -8.439200 -5.068900 -40.894200
C -7.794700 -5.068900 -43.312100
C -7.429100 -5.068900 -42.001400
O -7.008700 -5.068900 -45.556200
C -6.812400 -5.068900 -44.325100
N -6.132100 -5.068900 -41.601900
N -5.521800 -5.068900 -43.866400
C -5.203900 -5.068900 -42.540700
H -4.882000 -5.068900 -44.441400
N -3.918800 -5.068900 -42.216000
H -3.684400 -5.068900 -41.388600
H -3.319600 -5.068900 -42.832700
