14
Fragment
H -18.691400 -10.876300 -25.511200
C -17.770500 -10.991800 -25.448900
H -17.700000 -12.694900 -26.515500
O -17.657700 -9.000100 -24.206700
C -17.177700 -12.082800 -26.050400
H -17.113000 -8.523100 -23.822200
C -17.014300 -10.072100 -24.758500
C -15.806000 -12.268900 -25.963000
H -15.707400 -13.817900 -26.899300
C -15.642600 -10.258200 -24.671100
O -15.162700 -13.340900 -26.514900
H -15.120300 -9.646100 -24.206000
C -15.049900 -11.349200 -25.272700
H -14.128900 -11.464700 -25.210300
14
Fragment
H -24.285400 -7.152800 -25.511200
C -23.364500 -7.268300 -25.448900
H -23.294000 -8.971400 -26.515500
O -23.251700 -5.276600 -24.206700
C -22.771700 -8.359300 -26.050400
H -22.707000 -4.799600 -23.822200
C -22.608300 -6.348600 -24.758500
C -21.400000 -8.545400 -25.963000
H -21.301400 -10.094400 -26.899300
C -21.236600 -6.534700 -24.671100
O -20.756700 -9.617400 -26.514900
H -20.714300 -5.922600 -24.206000
C -20.643900 -7.625700 -25.272700
H -19.722900 -7.741200 -25.210300
28
Fragment
H -18.691400 -10.876300 -25.511200
C -17.770500 -10.991800 -25.448900
H -17.700000 -12.694900 -26.515500
O -17.657700 -9.000100 -24.206700
C -17.177700 -12.082800 -26.050400
H -17.113000 -8.523100 -23.822200
C -17.014300 -10.072100 -24.758500
C -15.806000 -12.268900 -25.963000
H -15.707400 -13.817900 -26.899300
C -15.642600 -10.258200 -24.671100
O -15.162700 -13.340900 -26.514900
H -15.120300 -9.646100 -24.206000
C -15.049900 -11.349200 -25.272700
H -14.128900 -11.464700 -25.210300
H -24.285400 -7.152800 -25.511200
C -23.364500 -7.268300 -25.448900
H -23.294000 -8.971400 -26.515500
O -23.251700 -5.276600 -24.206700
C -22.771700 -8.359300 -26.050400
H -22.707000 -4.799600 -23.822200
C -22.608300 -6.348600 -24.758500
C -21.400000 -8.545400 -25.963000
H -21.301400 -10.094400 -26.899300
C -21.236600 -6.534700 -24.671100
O -20.756700 -9.617400 -26.514900
H -20.714300 -5.922600 -24.206000
C -20.643900 -7.625700 -25.272700
H -19.722900 -7.741200 -25.210300
