14
Fragment
H -18.691400 -10.876300 -25.511200
C -17.770500 -10.991800 -25.448900
H -17.700000 -12.694900 -26.515500
O -17.657700 -9.000100 -24.206700
C -17.177700 -12.082800 -26.050400
H -17.113000 -8.523100 -23.822200
C -17.014300 -10.072100 -24.758500
C -15.806000 -12.268900 -25.963000
H -15.707400 -13.817900 -26.899300
C -15.642600 -10.258200 -24.671100
O -15.162700 -13.340900 -26.514900
H -15.120300 -9.646100 -24.206000
C -15.049900 -11.349200 -25.272700
H -14.128900 -11.464700 -25.210300
28
Fragment
H -19.294400 -6.111000 -20.709600
H -18.654200 -5.010300 -19.806800
C -18.451900 -5.774400 -20.368400
H -18.431700 -7.618300 -19.497400
H -18.330300 -6.726900 -22.674200
C -17.840800 -6.849000 -19.493100
H -17.804000 -6.516100 -18.582700
N -17.670700 -5.307800 -21.490000
C -17.484900 -6.268900 -22.543200
H -17.299900 -5.777400 -23.359000
H -17.251700 -8.608700 -21.152600
H -16.694500 -3.990100 -20.386700
N -16.503300 -7.296500 -19.871400
C -16.472100 -8.030800 -21.134000
C -16.472100 -4.566500 -21.134000
N -16.441000 -7.296500 -22.396600
H -16.249700 -3.990100 -21.881300
H -15.692600 -8.608700 -21.115400
H -15.644400 -5.777400 -18.909000
C -15.459400 -6.268900 -19.724800
N -15.273500 -5.307800 -20.777900
H -15.140300 -6.516100 -23.685300
C -15.103500 -6.849000 -22.774800
H -14.614000 -6.726900 -19.593700
H -14.512600 -7.618300 -22.770600
C -14.492400 -5.774400 -21.899500
H -14.290000 -5.010300 -22.461200
H -13.649900 -6.111000 -21.558300
42
Fragment
H -18.691400 -10.876300 -25.511200
C -17.770500 -10.991800 -25.448900
H -17.700000 -12.694900 -26.515500
O -17.657700 -9.000100 -24.206700
C -17.177700 -12.082800 -26.050400
H -17.113000 -8.523100 -23.822200
C -17.014300 -10.072100 -24.758500
C -15.806000 -12.268900 -25.963000
H -15.707400 -13.817900 -26.899300
C -15.642600 -10.258200 -24.671100
O -15.162700 -13.340900 -26.514900
H -15.120300 -9.646100 -24.206000
C -15.049900 -11.349200 -25.272700
H -14.128900 -11.464700 -25.210300
H -19.294400 -6.111000 -20.709600
H -18.654200 -5.010300 -19.806800
C -18.451900 -5.774400 -20.368400
H -18.431700 -7.618300 -19.497400
H -18.330300 -6.726900 -22.674200
C -17.840800 -6.849000 -19.493100
H -17.804000 -6.516100 -18.582700
N -17.670700 -5.307800 -21.490000
C -17.484900 -6.268900 -22.543200
H -17.299900 -5.777400 -23.359000
H -17.251700 -8.608700 -21.152600
H -16.694500 -3.990100 -20.386700
N -16.503300 -7.296500 -19.871400
C -16.472100 -8.030800 -21.134000
C -16.472100 -4.566500 -21.134000
N -16.441000 -7.296500 -22.396600
H -16.249700 -3.990100 -21.881300
H -15.692600 -8.608700 -21.115400
H -15.644400 -5.777400 -18.909000
C -15.459400 -6.268900 -19.724800
N -15.273500 -5.307800 -20.777900
H -15.140300 -6.516100 -23.685300
C -15.103500 -6.849000 -22.774800
H -14.614000 -6.726900 -19.593700
H -14.512600 -7.618300 -22.770600
C -14.492400 -5.774400 -21.899500
H -14.290000 -5.010300 -22.461200
H -13.649900 -6.111000 -21.558300
