14
Fragment
H -18.691400 -10.876300 -25.511200
C -17.770500 -10.991800 -25.448900
H -17.700000 -12.694900 -26.515500
O -17.657700 -9.000100 -24.206700
C -17.177700 -12.082800 -26.050400
H -17.113000 -8.523100 -23.822200
C -17.014300 -10.072100 -24.758500
C -15.806000 -12.268900 -25.963000
H -15.707400 -13.817900 -26.899300
C -15.642600 -10.258200 -24.671100
O -15.162700 -13.340900 -26.514900
H -15.120300 -9.646100 -24.206000
C -15.049900 -11.349200 -25.272700
H -14.128900 -11.464700 -25.210300
14
Fragment
H -13.097400 -14.599800 -25.511200
C -12.176500 -14.715300 -25.448900
H -12.106000 -16.418400 -26.515500
O -12.063700 -12.723600 -24.206700
C -11.583700 -15.806300 -26.050400
H -11.519000 -12.246600 -23.822200
C -11.420300 -13.795600 -24.758500
C -10.212000 -15.992400 -25.963000
H -10.113400 -17.541400 -26.899300
C -10.048600 -13.981700 -24.671100
O -9.568700 -17.064400 -26.514900
H -9.526300 -13.369600 -24.206000
C -9.455900 -15.072700 -25.272700
H -8.534900 -15.188200 -25.210300
28
Fragment
H -18.691400 -10.876300 -25.511200
C -17.770500 -10.991800 -25.448900
H -17.700000 -12.694900 -26.515500
O -17.657700 -9.000100 -24.206700
C -17.177700 -12.082800 -26.050400
H -17.113000 -8.523100 -23.822200
C -17.014300 -10.072100 -24.758500
C -15.806000 -12.268900 -25.963000
H -15.707400 -13.817900 -26.899300
C -15.642600 -10.258200 -24.671100
O -15.162700 -13.340900 -26.514900
H -15.120300 -9.646100 -24.206000
C -15.049900 -11.349200 -25.272700
H -14.128900 -11.464700 -25.210300
H -13.097400 -14.599800 -25.511200
C -12.176500 -14.715300 -25.448900
H -12.106000 -16.418400 -26.515500
O -12.063700 -12.723600 -24.206700
C -11.583700 -15.806300 -26.050400
H -11.519000 -12.246600 -23.822200
C -11.420300 -13.795600 -24.758500
C -10.212000 -15.992400 -25.963000
H -10.113400 -17.541400 -26.899300
C -10.048600 -13.981700 -24.671100
O -9.568700 -17.064400 -26.514900
H -9.526300 -13.369600 -24.206000
C -9.455900 -15.072700 -25.272700
H -8.534900 -15.188200 -25.210300
