23
Fragment
H -14.154200 -14.047300 -22.484600
H -13.902900 -15.232000 -24.643900
N -13.355100 -14.589800 -22.761900
C -13.189900 -15.276200 -23.854100
N -12.287300 -14.746800 -21.941300
N -11.993900 -15.884500 -23.855400
C -11.516400 -15.527200 -22.665700
H -10.371700 -16.839800 -24.337500
N -10.292900 -15.971000 -22.133600
H -10.289100 -15.880800 -21.216900
N -9.483800 -16.891500 -24.095100
C -9.347700 -16.614100 -22.827300
C -8.144700 -17.047600 -22.111300
H -8.013600 -15.410600 -20.743300
H -7.870200 -18.842500 -23.167300
C -7.606300 -16.297300 -21.074800
C -7.549500 -18.269900 -22.465100
C -6.494300 -16.753300 -20.367100
C -6.441500 -18.713700 -21.750500
H -6.032100 -16.209800 -19.600900
C -5.933400 -17.985000 -20.704300
H -5.758700 -19.406700 -22.247800
H -4.872900 -18.165600 -20.172100
23
Fragment
H -13.220800 -18.748500 -26.273900
H -12.969500 -19.933200 -24.114600
N -12.421700 -19.291000 -25.996600
C -12.256500 -19.977400 -24.904400
N -11.353800 -19.448000 -26.817200
N -11.060500 -20.585700 -24.903100
C -10.583000 -20.228500 -26.092800
H -9.438300 -21.541000 -24.421000
N -9.359400 -20.672200 -26.624900
H -9.355700 -20.582000 -27.541600
N -8.550300 -21.592700 -24.663400
C -8.414300 -21.315400 -25.931200
C -7.211300 -21.748800 -26.647200
H -7.080200 -20.111900 -28.015200
H -6.936800 -23.543800 -25.591200
C -6.672900 -20.998500 -27.683700
C -6.616000 -22.971100 -26.293400
C -5.560900 -21.454500 -28.391400
C -5.508100 -23.414900 -27.008000
H -5.098700 -20.911100 -29.157600
C -5.000000 -22.686300 -28.054200
H -4.825300 -24.107900 -26.510700
H -3.939500 -22.866800 -28.586400
46
Fragment
H -14.154200 -14.047300 -22.484600
H -13.902900 -15.232000 -24.643900
N -13.355100 -14.589800 -22.761900
C -13.189900 -15.276200 -23.854100
N -12.287300 -14.746800 -21.941300
N -11.993900 -15.884500 -23.855400
C -11.516400 -15.527200 -22.665700
H -10.371700 -16.839800 -24.337500
N -10.292900 -15.971000 -22.133600
H -10.289100 -15.880800 -21.216900
N -9.483800 -16.891500 -24.095100
C -9.347700 -16.614100 -22.827300
C -8.144700 -17.047600 -22.111300
H -8.013600 -15.410600 -20.743300
H -7.870200 -18.842500 -23.167300
C -7.606300 -16.297300 -21.074800
C -7.549500 -18.269900 -22.465100
C -6.494300 -16.753300 -20.367100
C -6.441500 -18.713700 -21.750500
H -6.032100 -16.209800 -19.600900
C -5.933400 -17.985000 -20.704300
H -5.758700 -19.406700 -22.247800
H -4.872900 -18.165600 -20.172100
H -13.220800 -18.748500 -26.273900
H -12.969500 -19.933200 -24.114600
N -12.421700 -19.291000 -25.996600
C -12.256500 -19.977400 -24.904400
N -11.353800 -19.448000 -26.817200
N -11.060500 -20.585700 -24.903100
C -10.583000 -20.228500 -26.092800
H -9.438300 -21.541000 -24.421000
N -9.359400 -20.672200 -26.624900
H -9.355700 -20.582000 -27.541600
N -8.550300 -21.592700 -24.663400
C -8.414300 -21.315400 -25.931200
C -7.211300 -21.748800 -26.647200
H -7.080200 -20.111900 -28.015200
H -6.936800 -23.543800 -25.591200
C -6.672900 -20.998500 -27.683700
C -6.616000 -22.971100 -26.293400
C -5.560900 -21.454500 -28.391400
C -5.508100 -23.414900 -27.008000
H -5.098700 -20.911100 -29.157600
C -5.000000 -22.686300 -28.054200
H -4.825300 -24.107900 -26.510700
H -3.939500 -22.866800 -28.586400
