23
Fragment
H -14.154200 -14.047300 -22.484600
H -13.902900 -15.232000 -24.643900
N -13.355100 -14.589800 -22.761900
C -13.189900 -15.276200 -23.854100
N -12.287300 -14.746800 -21.941300
N -11.993900 -15.884500 -23.855400
C -11.516400 -15.527200 -22.665700
H -10.371700 -16.839800 -24.337500
N -10.292900 -15.971000 -22.133600
H -10.289100 -15.880800 -21.216900
N -9.483800 -16.891500 -24.095100
C -9.347700 -16.614100 -22.827300
C -8.144700 -17.047600 -22.111300
H -8.013600 -15.410600 -20.743300
H -7.870200 -18.842500 -23.167300
C -7.606300 -16.297300 -21.074800
C -7.549500 -18.269900 -22.465100
C -6.494300 -16.753300 -20.367100
C -6.441500 -18.713700 -21.750500
H -6.032100 -16.209800 -19.600900
C -5.933400 -17.985000 -20.704300
H -5.758700 -19.406700 -22.247800
H -4.872900 -18.165600 -20.172100
23
Fragment
H -15.087600 -9.346000 -26.273900
H -14.836400 -10.530800 -24.114600
N -14.288500 -9.888600 -25.996600
C -14.123400 -10.574900 -24.904400
N -13.220700 -10.045600 -26.817200
N -12.927400 -11.183300 -24.903100
C -12.449800 -10.826000 -26.092800
H -11.305100 -12.138600 -24.421000
N -11.226300 -11.269800 -26.624900
H -11.222500 -11.179500 -27.541600
N -10.417200 -12.190300 -24.663400
C -10.281100 -11.912900 -25.931200
C -9.078100 -12.346400 -26.647200
H -8.947000 -10.709400 -28.015200
H -8.803600 -14.141300 -25.591200
C -8.539700 -11.596100 -27.683700
C -8.482900 -13.568700 -26.293400
C -7.427800 -12.052100 -28.391400
C -7.375000 -14.012500 -27.008000
H -6.965500 -11.508600 -29.157600
C -6.866800 -13.283800 -28.054200
H -6.692200 -14.705400 -26.510700
H -5.806300 -13.464300 -28.586400
46
Fragment
H -14.154200 -14.047300 -22.484600
H -13.902900 -15.232000 -24.643900
N -13.355100 -14.589800 -22.761900
C -13.189900 -15.276200 -23.854100
N -12.287300 -14.746800 -21.941300
N -11.993900 -15.884500 -23.855400
C -11.516400 -15.527200 -22.665700
H -10.371700 -16.839800 -24.337500
N -10.292900 -15.971000 -22.133600
H -10.289100 -15.880800 -21.216900
N -9.483800 -16.891500 -24.095100
C -9.347700 -16.614100 -22.827300
C -8.144700 -17.047600 -22.111300
H -8.013600 -15.410600 -20.743300
H -7.870200 -18.842500 -23.167300
C -7.606300 -16.297300 -21.074800
C -7.549500 -18.269900 -22.465100
C -6.494300 -16.753300 -20.367100
C -6.441500 -18.713700 -21.750500
H -6.032100 -16.209800 -19.600900
C -5.933400 -17.985000 -20.704300
H -5.758700 -19.406700 -22.247800
H -4.872900 -18.165600 -20.172100
H -15.087600 -9.346000 -26.273900
H -14.836400 -10.530800 -24.114600
N -14.288500 -9.888600 -25.996600
C -14.123400 -10.574900 -24.904400
N -13.220700 -10.045600 -26.817200
N -12.927400 -11.183300 -24.903100
C -12.449800 -10.826000 -26.092800
H -11.305100 -12.138600 -24.421000
N -11.226300 -11.269800 -26.624900
H -11.222500 -11.179500 -27.541600
N -10.417200 -12.190300 -24.663400
C -10.281100 -11.912900 -25.931200
C -9.078100 -12.346400 -26.647200
H -8.947000 -10.709400 -28.015200
H -8.803600 -14.141300 -25.591200
C -8.539700 -11.596100 -27.683700
C -8.482900 -13.568700 -26.293400
C -7.427800 -12.052100 -28.391400
C -7.375000 -14.012500 -27.008000
H -6.965500 -11.508600 -29.157600
C -6.866800 -13.283800 -28.054200
H -6.692200 -14.705400 -26.510700
H -5.806300 -13.464300 -28.586400
