14
Fragment
H -18.845300 -8.863500 -20.823700
O -18.310000 -8.637200 -20.191600
O -17.631200 -7.002300 -21.577800
C -17.569500 -7.631900 -20.517400
C -16.584000 -7.260900 -19.474200
N -16.503100 -7.922500 -18.289300
H -16.478000 -5.684700 -21.612600
O -15.836900 -5.124500 -21.571600
C -15.613700 -6.276600 -19.484600
N -15.535000 -7.387200 -17.573900
C -15.162300 -5.242500 -20.450100
N -15.002700 -6.398900 -18.294800
H -14.341400 -5.923600 -17.989600
O -14.218600 -4.530700 -20.183500
14
Fragment
O -23.810600 -14.970900 -18.998100
H -23.687800 -13.578000 -21.192000
N -23.026500 -13.102600 -20.886800
C -22.866900 -14.259100 -18.731500
N -22.494200 -12.114400 -21.607700
C -22.415500 -13.225000 -19.697000
O -22.192300 -14.377000 -17.610000
H -21.551200 -13.816900 -17.569000
N -21.526100 -11.579100 -20.892300
C -21.445200 -12.240600 -19.707400
C -20.459700 -11.869600 -18.664200
O -20.398000 -12.499300 -17.603800
O -19.719200 -10.864300 -18.990000
H -19.183800 -10.638100 -18.357900
28
Fragment
H -18.845300 -8.863500 -20.823700
O -18.310000 -8.637200 -20.191600
O -17.631200 -7.002300 -21.577800
C -17.569500 -7.631900 -20.517400
C -16.584000 -7.260900 -19.474200
N -16.503100 -7.922500 -18.289300
H -16.478000 -5.684700 -21.612600
O -15.836900 -5.124500 -21.571600
C -15.613700 -6.276600 -19.484600
N -15.535000 -7.387200 -17.573900
C -15.162300 -5.242500 -20.450100
N -15.002700 -6.398900 -18.294800
H -14.341400 -5.923600 -17.989600
O -14.218600 -4.530700 -20.183500
O -23.810600 -14.970900 -18.998100
H -23.687800 -13.578000 -21.192000
N -23.026500 -13.102600 -20.886800
C -22.866900 -14.259100 -18.731500
N -22.494200 -12.114400 -21.607700
C -22.415500 -13.225000 -19.697000
O -22.192300 -14.377000 -17.610000
H -21.551200 -13.816900 -17.569000
N -21.526100 -11.579100 -20.892300
C -21.445200 -12.240600 -19.707400
C -20.459700 -11.869600 -18.664200
O -20.398000 -12.499300 -17.603800
O -19.719200 -10.864300 -18.990000
H -19.183800 -10.638100 -18.357900
