14
Fragment
H -18.845300 -8.863500 -20.823700
O -18.310000 -8.637200 -20.191600
O -17.631200 -7.002300 -21.577800
C -17.569500 -7.631900 -20.517400
C -16.584000 -7.260900 -19.474200
N -16.503100 -7.922500 -18.289300
H -16.478000 -5.684700 -21.612600
O -15.836900 -5.124500 -21.571600
C -15.613700 -6.276600 -19.484600
N -15.535000 -7.387200 -17.573900
C -15.162300 -5.242500 -20.450100
N -15.002700 -6.398900 -18.294800
H -14.341400 -5.923600 -17.989600
O -14.218600 -4.530700 -20.183500
14
Fragment
H -18.845300 -13.738800 -20.823700
O -18.310000 -13.512600 -20.191600
O -17.631200 -11.877700 -21.577800
C -17.569500 -12.507300 -20.517400
C -16.584000 -12.136300 -19.474200
N -16.503100 -12.797900 -18.289300
H -16.478000 -10.560100 -21.612600
O -15.836900 -9.999900 -21.571600
C -15.613700 -11.152000 -19.484600
N -15.535000 -12.262600 -17.573900
C -15.162300 -10.117900 -20.450100
N -15.002700 -11.274300 -18.294800
H -14.341400 -10.799000 -17.989600
O -14.218600 -9.406100 -20.183500
28
Fragment
H -18.845300 -8.863500 -20.823700
O -18.310000 -8.637200 -20.191600
O -17.631200 -7.002300 -21.577800
C -17.569500 -7.631900 -20.517400
C -16.584000 -7.260900 -19.474200
N -16.503100 -7.922500 -18.289300
H -16.478000 -5.684700 -21.612600
O -15.836900 -5.124500 -21.571600
C -15.613700 -6.276600 -19.484600
N -15.535000 -7.387200 -17.573900
C -15.162300 -5.242500 -20.450100
N -15.002700 -6.398900 -18.294800
H -14.341400 -5.923600 -17.989600
O -14.218600 -4.530700 -20.183500
H -18.845300 -13.738800 -20.823700
O -18.310000 -13.512600 -20.191600
O -17.631200 -11.877700 -21.577800
C -17.569500 -12.507300 -20.517400
C -16.584000 -12.136300 -19.474200
N -16.503100 -12.797900 -18.289300
H -16.478000 -10.560100 -21.612600
O -15.836900 -9.999900 -21.571600
C -15.613700 -11.152000 -19.484600
N -15.535000 -12.262600 -17.573900
C -15.162300 -10.117900 -20.450100
N -15.002700 -11.274300 -18.294800
H -14.341400 -10.799000 -17.989600
O -14.218600 -9.406100 -20.183500
