22
Fragment
H -4.880100 -22.170500 -18.747300
N -4.702600 -15.419100 -21.878600
O -4.682700 -14.171800 -22.508000
N -4.552800 -20.382500 -19.330400
N -4.463000 -21.438400 -18.574500
N -4.101400 -17.583800 -20.107800
N -4.049400 -11.596600 -23.441900
C -3.805300 -15.296500 -20.975300
C -3.773000 -19.553400 -18.698000
C -3.758200 -13.467000 -21.891500
N -3.696300 -21.298500 -17.543100
N -3.592200 -10.373700 -23.500400
C -3.530200 -18.205200 -19.152000
C -3.515400 -12.118800 -22.345400
C -3.483100 -16.375700 -20.068200
N -3.239000 -20.075600 -17.601600
N -3.187000 -14.088400 -20.935700
N -2.825500 -10.233800 -22.469000
N -2.735700 -11.289700 -21.713100
O -2.605800 -17.500400 -18.535500
N -2.585800 -16.253100 -19.164800
H -2.408400 -9.501700 -22.296200
22
Fragment
H -8.198100 -14.780400 -25.587900
N -8.020700 -21.531800 -28.719200
O -8.000700 -22.779100 -29.348600
N -7.870800 -16.568400 -26.171000
N -7.781000 -15.512500 -25.415100
N -7.419500 -19.367100 -26.948300
N -7.367500 -25.354300 -30.282400
C -7.123400 -21.654400 -27.815900
C -7.091000 -17.397500 -25.538600
C -7.076300 -23.483900 -28.732100
N -7.014300 -15.652400 -24.383700
N -6.910200 -26.577200 -30.341000
C -6.848300 -18.745700 -25.992600
C -6.833500 -24.832100 -29.186000
C -6.801200 -20.575200 -26.908800
N -6.557000 -16.875300 -24.442200
N -6.505100 -22.862500 -27.776300
N -6.143500 -26.717100 -29.309600
N -6.053700 -25.661200 -28.553700
O -5.923800 -19.450500 -25.376100
N -5.903900 -20.697800 -26.005400
H -5.726400 -27.449200 -29.136800
44
Fragment
H -4.880100 -22.170500 -18.747300
N -4.702600 -15.419100 -21.878600
O -4.682700 -14.171800 -22.508000
N -4.552800 -20.382500 -19.330400
N -4.463000 -21.438400 -18.574500
N -4.101400 -17.583800 -20.107800
N -4.049400 -11.596600 -23.441900
C -3.805300 -15.296500 -20.975300
C -3.773000 -19.553400 -18.698000
C -3.758200 -13.467000 -21.891500
N -3.696300 -21.298500 -17.543100
N -3.592200 -10.373700 -23.500400
C -3.530200 -18.205200 -19.152000
C -3.515400 -12.118800 -22.345400
C -3.483100 -16.375700 -20.068200
N -3.239000 -20.075600 -17.601600
N -3.187000 -14.088400 -20.935700
N -2.825500 -10.233800 -22.469000
N -2.735700 -11.289700 -21.713100
O -2.605800 -17.500400 -18.535500
N -2.585800 -16.253100 -19.164800
H -2.408400 -9.501700 -22.296200
H -8.198100 -14.780400 -25.587900
N -8.020700 -21.531800 -28.719200
O -8.000700 -22.779100 -29.348600
N -7.870800 -16.568400 -26.171000
N -7.781000 -15.512500 -25.415100
N -7.419500 -19.367100 -26.948300
N -7.367500 -25.354300 -30.282400
C -7.123400 -21.654400 -27.815900
C -7.091000 -17.397500 -25.538600
C -7.076300 -23.483900 -28.732100
N -7.014300 -15.652400 -24.383700
N -6.910200 -26.577200 -30.341000
C -6.848300 -18.745700 -25.992600
C -6.833500 -24.832100 -29.186000
C -6.801200 -20.575200 -26.908800
N -6.557000 -16.875300 -24.442200
N -6.505100 -22.862500 -27.776300
N -6.143500 -26.717100 -29.309600
N -6.053700 -25.661200 -28.553700
O -5.923800 -19.450500 -25.376100
N -5.903900 -20.697800 -26.005400
H -5.726400 -27.449200 -29.136800
