22
Fragment
H -10.128700 -12.079700 -20.010500
H -9.939700 -15.267500 -19.935800
H -9.268900 -13.735300 -18.452100
H -9.099200 -15.065000 -21.166800
C -9.081000 -15.530600 -20.414100
C -9.078800 -12.012600 -20.385400
H -9.067300 -12.563700 -21.261500
H -8.848100 -16.336200 -20.580700
H -8.734000 -11.181000 -20.562100
C -8.418400 -13.787300 -18.687700
N -8.173900 -15.006500 -19.420200
N -8.154600 -12.573500 -19.430600
H -7.628000 -13.759100 -16.685500
C -7.305300 -13.794900 -17.594800
C -7.130100 -11.856700 -18.884500
C -7.119600 -15.702800 -18.920400
O -6.756700 -10.742500 -19.264200
O -6.731900 -16.808300 -19.322400
N -6.606800 -12.565900 -17.847500
N -6.558400 -14.994600 -17.912000
H -6.099600 -12.227000 -17.420900
H -5.843400 -15.317300 -17.441000
22
Fragment
H -12.882700 -14.990300 -23.078500
H -12.693700 -11.802500 -23.153200
H -12.022900 -13.334700 -24.636900
H -11.853200 -12.005000 -21.922200
C -11.835000 -11.539400 -22.674900
C -11.832800 -15.057400 -22.703600
H -11.821300 -14.506300 -21.827500
H -11.602100 -10.733800 -22.508300
H -11.488000 -15.889000 -22.526900
C -11.172400 -13.282700 -24.401300
N -10.927900 -12.063500 -23.668800
N -10.908600 -14.496500 -23.658400
H -10.382000 -13.310900 -26.403500
C -10.059300 -13.275100 -25.494200
C -9.884100 -15.213300 -24.204500
C -9.873600 -11.367200 -24.168600
O -9.510700 -16.327500 -23.824800
O -9.485900 -10.261700 -23.766600
N -9.360800 -14.504100 -25.241500
N -9.312400 -12.075400 -25.177000
H -8.853600 -14.843000 -25.668100
H -8.597400 -11.752700 -25.648000
44
Fragment
H -10.128700 -12.079700 -20.010500
H -9.939700 -15.267500 -19.935800
H -9.268900 -13.735300 -18.452100
H -9.099200 -15.065000 -21.166800
C -9.081000 -15.530600 -20.414100
C -9.078800 -12.012600 -20.385400
H -9.067300 -12.563700 -21.261500
H -8.848100 -16.336200 -20.580700
H -8.734000 -11.181000 -20.562100
C -8.418400 -13.787300 -18.687700
N -8.173900 -15.006500 -19.420200
N -8.154600 -12.573500 -19.430600
H -7.628000 -13.759100 -16.685500
C -7.305300 -13.794900 -17.594800
C -7.130100 -11.856700 -18.884500
C -7.119600 -15.702800 -18.920400
O -6.756700 -10.742500 -19.264200
O -6.731900 -16.808300 -19.322400
N -6.606800 -12.565900 -17.847500
N -6.558400 -14.994600 -17.912000
H -6.099600 -12.227000 -17.420900
H -5.843400 -15.317300 -17.441000
H -12.882700 -14.990300 -23.078500
H -12.693700 -11.802500 -23.153200
H -12.022900 -13.334700 -24.636900
H -11.853200 -12.005000 -21.922200
C -11.835000 -11.539400 -22.674900
C -11.832800 -15.057400 -22.703600
H -11.821300 -14.506300 -21.827500
H -11.602100 -10.733800 -22.508300
H -11.488000 -15.889000 -22.526900
C -11.172400 -13.282700 -24.401300
N -10.927900 -12.063500 -23.668800
N -10.908600 -14.496500 -23.658400
H -10.382000 -13.310900 -26.403500
C -10.059300 -13.275100 -25.494200
C -9.884100 -15.213300 -24.204500
C -9.873600 -11.367200 -24.168600
O -9.510700 -16.327500 -23.824800
O -9.485900 -10.261700 -23.766600
N -9.360800 -14.504100 -25.241500
N -9.312400 -12.075400 -25.177000
H -8.853600 -14.843000 -25.668100
H -8.597400 -11.752700 -25.648000
