22
Fragment
H -10.128700 -12.079700 -20.010500
H -9.939700 -15.267500 -19.935800
H -9.268900 -13.735300 -18.452100
H -9.099200 -15.065000 -21.166800
C -9.081000 -15.530600 -20.414100
C -9.078800 -12.012600 -20.385400
H -9.067300 -12.563700 -21.261500
H -8.848100 -16.336200 -20.580700
H -8.734000 -11.181000 -20.562100
C -8.418400 -13.787300 -18.687700
N -8.173900 -15.006500 -19.420200
N -8.154600 -12.573500 -19.430600
H -7.628000 -13.759100 -16.685500
C -7.305300 -13.794900 -17.594800
C -7.130100 -11.856700 -18.884500
C -7.119600 -15.702800 -18.920400
O -6.756700 -10.742500 -19.264200
O -6.731900 -16.808300 -19.322400
N -6.606800 -12.565900 -17.847500
N -6.558400 -14.994600 -17.912000
H -6.099600 -12.227000 -17.420900
H -5.843400 -15.317300 -17.441000
22
Fragment
H -5.172600 -9.903300 -18.466500
H -4.916400 -6.813000 -18.486600
N -4.457600 -9.580600 -17.995500
N -4.409200 -7.151900 -18.060000
O -4.284100 -11.394300 -16.585100
O -4.259300 -5.328500 -16.643300
C -3.896400 -10.288800 -16.987100
C -3.885900 -6.442700 -17.023000
C -3.710700 -8.380900 -18.312700
H -3.388000 -8.345100 -19.222000
N -2.861400 -7.159500 -16.476900
N -2.842100 -9.592500 -16.487300
C -2.597600 -8.373300 -17.219800
H -2.282000 -5.767000 -15.345400
H -2.167900 -10.922200 -15.326800
H -1.948700 -7.149700 -14.646000
C -1.937200 -6.598600 -15.522100
C -1.935000 -10.116600 -15.493400
H -1.916800 -9.651000 -14.740700
H -1.747100 -8.321300 -17.455400
H -1.076300 -9.853500 -15.971700
H -0.887300 -6.665700 -15.897000
44
Fragment
H -10.128700 -12.079700 -20.010500
H -9.939700 -15.267500 -19.935800
H -9.268900 -13.735300 -18.452100
H -9.099200 -15.065000 -21.166800
C -9.081000 -15.530600 -20.414100
C -9.078800 -12.012600 -20.385400
H -9.067300 -12.563700 -21.261500
H -8.848100 -16.336200 -20.580700
H -8.734000 -11.181000 -20.562100
C -8.418400 -13.787300 -18.687700
N -8.173900 -15.006500 -19.420200
N -8.154600 -12.573500 -19.430600
H -7.628000 -13.759100 -16.685500
C -7.305300 -13.794900 -17.594800
C -7.130100 -11.856700 -18.884500
C -7.119600 -15.702800 -18.920400
O -6.756700 -10.742500 -19.264200
O -6.731900 -16.808300 -19.322400
N -6.606800 -12.565900 -17.847500
N -6.558400 -14.994600 -17.912000
H -6.099600 -12.227000 -17.420900
H -5.843400 -15.317300 -17.441000
H -5.172600 -9.903300 -18.466500
H -4.916400 -6.813000 -18.486600
N -4.457600 -9.580600 -17.995500
N -4.409200 -7.151900 -18.060000
O -4.284100 -11.394300 -16.585100
O -4.259300 -5.328500 -16.643300
C -3.896400 -10.288800 -16.987100
C -3.885900 -6.442700 -17.023000
C -3.710700 -8.380900 -18.312700
H -3.388000 -8.345100 -19.222000
N -2.861400 -7.159500 -16.476900
N -2.842100 -9.592500 -16.487300
C -2.597600 -8.373300 -17.219800
H -2.282000 -5.767000 -15.345400
H -2.167900 -10.922200 -15.326800
H -1.948700 -7.149700 -14.646000
C -1.937200 -6.598600 -15.522100
C -1.935000 -10.116600 -15.493400
H -1.916800 -9.651000 -14.740700
H -1.747100 -8.321300 -17.455400
H -1.076300 -9.853500 -15.971700
H -0.887300 -6.665700 -15.897000
