38
Fragment
H -16.958600 -13.897300 -22.619300
H -16.801100 -16.045400 -23.364400
H -16.578700 -16.166000 -21.789900
O -16.374800 -15.180500 -26.676700
H -16.347000 -13.294500 -25.220100
H -16.263600 -9.173500 -22.099200
C -16.135700 -15.821900 -22.577100
C -16.019900 -14.298400 -22.487000
N -15.791000 -13.943300 -24.893200
N -15.753000 -9.151600 -21.300700
H -15.735400 -8.406300 -20.763700
N -15.732600 -11.444400 -21.431400
C -15.687200 -15.034900 -25.660100
C -15.558400 -10.337500 -20.704600
N -15.523200 -13.857800 -21.165300
C -15.441600 -12.547000 -20.727400
H -15.179300 -15.618000 -20.088900
C -15.179300 -14.631600 -20.084700
N -15.149700 -10.265100 -19.396000
C -15.122800 -13.742700 -23.613200
H -15.077400 -16.977000 -25.332500
H -15.031100 -12.779400 -23.455800
C -15.020900 -12.613900 -19.411300
H -15.003300 -17.426400 -22.844200
C -14.888400 -11.394000 -18.735900
N -14.861500 -13.940000 -19.022400
C -14.796600 -16.524400 -22.769700
C -14.653900 -16.075000 -25.279100
N -14.504700 -11.297600 -17.449200
H -14.465800 -12.088900 -17.010200
H -14.456500 -10.499700 -17.122600
H -14.252600 -16.418100 -21.804000
C -13.988500 -15.919400 -23.909800
H -13.937600 -16.045400 -26.105700
C -13.768000 -14.432100 -23.630100
H -13.316700 -14.346600 -22.717700
H -13.196200 -14.061700 -24.306300
H -13.066500 -16.341400 -23.954800
38
Fragment
H -21.592100 -13.502700 -19.554700
H -21.434600 -11.354600 -18.809600
H -21.212200 -11.234000 -20.384100
O -21.008300 -12.219500 -15.497300
H -20.980500 -14.105500 -16.953900
H -20.897100 -18.226500 -20.074800
C -20.769200 -11.578100 -19.596900
C -20.653400 -13.101600 -19.687000
N -20.424500 -13.456700 -17.280800
N -20.386500 -18.248400 -20.873300
H -20.368900 -18.993700 -21.410300
N -20.366100 -15.955600 -20.742600
C -20.320700 -12.365100 -16.513900
C -20.191900 -17.062500 -21.469400
N -20.156700 -13.542200 -21.008700
C -20.075100 -14.853000 -21.446600
C -19.812800 -12.768400 -22.089300
H -19.812800 -11.782000 -22.085100
N -19.783200 -17.134900 -22.778000
C -19.756300 -13.657300 -18.560800
H -19.710900 -10.423000 -16.841500
H -19.664600 -14.620600 -18.718200
C -19.654400 -14.786100 -22.762700
H -19.636800 -9.973600 -19.329800
C -19.521900 -16.006000 -23.438100
N -19.495000 -13.460000 -23.151600
C -19.430100 -10.875600 -19.404300
C -19.287400 -11.325000 -16.894900
N -19.138200 -16.102400 -24.724800
H -19.099300 -15.311100 -25.163800
H -19.090000 -16.900300 -25.051400
H -18.886100 -10.981900 -20.370000
C -18.622000 -11.480600 -18.264200
H -18.571100 -11.354600 -16.068300
C -18.401500 -12.967900 -18.543900
H -17.950200 -13.053400 -19.456300
H -17.829700 -13.338300 -17.867700
H -17.700000 -11.058600 -18.219200
76
Fragment
H -16.958600 -13.897300 -22.619300
H -16.801100 -16.045400 -23.364400
H -16.578700 -16.166000 -21.789900
O -16.374800 -15.180500 -26.676700
H -16.347000 -13.294500 -25.220100
H -16.263600 -9.173500 -22.099200
C -16.135700 -15.821900 -22.577100
C -16.019900 -14.298400 -22.487000
N -15.791000 -13.943300 -24.893200
N -15.753000 -9.151600 -21.300700
H -15.735400 -8.406300 -20.763700
N -15.732600 -11.444400 -21.431400
C -15.687200 -15.034900 -25.660100
C -15.558400 -10.337500 -20.704600
N -15.523200 -13.857800 -21.165300
C -15.441600 -12.547000 -20.727400
H -15.179300 -15.618000 -20.088900
C -15.179300 -14.631600 -20.084700
N -15.149700 -10.265100 -19.396000
C -15.122800 -13.742700 -23.613200
H -15.077400 -16.977000 -25.332500
H -15.031100 -12.779400 -23.455800
C -15.020900 -12.613900 -19.411300
H -15.003300 -17.426400 -22.844200
C -14.888400 -11.394000 -18.735900
N -14.861500 -13.940000 -19.022400
C -14.796600 -16.524400 -22.769700
C -14.653900 -16.075000 -25.279100
N -14.504700 -11.297600 -17.449200
H -14.465800 -12.088900 -17.010200
H -14.456500 -10.499700 -17.122600
H -14.252600 -16.418100 -21.804000
C -13.988500 -15.919400 -23.909800
H -13.937600 -16.045400 -26.105700
C -13.768000 -14.432100 -23.630100
H -13.316700 -14.346600 -22.717700
H -13.196200 -14.061700 -24.306300
H -13.066500 -16.341400 -23.954800
H -21.592100 -13.502700 -19.554700
H -21.434600 -11.354600 -18.809600
H -21.212200 -11.234000 -20.384100
O -21.008300 -12.219500 -15.497300
H -20.980500 -14.105500 -16.953900
H -20.897100 -18.226500 -20.074800
C -20.769200 -11.578100 -19.596900
C -20.653400 -13.101600 -19.687000
N -20.424500 -13.456700 -17.280800
N -20.386500 -18.248400 -20.873300
H -20.368900 -18.993700 -21.410300
N -20.366100 -15.955600 -20.742600
C -20.320700 -12.365100 -16.513900
C -20.191900 -17.062500 -21.469400
N -20.156700 -13.542200 -21.008700
C -20.075100 -14.853000 -21.446600
C -19.812800 -12.768400 -22.089300
H -19.812800 -11.782000 -22.085100
N -19.783200 -17.134900 -22.778000
C -19.756300 -13.657300 -18.560800
H -19.710900 -10.423000 -16.841500
H -19.664600 -14.620600 -18.718200
C -19.654400 -14.786100 -22.762700
H -19.636800 -9.973600 -19.329800
C -19.521900 -16.006000 -23.438100
N -19.495000 -13.460000 -23.151600
C -19.430100 -10.875600 -19.404300
C -19.287400 -11.325000 -16.894900
N -19.138200 -16.102400 -24.724800
H -19.099300 -15.311100 -25.163800
H -19.090000 -16.900300 -25.051400
H -18.886100 -10.981900 -20.370000
C -18.622000 -11.480600 -18.264200
H -18.571100 -11.354600 -16.068300
C -18.401500 -12.967900 -18.543900
H -17.950200 -13.053400 -19.456300
H -17.829700 -13.338300 -17.867700
H -17.700000 -11.058600 -18.219200
