36
Fragment
H -11.469300 -8.570000 -26.462200
N -11.435200 -10.490500 -26.787900
H -11.429300 -12.966900 -26.493800
C -11.375600 -9.204700 -27.177000
N -11.331700 -12.739500 -27.358700
H -11.326500 -13.320700 -27.945900
H -11.278700 -8.866000 -33.079700
C -11.269800 -11.450800 -27.720400
N -11.151300 -8.691300 -28.383100
C -11.038800 -11.036300 -29.043700
H -11.036500 -7.653100 -30.988300
C -10.985800 -9.677600 -29.284400
N -10.824900 -11.758300 -30.203600
N -10.729200 -9.549800 -30.637900
C -10.649300 -10.831300 -31.112000
H -10.575500 -7.414800 -33.186200
H -10.509400 -10.974200 -32.014300
C -10.464500 -8.362100 -32.843300
C -10.402800 -8.284100 -31.313800
H -9.345100 -9.992300 -33.496000
H -9.308100 -5.884200 -30.824500
C -9.240400 -8.994600 -33.522400
H -9.221000 -8.743300 -34.488400
C -9.001800 -7.840800 -30.854100
H -8.980800 -7.840800 -29.877500
N -8.776500 -6.463300 -31.283900
C -8.173200 -6.084200 -32.424500
O -8.148600 -4.900900 -32.767800
H -8.126100 -9.696300 -31.122500
C -7.921300 -8.745500 -31.412100
C -7.889000 -8.580100 -32.931700
H -7.614600 -6.974400 -34.196400
C -7.494700 -7.147000 -33.246800
H -7.244000 -9.162100 -33.338200
H -7.047000 -8.440100 -30.958700
H -6.498400 -7.017700 -33.022500
36
Fragment
H -18.733300 -14.642000 -26.168200
H -18.184700 -13.219600 -28.232000
H -17.987700 -12.497600 -25.852500
C -17.737000 -14.512700 -25.943900
H -17.617000 -14.685300 -24.994300
C -17.342700 -13.079600 -26.259000
C -17.310400 -12.914200 -27.778600
H -17.105600 -11.963400 -28.068200
O -17.083000 -16.758800 -26.422900
C -17.058500 -15.575500 -26.766200
N -16.455100 -15.196400 -27.906800
H -16.250900 -13.818900 -29.313200
C -16.229900 -13.818900 -28.336600
H -16.010700 -12.916400 -24.702200
C -15.991300 -12.665100 -25.668200
H -15.923600 -15.775500 -28.366200
H -15.886600 -11.667400 -25.694700
C -14.828900 -13.375600 -27.876800
C -14.767200 -13.297600 -26.347400
H -14.722200 -10.685500 -27.176400
H -14.656100 -14.244900 -26.004400
C -14.582400 -10.828400 -28.078700
N -14.502500 -12.109900 -28.552800
N -14.406800 -9.901400 -28.987100
C -14.245900 -11.982100 -29.906300
H -14.195200 -14.006600 -28.202400
C -14.192900 -10.623400 -30.147000
N -14.080300 -12.968400 -30.807600
C -13.961900 -10.208900 -31.470300
H -13.953000 -12.793700 -26.111000
H -13.905200 -8.339000 -31.244800
N -13.900000 -8.920200 -31.832000
C -13.856100 -12.455000 -32.013700
H -13.802400 -8.692800 -32.696900
N -13.796400 -11.169200 -32.402800
H -13.762400 -13.089700 -32.728500
72
Fragment
H -11.469300 -8.570000 -26.462200
N -11.435200 -10.490500 -26.787900
H -11.429300 -12.966900 -26.493800
C -11.375600 -9.204700 -27.177000
N -11.331700 -12.739500 -27.358700
H -11.326500 -13.320700 -27.945900
H -11.278700 -8.866000 -33.079700
C -11.269800 -11.450800 -27.720400
N -11.151300 -8.691300 -28.383100
C -11.038800 -11.036300 -29.043700
H -11.036500 -7.653100 -30.988300
C -10.985800 -9.677600 -29.284400
N -10.824900 -11.758300 -30.203600
N -10.729200 -9.549800 -30.637900
C -10.649300 -10.831300 -31.112000
H -10.575500 -7.414800 -33.186200
H -10.509400 -10.974200 -32.014300
C -10.464500 -8.362100 -32.843300
C -10.402800 -8.284100 -31.313800
H -9.345100 -9.992300 -33.496000
H -9.308100 -5.884200 -30.824500
C -9.240400 -8.994600 -33.522400
H -9.221000 -8.743300 -34.488400
C -9.001800 -7.840800 -30.854100
H -8.980800 -7.840800 -29.877500
N -8.776500 -6.463300 -31.283900
C -8.173200 -6.084200 -32.424500
O -8.148600 -4.900900 -32.767800
H -8.126100 -9.696300 -31.122500
C -7.921300 -8.745500 -31.412100
C -7.889000 -8.580100 -32.931700
H -7.614600 -6.974400 -34.196400
C -7.494700 -7.147000 -33.246800
H -7.244000 -9.162100 -33.338200
H -7.047000 -8.440100 -30.958700
H -6.498400 -7.017700 -33.022500
H -18.733300 -14.642000 -26.168200
H -18.184700 -13.219600 -28.232000
H -17.987700 -12.497600 -25.852500
C -17.737000 -14.512700 -25.943900
H -17.617000 -14.685300 -24.994300
C -17.342700 -13.079600 -26.259000
C -17.310400 -12.914200 -27.778600
H -17.105600 -11.963400 -28.068200
O -17.083000 -16.758800 -26.422900
C -17.058500 -15.575500 -26.766200
N -16.455100 -15.196400 -27.906800
H -16.250900 -13.818900 -29.313200
C -16.229900 -13.818900 -28.336600
H -16.010700 -12.916400 -24.702200
C -15.991300 -12.665100 -25.668200
H -15.923600 -15.775500 -28.366200
H -15.886600 -11.667400 -25.694700
C -14.828900 -13.375600 -27.876800
C -14.767200 -13.297600 -26.347400
H -14.722200 -10.685500 -27.176400
H -14.656100 -14.244900 -26.004400
C -14.582400 -10.828400 -28.078700
N -14.502500 -12.109900 -28.552800
N -14.406800 -9.901400 -28.987100
C -14.245900 -11.982100 -29.906300
H -14.195200 -14.006600 -28.202400
C -14.192900 -10.623400 -30.147000
N -14.080300 -12.968400 -30.807600
C -13.961900 -10.208900 -31.470300
H -13.953000 -12.793700 -26.111000
H -13.905200 -8.339000 -31.244800
N -13.900000 -8.920200 -31.832000
C -13.856100 -12.455000 -32.013700
H -13.802400 -8.692800 -32.696900
N -13.796400 -11.169200 -32.402800
H -13.762400 -13.089700 -32.728500
