36
Fragment
H -11.469300 -8.570000 -26.462200
N -11.435200 -10.490500 -26.787900
H -11.429300 -12.966900 -26.493800
C -11.375600 -9.204700 -27.177000
N -11.331700 -12.739500 -27.358700
H -11.326500 -13.320700 -27.945900
H -11.278700 -8.866000 -33.079700
C -11.269800 -11.450800 -27.720400
N -11.151300 -8.691300 -28.383100
C -11.038800 -11.036300 -29.043700
H -11.036500 -7.653100 -30.988300
C -10.985800 -9.677600 -29.284400
N -10.824900 -11.758300 -30.203600
N -10.729200 -9.549800 -30.637900
C -10.649300 -10.831300 -31.112000
H -10.575500 -7.414800 -33.186200
H -10.509400 -10.974200 -32.014300
C -10.464500 -8.362100 -32.843300
C -10.402800 -8.284100 -31.313800
H -9.345100 -9.992300 -33.496000
H -9.308100 -5.884200 -30.824500
C -9.240400 -8.994600 -33.522400
H -9.221000 -8.743300 -34.488400
C -9.001800 -7.840800 -30.854100
H -8.980800 -7.840800 -29.877500
N -8.776500 -6.463300 -31.283900
C -8.173200 -6.084200 -32.424500
O -8.148600 -4.900900 -32.767800
H -8.126100 -9.696300 -31.122500
C -7.921300 -8.745500 -31.412100
C -7.889000 -8.580100 -32.931700
H -7.614600 -6.974400 -34.196400
C -7.494700 -7.147000 -33.246800
H -7.244000 -9.162100 -33.338200
H -7.047000 -8.440100 -30.958700
H -6.498400 -7.017700 -33.022500
36
Fragment
H -13.390400 -3.407800 -36.033300
H -12.841800 -4.830100 -38.097100
H -12.644800 -5.552100 -35.717600
C -12.394100 -3.537000 -35.809000
H -12.274100 -3.364500 -34.859400
C -11.999700 -4.970200 -36.124100
C -11.967500 -5.135500 -37.643700
H -11.762700 -6.086400 -37.933300
O -11.740100 -1.290900 -36.288000
C -11.715600 -2.474300 -36.631300
N -11.112200 -2.853300 -37.771900
H -10.908000 -4.230900 -39.178300
C -10.886900 -4.230900 -38.201700
H -10.667800 -5.133300 -34.567400
C -10.648400 -5.384600 -35.533400
H -10.580600 -2.274300 -38.231300
H -10.543700 -6.382400 -35.559800
C -9.486000 -4.674200 -37.742000
C -9.424300 -4.752100 -36.212500
H -9.379300 -7.364300 -37.041500
H -9.313200 -3.804900 -35.869600
C -9.239500 -7.221300 -37.943800
N -9.159600 -5.939800 -38.417900
N -9.063900 -8.148400 -38.852200
C -8.903000 -6.067600 -39.771400
H -8.852300 -4.043100 -38.067500
C -8.850000 -7.426400 -40.012100
N -8.737400 -5.081400 -40.672700
C -8.619000 -7.840800 -41.335400
H -8.610100 -5.256100 -35.976100
H -8.562300 -9.710800 -41.109900
N -8.557100 -9.129600 -41.697100
C -8.513200 -5.594700 -41.878800
H -8.459500 -9.357000 -42.562100
N -8.453500 -6.880600 -42.267900
H -8.419500 -4.960100 -42.593600
72
Fragment
H -11.469300 -8.570000 -26.462200
N -11.435200 -10.490500 -26.787900
H -11.429300 -12.966900 -26.493800
C -11.375600 -9.204700 -27.177000
N -11.331700 -12.739500 -27.358700
H -11.326500 -13.320700 -27.945900
H -11.278700 -8.866000 -33.079700
C -11.269800 -11.450800 -27.720400
N -11.151300 -8.691300 -28.383100
C -11.038800 -11.036300 -29.043700
H -11.036500 -7.653100 -30.988300
C -10.985800 -9.677600 -29.284400
N -10.824900 -11.758300 -30.203600
N -10.729200 -9.549800 -30.637900
C -10.649300 -10.831300 -31.112000
H -10.575500 -7.414800 -33.186200
H -10.509400 -10.974200 -32.014300
C -10.464500 -8.362100 -32.843300
C -10.402800 -8.284100 -31.313800
H -9.345100 -9.992300 -33.496000
H -9.308100 -5.884200 -30.824500
C -9.240400 -8.994600 -33.522400
H -9.221000 -8.743300 -34.488400
C -9.001800 -7.840800 -30.854100
H -8.980800 -7.840800 -29.877500
N -8.776500 -6.463300 -31.283900
C -8.173200 -6.084200 -32.424500
O -8.148600 -4.900900 -32.767800
H -8.126100 -9.696300 -31.122500
C -7.921300 -8.745500 -31.412100
C -7.889000 -8.580100 -32.931700
H -7.614600 -6.974400 -34.196400
C -7.494700 -7.147000 -33.246800
H -7.244000 -9.162100 -33.338200
H -7.047000 -8.440100 -30.958700
H -6.498400 -7.017700 -33.022500
H -13.390400 -3.407800 -36.033300
H -12.841800 -4.830100 -38.097100
H -12.644800 -5.552100 -35.717600
C -12.394100 -3.537000 -35.809000
H -12.274100 -3.364500 -34.859400
C -11.999700 -4.970200 -36.124100
C -11.967500 -5.135500 -37.643700
H -11.762700 -6.086400 -37.933300
O -11.740100 -1.290900 -36.288000
C -11.715600 -2.474300 -36.631300
N -11.112200 -2.853300 -37.771900
H -10.908000 -4.230900 -39.178300
C -10.886900 -4.230900 -38.201700
H -10.667800 -5.133300 -34.567400
C -10.648400 -5.384600 -35.533400
H -10.580600 -2.274300 -38.231300
H -10.543700 -6.382400 -35.559800
C -9.486000 -4.674200 -37.742000
C -9.424300 -4.752100 -36.212500
H -9.379300 -7.364300 -37.041500
H -9.313200 -3.804900 -35.869600
C -9.239500 -7.221300 -37.943800
N -9.159600 -5.939800 -38.417900
N -9.063900 -8.148400 -38.852200
C -8.903000 -6.067600 -39.771400
H -8.852300 -4.043100 -38.067500
C -8.850000 -7.426400 -40.012100
N -8.737400 -5.081400 -40.672700
C -8.619000 -7.840800 -41.335400
H -8.610100 -5.256100 -35.976100
H -8.562300 -9.710800 -41.109900
N -8.557100 -9.129600 -41.697100
C -8.513200 -5.594700 -41.878800
H -8.459500 -9.357000 -42.562100
N -8.453500 -6.880600 -42.267900
H -8.419500 -4.960100 -42.593600
