38
Fragment
H -16.958600 -13.897300 -22.619300
H -16.801100 -16.045400 -23.364400
H -16.578700 -16.166000 -21.789900
O -16.374800 -15.180500 -26.676700
H -16.347000 -13.294500 -25.220100
H -16.263600 -9.173500 -22.099200
C -16.135700 -15.821900 -22.577100
C -16.019900 -14.298400 -22.487000
N -15.791000 -13.943300 -24.893200
N -15.753000 -9.151600 -21.300700
H -15.735400 -8.406300 -20.763700
N -15.732600 -11.444400 -21.431400
C -15.687200 -15.034900 -25.660100
C -15.558400 -10.337500 -20.704600
N -15.523200 -13.857800 -21.165300
C -15.441600 -12.547000 -20.727400
H -15.179300 -15.618000 -20.088900
C -15.179300 -14.631600 -20.084700
N -15.149700 -10.265100 -19.396000
C -15.122800 -13.742700 -23.613200
H -15.077400 -16.977000 -25.332500
H -15.031100 -12.779400 -23.455800
C -15.020900 -12.613900 -19.411300
H -15.003300 -17.426400 -22.844200
C -14.888400 -11.394000 -18.735900
N -14.861500 -13.940000 -19.022400
C -14.796600 -16.524400 -22.769700
C -14.653900 -16.075000 -25.279100
N -14.504700 -11.297600 -17.449200
H -14.465800 -12.088900 -17.010200
H -14.456500 -10.499700 -17.122600
H -14.252600 -16.418100 -21.804000
C -13.988500 -15.919400 -23.909800
H -13.937600 -16.045400 -26.105700
C -13.768000 -14.432100 -23.630100
H -13.316700 -14.346600 -22.717700
H -13.196200 -14.061700 -24.306300
H -13.066500 -16.341400 -23.954800
38
Fragment
H -14.734500 -21.821400 -11.190200
H -14.604800 -19.541700 -10.838700
H -14.484300 -19.826600 -12.427300
C -14.033000 -19.912100 -11.514900
H -13.863400 -21.525400 -9.039300
C -13.812500 -21.399400 -11.235200
H -13.548400 -21.898100 -13.341000
H -13.344500 -15.979700 -18.022400
H -13.335200 -17.568900 -18.134800
N -13.296300 -16.777600 -17.695800
C -13.147100 -21.555000 -9.865900
C -13.004400 -22.004400 -12.375300
N -12.939500 -19.420000 -16.122600
C -12.912600 -16.874000 -16.409100
H -12.797700 -22.906400 -12.300800
C -12.780100 -18.093900 -15.733700
H -12.769900 -18.259400 -11.689200
H -12.723600 -22.457000 -9.812500
C -12.678200 -19.222700 -11.531800
N -12.651300 -15.745100 -15.749000
H -12.621700 -21.098000 -15.056100
C -12.621700 -20.111600 -15.060300
C -12.359400 -18.027000 -14.417600
N -12.277800 -19.337800 -13.979700
C -12.242600 -15.817500 -14.440400
C -12.113800 -20.514900 -9.484900
N -12.068400 -16.924400 -13.713600
H -12.065600 -13.886300 -14.381300
N -12.048000 -14.631600 -13.844300
N -12.010000 -19.423300 -10.251800
C -11.781100 -19.778400 -12.658000
C -11.665300 -21.301900 -12.567900
H -11.537400 -14.653500 -13.045800
H -11.454000 -18.774500 -9.924900
O -11.426200 -20.660500 -8.468300
H -11.222300 -21.646000 -13.355100
H -10.999900 -21.525400 -11.780600
H -10.842400 -19.377300 -12.525700
76
Fragment
H -16.958600 -13.897300 -22.619300
H -16.801100 -16.045400 -23.364400
H -16.578700 -16.166000 -21.789900
O -16.374800 -15.180500 -26.676700
H -16.347000 -13.294500 -25.220100
H -16.263600 -9.173500 -22.099200
C -16.135700 -15.821900 -22.577100
C -16.019900 -14.298400 -22.487000
N -15.791000 -13.943300 -24.893200
N -15.753000 -9.151600 -21.300700
H -15.735400 -8.406300 -20.763700
N -15.732600 -11.444400 -21.431400
C -15.687200 -15.034900 -25.660100
C -15.558400 -10.337500 -20.704600
N -15.523200 -13.857800 -21.165300
C -15.441600 -12.547000 -20.727400
H -15.179300 -15.618000 -20.088900
C -15.179300 -14.631600 -20.084700
N -15.149700 -10.265100 -19.396000
C -15.122800 -13.742700 -23.613200
H -15.077400 -16.977000 -25.332500
H -15.031100 -12.779400 -23.455800
C -15.020900 -12.613900 -19.411300
H -15.003300 -17.426400 -22.844200
C -14.888400 -11.394000 -18.735900
N -14.861500 -13.940000 -19.022400
C -14.796600 -16.524400 -22.769700
C -14.653900 -16.075000 -25.279100
N -14.504700 -11.297600 -17.449200
H -14.465800 -12.088900 -17.010200
H -14.456500 -10.499700 -17.122600
H -14.252600 -16.418100 -21.804000
C -13.988500 -15.919400 -23.909800
H -13.937600 -16.045400 -26.105700
C -13.768000 -14.432100 -23.630100
H -13.316700 -14.346600 -22.717700
H -13.196200 -14.061700 -24.306300
H -13.066500 -16.341400 -23.954800
H -14.734500 -21.821400 -11.190200
H -14.604800 -19.541700 -10.838700
H -14.484300 -19.826600 -12.427300
C -14.033000 -19.912100 -11.514900
H -13.863400 -21.525400 -9.039300
C -13.812500 -21.399400 -11.235200
H -13.548400 -21.898100 -13.341000
H -13.344500 -15.979700 -18.022400
H -13.335200 -17.568900 -18.134800
N -13.296300 -16.777600 -17.695800
C -13.147100 -21.555000 -9.865900
C -13.004400 -22.004400 -12.375300
N -12.939500 -19.420000 -16.122600
C -12.912600 -16.874000 -16.409100
H -12.797700 -22.906400 -12.300800
C -12.780100 -18.093900 -15.733700
H -12.769900 -18.259400 -11.689200
H -12.723600 -22.457000 -9.812500
C -12.678200 -19.222700 -11.531800
N -12.651300 -15.745100 -15.749000
H -12.621700 -21.098000 -15.056100
C -12.621700 -20.111600 -15.060300
C -12.359400 -18.027000 -14.417600
N -12.277800 -19.337800 -13.979700
C -12.242600 -15.817500 -14.440400
C -12.113800 -20.514900 -9.484900
N -12.068400 -16.924400 -13.713600
H -12.065600 -13.886300 -14.381300
N -12.048000 -14.631600 -13.844300
N -12.010000 -19.423300 -10.251800
C -11.781100 -19.778400 -12.658000
C -11.665300 -21.301900 -12.567900
H -11.537400 -14.653500 -13.045800
H -11.454000 -18.774500 -9.924900
O -11.426200 -20.660500 -8.468300
H -11.222300 -21.646000 -13.355100
H -10.999900 -21.525400 -11.780600
H -10.842400 -19.377300 -12.525700
