36
Fragment
H -11.469300 -8.570000 -26.462200
N -11.435200 -10.490500 -26.787900
H -11.429300 -12.966900 -26.493800
C -11.375600 -9.204700 -27.177000
N -11.331700 -12.739500 -27.358700
H -11.326500 -13.320700 -27.945900
H -11.278700 -8.866000 -33.079700
C -11.269800 -11.450800 -27.720400
N -11.151300 -8.691300 -28.383100
C -11.038800 -11.036300 -29.043700
H -11.036500 -7.653100 -30.988300
C -10.985800 -9.677600 -29.284400
N -10.824900 -11.758300 -30.203600
N -10.729200 -9.549800 -30.637900
C -10.649300 -10.831300 -31.112000
H -10.575500 -7.414800 -33.186200
H -10.509400 -10.974200 -32.014300
C -10.464500 -8.362100 -32.843300
C -10.402800 -8.284100 -31.313800
H -9.345100 -9.992300 -33.496000
H -9.308100 -5.884200 -30.824500
C -9.240400 -8.994600 -33.522400
H -9.221000 -8.743300 -34.488400
C -9.001800 -7.840800 -30.854100
H -8.980800 -7.840800 -29.877500
N -8.776500 -6.463300 -31.283900
C -8.173200 -6.084200 -32.424500
O -8.148600 -4.900900 -32.767800
H -8.126100 -9.696300 -31.122500
C -7.921300 -8.745500 -31.412100
C -7.889000 -8.580100 -32.931700
H -7.614600 -6.974400 -34.196400
C -7.494700 -7.147000 -33.246800
H -7.244000 -9.162100 -33.338200
H -7.047000 -8.440100 -30.958700
H -6.498400 -7.017700 -33.022500
36
Fragment
H -11.469300 -15.789900 -26.462200
N -11.435200 -17.710400 -26.787900
H -11.429300 -20.186800 -26.493800
C -11.375600 -16.424600 -27.177000
N -11.331700 -19.959400 -27.358700
H -11.326500 -20.540600 -27.945900
H -11.278700 -16.085900 -33.079700
C -11.269800 -18.670700 -27.720400
N -11.151300 -15.911200 -28.383100
C -11.038800 -18.256200 -29.043700
H -11.036500 -14.873000 -30.988300
C -10.985800 -16.897500 -29.284400
N -10.824900 -18.978200 -30.203600
N -10.729200 -16.769700 -30.637900
C -10.649300 -18.051200 -31.112000
H -10.575500 -14.634700 -33.186200
H -10.509400 -18.194100 -32.014300
C -10.464500 -15.582000 -32.843300
C -10.402800 -15.504000 -31.313800
H -9.345100 -17.212200 -33.496000
H -9.308100 -13.104100 -30.824500
C -9.240400 -16.214500 -33.522400
H -9.221000 -15.963200 -34.488400
C -9.001800 -15.060700 -30.854100
H -8.980800 -15.060700 -29.877500
N -8.776500 -13.683200 -31.283900
C -8.173200 -13.304100 -32.424500
O -8.148600 -12.120800 -32.767800
H -8.126100 -16.916200 -31.122500
C -7.921300 -15.965400 -31.412100
C -7.889000 -15.800000 -32.931700
H -7.614600 -14.194300 -34.196400
C -7.494700 -14.366900 -33.246800
H -7.244000 -16.382000 -33.338200
H -7.047000 -15.660000 -30.958700
H -6.498400 -14.237600 -33.022500
72
Fragment
H -11.469300 -8.570000 -26.462200
N -11.435200 -10.490500 -26.787900
H -11.429300 -12.966900 -26.493800
C -11.375600 -9.204700 -27.177000
N -11.331700 -12.739500 -27.358700
H -11.326500 -13.320700 -27.945900
H -11.278700 -8.866000 -33.079700
C -11.269800 -11.450800 -27.720400
N -11.151300 -8.691300 -28.383100
C -11.038800 -11.036300 -29.043700
H -11.036500 -7.653100 -30.988300
C -10.985800 -9.677600 -29.284400
N -10.824900 -11.758300 -30.203600
N -10.729200 -9.549800 -30.637900
C -10.649300 -10.831300 -31.112000
H -10.575500 -7.414800 -33.186200
H -10.509400 -10.974200 -32.014300
C -10.464500 -8.362100 -32.843300
C -10.402800 -8.284100 -31.313800
H -9.345100 -9.992300 -33.496000
H -9.308100 -5.884200 -30.824500
C -9.240400 -8.994600 -33.522400
H -9.221000 -8.743300 -34.488400
C -9.001800 -7.840800 -30.854100
H -8.980800 -7.840800 -29.877500
N -8.776500 -6.463300 -31.283900
C -8.173200 -6.084200 -32.424500
O -8.148600 -4.900900 -32.767800
H -8.126100 -9.696300 -31.122500
C -7.921300 -8.745500 -31.412100
C -7.889000 -8.580100 -32.931700
H -7.614600 -6.974400 -34.196400
C -7.494700 -7.147000 -33.246800
H -7.244000 -9.162100 -33.338200
H -7.047000 -8.440100 -30.958700
H -6.498400 -7.017700 -33.022500
H -11.469300 -15.789900 -26.462200
N -11.435200 -17.710400 -26.787900
H -11.429300 -20.186800 -26.493800
C -11.375600 -16.424600 -27.177000
N -11.331700 -19.959400 -27.358700
H -11.326500 -20.540600 -27.945900
H -11.278700 -16.085900 -33.079700
C -11.269800 -18.670700 -27.720400
N -11.151300 -15.911200 -28.383100
C -11.038800 -18.256200 -29.043700
H -11.036500 -14.873000 -30.988300
C -10.985800 -16.897500 -29.284400
N -10.824900 -18.978200 -30.203600
N -10.729200 -16.769700 -30.637900
C -10.649300 -18.051200 -31.112000
H -10.575500 -14.634700 -33.186200
H -10.509400 -18.194100 -32.014300
C -10.464500 -15.582000 -32.843300
C -10.402800 -15.504000 -31.313800
H -9.345100 -17.212200 -33.496000
H -9.308100 -13.104100 -30.824500
C -9.240400 -16.214500 -33.522400
H -9.221000 -15.963200 -34.488400
C -9.001800 -15.060700 -30.854100
H -8.980800 -15.060700 -29.877500
N -8.776500 -13.683200 -31.283900
C -8.173200 -13.304100 -32.424500
O -8.148600 -12.120800 -32.767800
H -8.126100 -16.916200 -31.122500
C -7.921300 -15.965400 -31.412100
C -7.889000 -15.800000 -32.931700
H -7.614600 -14.194300 -34.196400
C -7.494700 -14.366900 -33.246800
H -7.244000 -16.382000 -33.338200
H -7.047000 -15.660000 -30.958700
H -6.498400 -14.237600 -33.022500
