38
Fragment
H -12.715600 -8.346100 -26.263000
H -12.418800 -9.578000 -28.284200
C -11.815100 -8.749000 -26.460500
H -11.685400 -11.760100 -32.643400
C -11.642600 -9.457500 -27.647500
H -11.641400 -13.360200 -32.902500
H -11.358900 -11.057200 -30.472700
C -11.166600 -12.468700 -32.971700
H -11.060700 -12.303700 -33.911100
H -10.888800 -8.074300 -24.732200
C -10.746200 -8.587000 -25.558200
C -10.432000 -11.231900 -30.225000
C -10.384100 -10.001900 -27.928600
N -9.889400 -12.535400 -32.296800
C -9.853900 -10.767800 -29.034000
C -9.593400 -11.952900 -31.070300
C -9.485800 -9.117200 -25.810100
H -9.330400 -13.965100 -34.620700
C -9.317000 -9.824900 -27.008700
C -8.753500 -13.144000 -32.788700
H -8.740000 -9.003800 -25.176700
C -8.584700 -13.851700 -33.987200
C -8.477100 -11.016000 -28.727100
C -8.216500 -12.201100 -30.763400
N -8.181100 -10.433500 -27.500600
C -7.686300 -12.967000 -31.868800
C -7.638400 -11.737000 -29.572400
C -7.324200 -14.381900 -34.239200
H -7.181600 -14.894600 -35.065200
H -7.009700 -10.665200 -25.886300
C -6.903900 -10.500200 -26.825700
H -6.711500 -11.911700 -29.324600
H -6.429000 -9.608700 -26.894900
C -6.427800 -13.511400 -32.149900
H -6.385000 -11.208800 -27.154000
C -6.255400 -14.219900 -33.336800
H -5.651600 -13.390900 -31.513200
H -5.354800 -14.622800 -33.534400
20
Fragment
N -15.859200 -13.591200 -38.121800
C -14.742100 -13.335200 -38.012400
H -14.364200 -11.992100 -40.148000
C -13.416000 -11.784300 -40.040900
C -13.351900 -13.004000 -37.897600
H -13.316900 -10.743300 -41.776400
C -12.788000 -11.053400 -40.991900
C -12.708900 -12.251400 -38.867700
C -12.655400 -13.497100 -36.745700
N -12.071000 -13.900700 -35.836400
N -12.022900 -9.068200 -43.893500
C -11.438500 -9.471800 -42.984200
C -11.385000 -10.717500 -40.862100
C -11.306000 -11.915500 -38.737900
H -10.777000 -12.225600 -37.953400
C -10.742000 -9.964900 -41.832300
C -10.678000 -11.184600 -39.688900
H -9.729700 -10.976800 -39.581900
C -9.351900 -9.633700 -41.717400
N -8.234700 -9.377700 -41.608000
58
Fragment
H -12.715600 -8.346100 -26.263000
H -12.418800 -9.578000 -28.284200
C -11.815100 -8.749000 -26.460500
H -11.685400 -11.760100 -32.643400
C -11.642600 -9.457500 -27.647500
H -11.641400 -13.360200 -32.902500
H -11.358900 -11.057200 -30.472700
C -11.166600 -12.468700 -32.971700
H -11.060700 -12.303700 -33.911100
H -10.888800 -8.074300 -24.732200
C -10.746200 -8.587000 -25.558200
C -10.432000 -11.231900 -30.225000
C -10.384100 -10.001900 -27.928600
N -9.889400 -12.535400 -32.296800
C -9.853900 -10.767800 -29.034000
C -9.593400 -11.952900 -31.070300
C -9.485800 -9.117200 -25.810100
H -9.330400 -13.965100 -34.620700
C -9.317000 -9.824900 -27.008700
C -8.753500 -13.144000 -32.788700
H -8.740000 -9.003800 -25.176700
C -8.584700 -13.851700 -33.987200
C -8.477100 -11.016000 -28.727100
C -8.216500 -12.201100 -30.763400
N -8.181100 -10.433500 -27.500600
C -7.686300 -12.967000 -31.868800
C -7.638400 -11.737000 -29.572400
C -7.324200 -14.381900 -34.239200
H -7.181600 -14.894600 -35.065200
H -7.009700 -10.665200 -25.886300
C -6.903900 -10.500200 -26.825700
H -6.711500 -11.911700 -29.324600
H -6.429000 -9.608700 -26.894900
C -6.427800 -13.511400 -32.149900
H -6.385000 -11.208800 -27.154000
C -6.255400 -14.219900 -33.336800
H -5.651600 -13.390900 -31.513200
H -5.354800 -14.622800 -33.534400
N -15.859200 -13.591200 -38.121800
C -14.742100 -13.335200 -38.012400
H -14.364200 -11.992100 -40.148000
C -13.416000 -11.784300 -40.040900
C -13.351900 -13.004000 -37.897600
H -13.316900 -10.743300 -41.776400
C -12.788000 -11.053400 -40.991900
C -12.708900 -12.251400 -38.867700
C -12.655400 -13.497100 -36.745700
N -12.071000 -13.900700 -35.836400
N -12.022900 -9.068200 -43.893500
C -11.438500 -9.471800 -42.984200
C -11.385000 -10.717500 -40.862100
C -11.306000 -11.915500 -38.737900
H -10.777000 -12.225600 -37.953400
C -10.742000 -9.964900 -41.832300
C -10.678000 -11.184600 -39.688900
H -9.729700 -10.976800 -39.581900
C -9.351900 -9.633700 -41.717400
N -8.234700 -9.377700 -41.608000
