38
Fragment
H -12.715600 -8.346100 -26.263000
H -12.418800 -9.578000 -28.284200
C -11.815100 -8.749000 -26.460500
H -11.685400 -11.760100 -32.643400
C -11.642600 -9.457500 -27.647500
H -11.641400 -13.360200 -32.902500
H -11.358900 -11.057200 -30.472700
C -11.166600 -12.468700 -32.971700
H -11.060700 -12.303700 -33.911100
H -10.888800 -8.074300 -24.732200
C -10.746200 -8.587000 -25.558200
C -10.432000 -11.231900 -30.225000
C -10.384100 -10.001900 -27.928600
N -9.889400 -12.535400 -32.296800
C -9.853900 -10.767800 -29.034000
C -9.593400 -11.952900 -31.070300
C -9.485800 -9.117200 -25.810100
H -9.330400 -13.965100 -34.620700
C -9.317000 -9.824900 -27.008700
C -8.753500 -13.144000 -32.788700
H -8.740000 -9.003800 -25.176700
C -8.584700 -13.851700 -33.987200
C -8.477100 -11.016000 -28.727100
C -8.216500 -12.201100 -30.763400
N -8.181100 -10.433500 -27.500600
C -7.686300 -12.967000 -31.868800
C -7.638400 -11.737000 -29.572400
C -7.324200 -14.381900 -34.239200
H -7.181600 -14.894600 -35.065200
H -7.009700 -10.665200 -25.886300
C -6.903900 -10.500200 -26.825700
H -6.711500 -11.911700 -29.324600
H -6.429000 -9.608700 -26.894900
C -6.427800 -13.511400 -32.149900
H -6.385000 -11.208800 -27.154000
C -6.255400 -14.219900 -33.336800
H -5.651600 -13.390900 -31.513200
H -5.354800 -14.622800 -33.534400
38
Fragment
H -4.561600 -8.346100 -26.263000
H -4.264800 -9.578000 -28.284200
C -3.661100 -8.749000 -26.460500
H -3.531400 -11.760100 -32.643400
C -3.488600 -9.457500 -27.647500
H -3.487400 -13.360200 -32.902500
H -3.204900 -11.057200 -30.472700
C -3.012600 -12.468700 -32.971700
H -2.906700 -12.303700 -33.911100
H -2.734800 -8.074300 -24.732200
C -2.592200 -8.587000 -25.558200
C -2.278000 -11.231900 -30.225000
C -2.230100 -10.001900 -27.928600
N -1.735400 -12.535400 -32.296800
C -1.699900 -10.767800 -29.034000
C -1.439400 -11.952900 -31.070300
C -1.331800 -9.117200 -25.810100
H -1.176400 -13.965100 -34.620700
C -1.163000 -9.824900 -27.008700
C -0.599500 -13.144000 -32.788700
H -0.586000 -9.003800 -25.176700
C -0.430700 -13.851700 -33.987200
C -0.323100 -11.016000 -28.727100
C -0.062500 -12.201100 -30.763400
N -0.027100 -10.433500 -27.500600
C 0.467700 -12.967000 -31.868800
C 0.515600 -11.737000 -29.572400
C 0.829800 -14.381900 -34.239200
H 0.972400 -14.894600 -35.065200
H 1.144300 -10.665200 -25.886300
C 1.250100 -10.500200 -26.825700
H 1.442500 -11.911700 -29.324600
H 1.725000 -9.608700 -26.894900
C 1.726200 -13.511400 -32.149900
H 1.769000 -11.208800 -27.154000
C 1.898600 -14.219900 -33.336800
H 2.502400 -13.390900 -31.513200
H 2.799200 -14.622800 -33.534400
76
Fragment
H -12.715600 -8.346100 -26.263000
H -12.418800 -9.578000 -28.284200
C -11.815100 -8.749000 -26.460500
H -11.685400 -11.760100 -32.643400
C -11.642600 -9.457500 -27.647500
H -11.641400 -13.360200 -32.902500
H -11.358900 -11.057200 -30.472700
C -11.166600 -12.468700 -32.971700
H -11.060700 -12.303700 -33.911100
H -10.888800 -8.074300 -24.732200
C -10.746200 -8.587000 -25.558200
C -10.432000 -11.231900 -30.225000
C -10.384100 -10.001900 -27.928600
N -9.889400 -12.535400 -32.296800
C -9.853900 -10.767800 -29.034000
C -9.593400 -11.952900 -31.070300
C -9.485800 -9.117200 -25.810100
H -9.330400 -13.965100 -34.620700
C -9.317000 -9.824900 -27.008700
C -8.753500 -13.144000 -32.788700
H -8.740000 -9.003800 -25.176700
C -8.584700 -13.851700 -33.987200
C -8.477100 -11.016000 -28.727100
C -8.216500 -12.201100 -30.763400
N -8.181100 -10.433500 -27.500600
C -7.686300 -12.967000 -31.868800
C -7.638400 -11.737000 -29.572400
C -7.324200 -14.381900 -34.239200
H -7.181600 -14.894600 -35.065200
H -7.009700 -10.665200 -25.886300
C -6.903900 -10.500200 -26.825700
H -6.711500 -11.911700 -29.324600
H -6.429000 -9.608700 -26.894900
C -6.427800 -13.511400 -32.149900
H -6.385000 -11.208800 -27.154000
C -6.255400 -14.219900 -33.336800
H -5.651600 -13.390900 -31.513200
H -5.354800 -14.622800 -33.534400
H -4.561600 -8.346100 -26.263000
H -4.264800 -9.578000 -28.284200
C -3.661100 -8.749000 -26.460500
H -3.531400 -11.760100 -32.643400
C -3.488600 -9.457500 -27.647500
H -3.487400 -13.360200 -32.902500
H -3.204900 -11.057200 -30.472700
C -3.012600 -12.468700 -32.971700
H -2.906700 -12.303700 -33.911100
H -2.734800 -8.074300 -24.732200
C -2.592200 -8.587000 -25.558200
C -2.278000 -11.231900 -30.225000
C -2.230100 -10.001900 -27.928600
N -1.735400 -12.535400 -32.296800
C -1.699900 -10.767800 -29.034000
C -1.439400 -11.952900 -31.070300
C -1.331800 -9.117200 -25.810100
H -1.176400 -13.965100 -34.620700
C -1.163000 -9.824900 -27.008700
C -0.599500 -13.144000 -32.788700
H -0.586000 -9.003800 -25.176700
C -0.430700 -13.851700 -33.987200
C -0.323100 -11.016000 -28.727100
C -0.062500 -12.201100 -30.763400
N -0.027100 -10.433500 -27.500600
C 0.467700 -12.967000 -31.868800
C 0.515600 -11.737000 -29.572400
C 0.829800 -14.381900 -34.239200
H 0.972400 -14.894600 -35.065200
H 1.144300 -10.665200 -25.886300
C 1.250100 -10.500200 -26.825700
H 1.442500 -11.911700 -29.324600
H 1.725000 -9.608700 -26.894900
C 1.726200 -13.511400 -32.149900
H 1.769000 -11.208800 -27.154000
C 1.898600 -14.219900 -33.336800
H 2.502400 -13.390900 -31.513200
H 2.799200 -14.622800 -33.534400
