38
Fragment
H -12.715600 -8.346100 -26.263000
H -12.418800 -9.578000 -28.284200
C -11.815100 -8.749000 -26.460500
H -11.685400 -11.760100 -32.643400
C -11.642600 -9.457500 -27.647500
H -11.641400 -13.360200 -32.902500
H -11.358900 -11.057200 -30.472700
C -11.166600 -12.468700 -32.971700
H -11.060700 -12.303700 -33.911100
H -10.888800 -8.074300 -24.732200
C -10.746200 -8.587000 -25.558200
C -10.432000 -11.231900 -30.225000
C -10.384100 -10.001900 -27.928600
N -9.889400 -12.535400 -32.296800
C -9.853900 -10.767800 -29.034000
C -9.593400 -11.952900 -31.070300
C -9.485800 -9.117200 -25.810100
H -9.330400 -13.965100 -34.620700
C -9.317000 -9.824900 -27.008700
C -8.753500 -13.144000 -32.788700
H -8.740000 -9.003800 -25.176700
C -8.584700 -13.851700 -33.987200
C -8.477100 -11.016000 -28.727100
C -8.216500 -12.201100 -30.763400
N -8.181100 -10.433500 -27.500600
C -7.686300 -12.967000 -31.868800
C -7.638400 -11.737000 -29.572400
C -7.324200 -14.381900 -34.239200
H -7.181600 -14.894600 -35.065200
H -7.009700 -10.665200 -25.886300
C -6.903900 -10.500200 -26.825700
H -6.711500 -11.911700 -29.324600
H -6.429000 -9.608700 -26.894900
C -6.427800 -13.511400 -32.149900
H -6.385000 -11.208800 -27.154000
C -6.255400 -14.219900 -33.336800
H -5.651600 -13.390900 -31.513200
H -5.354800 -14.622800 -33.534400
38
Fragment
H -17.857900 -18.450900 -16.296800
H -17.561100 -17.219000 -18.317900
C -16.957300 -18.048000 -16.494300
H -16.827700 -15.037000 -22.677200
C -16.784900 -17.339500 -17.681300
H -16.783700 -13.436800 -22.936300
H -16.501200 -15.739800 -20.506500
C -16.308800 -14.328400 -23.005400
H -16.203000 -14.493400 -23.944900
H -16.031100 -18.722700 -14.766000
C -15.888500 -18.210100 -15.592000
C -15.574300 -15.565100 -20.258800
C -15.526400 -16.795200 -17.962300
N -15.031700 -14.261600 -22.330500
C -14.996200 -16.029200 -19.067800
C -14.735600 -14.844200 -21.104100
C -14.628000 -17.679900 -15.843900
H -14.472700 -12.832000 -24.654500
C -14.459200 -16.972100 -17.042500
C -13.895700 -13.653100 -22.822500
H -13.882300 -17.793200 -15.210500
C -13.726900 -12.945300 -24.021000
C -13.619300 -15.781000 -18.760800
C -13.358800 -14.596000 -20.797100
N -13.323300 -16.363600 -17.534400
C -12.828600 -13.830000 -21.902600
C -12.780700 -15.060100 -19.606200
C -12.466500 -12.415100 -24.273000
H -12.323900 -11.902500 -25.099000
H -12.152000 -16.131800 -15.920100
C -12.046100 -16.296800 -16.859500
H -11.853800 -14.885400 -19.358400
H -11.571300 -17.188400 -16.928600
C -11.570100 -13.285700 -22.183600
H -11.527300 -15.588200 -17.187800
C -11.397600 -12.577200 -23.370600
H -10.793900 -13.406200 -21.547000
H -10.497100 -12.174300 -23.568100
76
Fragment
H -12.715600 -8.346100 -26.263000
H -12.418800 -9.578000 -28.284200
C -11.815100 -8.749000 -26.460500
H -11.685400 -11.760100 -32.643400
C -11.642600 -9.457500 -27.647500
H -11.641400 -13.360200 -32.902500
H -11.358900 -11.057200 -30.472700
C -11.166600 -12.468700 -32.971700
H -11.060700 -12.303700 -33.911100
H -10.888800 -8.074300 -24.732200
C -10.746200 -8.587000 -25.558200
C -10.432000 -11.231900 -30.225000
C -10.384100 -10.001900 -27.928600
N -9.889400 -12.535400 -32.296800
C -9.853900 -10.767800 -29.034000
C -9.593400 -11.952900 -31.070300
C -9.485800 -9.117200 -25.810100
H -9.330400 -13.965100 -34.620700
C -9.317000 -9.824900 -27.008700
C -8.753500 -13.144000 -32.788700
H -8.740000 -9.003800 -25.176700
C -8.584700 -13.851700 -33.987200
C -8.477100 -11.016000 -28.727100
C -8.216500 -12.201100 -30.763400
N -8.181100 -10.433500 -27.500600
C -7.686300 -12.967000 -31.868800
C -7.638400 -11.737000 -29.572400
C -7.324200 -14.381900 -34.239200
H -7.181600 -14.894600 -35.065200
H -7.009700 -10.665200 -25.886300
C -6.903900 -10.500200 -26.825700
H -6.711500 -11.911700 -29.324600
H -6.429000 -9.608700 -26.894900
C -6.427800 -13.511400 -32.149900
H -6.385000 -11.208800 -27.154000
C -6.255400 -14.219900 -33.336800
H -5.651600 -13.390900 -31.513200
H -5.354800 -14.622800 -33.534400
H -17.857900 -18.450900 -16.296800
H -17.561100 -17.219000 -18.317900
C -16.957300 -18.048000 -16.494300
H -16.827700 -15.037000 -22.677200
C -16.784900 -17.339500 -17.681300
H -16.783700 -13.436800 -22.936300
H -16.501200 -15.739800 -20.506500
C -16.308800 -14.328400 -23.005400
H -16.203000 -14.493400 -23.944900
H -16.031100 -18.722700 -14.766000
C -15.888500 -18.210100 -15.592000
C -15.574300 -15.565100 -20.258800
C -15.526400 -16.795200 -17.962300
N -15.031700 -14.261600 -22.330500
C -14.996200 -16.029200 -19.067800
C -14.735600 -14.844200 -21.104100
C -14.628000 -17.679900 -15.843900
H -14.472700 -12.832000 -24.654500
C -14.459200 -16.972100 -17.042500
C -13.895700 -13.653100 -22.822500
H -13.882300 -17.793200 -15.210500
C -13.726900 -12.945300 -24.021000
C -13.619300 -15.781000 -18.760800
C -13.358800 -14.596000 -20.797100
N -13.323300 -16.363600 -17.534400
C -12.828600 -13.830000 -21.902600
C -12.780700 -15.060100 -19.606200
C -12.466500 -12.415100 -24.273000
H -12.323900 -11.902500 -25.099000
H -12.152000 -16.131800 -15.920100
C -12.046100 -16.296800 -16.859500
H -11.853800 -14.885400 -19.358400
H -11.571300 -17.188400 -16.928600
C -11.570100 -13.285700 -22.183600
H -11.527300 -15.588200 -17.187800
C -11.397600 -12.577200 -23.370600
H -10.793900 -13.406200 -21.547000
H -10.497100 -12.174300 -23.568100
