38
Fragment
H -12.715600 -8.346100 -26.263000
H -12.418800 -9.578000 -28.284200
C -11.815100 -8.749000 -26.460500
H -11.685400 -11.760100 -32.643400
C -11.642600 -9.457500 -27.647500
H -11.641400 -13.360200 -32.902500
H -11.358900 -11.057200 -30.472700
C -11.166600 -12.468700 -32.971700
H -11.060700 -12.303700 -33.911100
H -10.888800 -8.074300 -24.732200
C -10.746200 -8.587000 -25.558200
C -10.432000 -11.231900 -30.225000
C -10.384100 -10.001900 -27.928600
N -9.889400 -12.535400 -32.296800
C -9.853900 -10.767800 -29.034000
C -9.593400 -11.952900 -31.070300
C -9.485800 -9.117200 -25.810100
H -9.330400 -13.965100 -34.620700
C -9.317000 -9.824900 -27.008700
C -8.753500 -13.144000 -32.788700
H -8.740000 -9.003800 -25.176700
C -8.584700 -13.851700 -33.987200
C -8.477100 -11.016000 -28.727100
C -8.216500 -12.201100 -30.763400
N -8.181100 -10.433500 -27.500600
C -7.686300 -12.967000 -31.868800
C -7.638400 -11.737000 -29.572400
C -7.324200 -14.381900 -34.239200
H -7.181600 -14.894600 -35.065200
H -7.009700 -10.665200 -25.886300
C -6.903900 -10.500200 -26.825700
H -6.711500 -11.911700 -29.324600
H -6.429000 -9.608700 -26.894900
C -6.427800 -13.511400 -32.149900
H -6.385000 -11.208800 -27.154000
C -6.255400 -14.219900 -33.336800
H -5.651600 -13.390900 -31.513200
H -5.354800 -14.622800 -33.534400
38
Fragment
H -7.573300 -18.450900 -36.229200
H -7.276600 -17.219000 -38.250400
C -6.672800 -18.048000 -36.426800
H -6.543200 -15.037000 -42.609600
C -6.500400 -17.339500 -37.613800
H -6.499200 -13.436800 -42.868700
H -6.216700 -15.739800 -40.439000
C -6.024300 -14.328400 -42.937900
H -5.918400 -14.493400 -43.877300
H -5.746600 -18.722700 -34.698400
C -5.604000 -18.210100 -35.524400
C -5.289800 -15.565100 -40.191200
C -5.241800 -16.795200 -37.894800
N -4.747100 -14.261600 -42.263000
C -4.711700 -16.029200 -39.000300
C -4.451100 -14.844200 -41.036600
C -4.343500 -17.679900 -35.776400
H -4.188200 -12.832000 -44.586900
C -4.174700 -16.972100 -36.974900
C -3.611200 -13.653100 -42.754900
H -3.597800 -17.793200 -35.142900
C -3.442400 -12.945300 -43.953500
C -3.334800 -15.781000 -38.693300
C -3.074300 -14.596000 -40.729600
N -3.038800 -16.363600 -37.466800
C -2.544100 -13.830000 -41.835000
C -2.496200 -15.060100 -39.538600
C -2.182000 -12.415100 -44.205400
H -2.039400 -11.902500 -45.031400
H -1.867500 -16.131800 -35.852500
C -1.761600 -16.296800 -36.791900
H -1.569300 -14.885400 -39.290900
H -1.286700 -17.188400 -36.861100
C -1.285600 -13.285700 -42.116100
H -1.242700 -15.588200 -37.120200
C -1.113100 -12.577200 -43.303100
H -0.509300 -13.406200 -41.479500
H -0.212600 -12.174300 -43.500600
76
Fragment
H -12.715600 -8.346100 -26.263000
H -12.418800 -9.578000 -28.284200
C -11.815100 -8.749000 -26.460500
H -11.685400 -11.760100 -32.643400
C -11.642600 -9.457500 -27.647500
H -11.641400 -13.360200 -32.902500
H -11.358900 -11.057200 -30.472700
C -11.166600 -12.468700 -32.971700
H -11.060700 -12.303700 -33.911100
H -10.888800 -8.074300 -24.732200
C -10.746200 -8.587000 -25.558200
C -10.432000 -11.231900 -30.225000
C -10.384100 -10.001900 -27.928600
N -9.889400 -12.535400 -32.296800
C -9.853900 -10.767800 -29.034000
C -9.593400 -11.952900 -31.070300
C -9.485800 -9.117200 -25.810100
H -9.330400 -13.965100 -34.620700
C -9.317000 -9.824900 -27.008700
C -8.753500 -13.144000 -32.788700
H -8.740000 -9.003800 -25.176700
C -8.584700 -13.851700 -33.987200
C -8.477100 -11.016000 -28.727100
C -8.216500 -12.201100 -30.763400
N -8.181100 -10.433500 -27.500600
C -7.686300 -12.967000 -31.868800
C -7.638400 -11.737000 -29.572400
C -7.324200 -14.381900 -34.239200
H -7.181600 -14.894600 -35.065200
H -7.009700 -10.665200 -25.886300
C -6.903900 -10.500200 -26.825700
H -6.711500 -11.911700 -29.324600
H -6.429000 -9.608700 -26.894900
C -6.427800 -13.511400 -32.149900
H -6.385000 -11.208800 -27.154000
C -6.255400 -14.219900 -33.336800
H -5.651600 -13.390900 -31.513200
H -5.354800 -14.622800 -33.534400
H -7.573300 -18.450900 -36.229200
H -7.276600 -17.219000 -38.250400
C -6.672800 -18.048000 -36.426800
H -6.543200 -15.037000 -42.609600
C -6.500400 -17.339500 -37.613800
H -6.499200 -13.436800 -42.868700
H -6.216700 -15.739800 -40.439000
C -6.024300 -14.328400 -42.937900
H -5.918400 -14.493400 -43.877300
H -5.746600 -18.722700 -34.698400
C -5.604000 -18.210100 -35.524400
C -5.289800 -15.565100 -40.191200
C -5.241800 -16.795200 -37.894800
N -4.747100 -14.261600 -42.263000
C -4.711700 -16.029200 -39.000300
C -4.451100 -14.844200 -41.036600
C -4.343500 -17.679900 -35.776400
H -4.188200 -12.832000 -44.586900
C -4.174700 -16.972100 -36.974900
C -3.611200 -13.653100 -42.754900
H -3.597800 -17.793200 -35.142900
C -3.442400 -12.945300 -43.953500
C -3.334800 -15.781000 -38.693300
C -3.074300 -14.596000 -40.729600
N -3.038800 -16.363600 -37.466800
C -2.544100 -13.830000 -41.835000
C -2.496200 -15.060100 -39.538600
C -2.182000 -12.415100 -44.205400
H -2.039400 -11.902500 -45.031400
H -1.867500 -16.131800 -35.852500
C -1.761600 -16.296800 -36.791900
H -1.569300 -14.885400 -39.290900
H -1.286700 -17.188400 -36.861100
C -1.285600 -13.285700 -42.116100
H -1.242700 -15.588200 -37.120200
C -1.113100 -12.577200 -43.303100
H -0.509300 -13.406200 -41.479500
H -0.212600 -12.174300 -43.500600
