38
Fragment
H -12.715600 -8.346100 -26.263000
H -12.418800 -9.578000 -28.284200
C -11.815100 -8.749000 -26.460500
H -11.685400 -11.760100 -32.643400
C -11.642600 -9.457500 -27.647500
H -11.641400 -13.360200 -32.902500
H -11.358900 -11.057200 -30.472700
C -11.166600 -12.468700 -32.971700
H -11.060700 -12.303700 -33.911100
H -10.888800 -8.074300 -24.732200
C -10.746200 -8.587000 -25.558200
C -10.432000 -11.231900 -30.225000
C -10.384100 -10.001900 -27.928600
N -9.889400 -12.535400 -32.296800
C -9.853900 -10.767800 -29.034000
C -9.593400 -11.952900 -31.070300
C -9.485800 -9.117200 -25.810100
H -9.330400 -13.965100 -34.620700
C -9.317000 -9.824900 -27.008700
C -8.753500 -13.144000 -32.788700
H -8.740000 -9.003800 -25.176700
C -8.584700 -13.851700 -33.987200
C -8.477100 -11.016000 -28.727100
C -8.216500 -12.201100 -30.763400
N -8.181100 -10.433500 -27.500600
C -7.686300 -12.967000 -31.868800
C -7.638400 -11.737000 -29.572400
C -7.324200 -14.381900 -34.239200
H -7.181600 -14.894600 -35.065200
H -7.009700 -10.665200 -25.886300
C -6.903900 -10.500200 -26.825700
H -6.711500 -11.911700 -29.324600
H -6.429000 -9.608700 -26.894900
C -6.427800 -13.511400 -32.149900
H -6.385000 -11.208800 -27.154000
C -6.255400 -14.219900 -33.336800
H -5.651600 -13.390900 -31.513200
H -5.354800 -14.622800 -33.534400
20
Fragment
N -4.693500 -13.205900 -28.155600
C -3.576300 -13.461800 -28.046200
H -3.198500 -14.805000 -30.181700
C -2.250200 -15.012700 -30.074700
C -2.186200 -13.793100 -27.931400
H -2.151200 -16.053700 -31.810200
C -1.622200 -15.743600 -31.025700
C -1.543200 -14.545700 -28.901500
C -1.489700 -13.299900 -26.779500
N -0.905300 -12.896300 -25.870100
N -0.857200 -17.728900 -33.927200
C -0.272800 -17.325300 -33.017900
C -0.219300 -16.079500 -30.895900
C -0.140200 -14.881600 -28.771700
H 0.388700 -14.571500 -27.987200
C 0.423700 -16.832100 -31.866000
C 0.487800 -15.612500 -29.722700
H 1.436100 -15.820200 -29.615700
C 1.813900 -17.163400 -31.751200
N 2.931000 -17.419300 -31.641800
58
Fragment
H -12.715600 -8.346100 -26.263000
H -12.418800 -9.578000 -28.284200
C -11.815100 -8.749000 -26.460500
H -11.685400 -11.760100 -32.643400
C -11.642600 -9.457500 -27.647500
H -11.641400 -13.360200 -32.902500
H -11.358900 -11.057200 -30.472700
C -11.166600 -12.468700 -32.971700
H -11.060700 -12.303700 -33.911100
H -10.888800 -8.074300 -24.732200
C -10.746200 -8.587000 -25.558200
C -10.432000 -11.231900 -30.225000
C -10.384100 -10.001900 -27.928600
N -9.889400 -12.535400 -32.296800
C -9.853900 -10.767800 -29.034000
C -9.593400 -11.952900 -31.070300
C -9.485800 -9.117200 -25.810100
H -9.330400 -13.965100 -34.620700
C -9.317000 -9.824900 -27.008700
C -8.753500 -13.144000 -32.788700
H -8.740000 -9.003800 -25.176700
C -8.584700 -13.851700 -33.987200
C -8.477100 -11.016000 -28.727100
C -8.216500 -12.201100 -30.763400
N -8.181100 -10.433500 -27.500600
C -7.686300 -12.967000 -31.868800
C -7.638400 -11.737000 -29.572400
C -7.324200 -14.381900 -34.239200
H -7.181600 -14.894600 -35.065200
H -7.009700 -10.665200 -25.886300
C -6.903900 -10.500200 -26.825700
H -6.711500 -11.911700 -29.324600
H -6.429000 -9.608700 -26.894900
C -6.427800 -13.511400 -32.149900
H -6.385000 -11.208800 -27.154000
C -6.255400 -14.219900 -33.336800
H -5.651600 -13.390900 -31.513200
H -5.354800 -14.622800 -33.534400
N -4.693500 -13.205900 -28.155600
C -3.576300 -13.461800 -28.046200
H -3.198500 -14.805000 -30.181700
C -2.250200 -15.012700 -30.074700
C -2.186200 -13.793100 -27.931400
H -2.151200 -16.053700 -31.810200
C -1.622200 -15.743600 -31.025700
C -1.543200 -14.545700 -28.901500
C -1.489700 -13.299900 -26.779500
N -0.905300 -12.896300 -25.870100
N -0.857200 -17.728900 -33.927200
C -0.272800 -17.325300 -33.017900
C -0.219300 -16.079500 -30.895900
C -0.140200 -14.881600 -28.771700
H 0.388700 -14.571500 -27.987200
C 0.423700 -16.832100 -31.866000
C 0.487800 -15.612500 -29.722700
H 1.436100 -15.820200 -29.615700
C 1.813900 -17.163400 -31.751200
N 2.931000 -17.419300 -31.641800
