38
Fragment
H -12.715600 -8.346100 -26.263000
H -12.418800 -9.578000 -28.284200
C -11.815100 -8.749000 -26.460500
H -11.685400 -11.760100 -32.643400
C -11.642600 -9.457500 -27.647500
H -11.641400 -13.360200 -32.902500
H -11.358900 -11.057200 -30.472700
C -11.166600 -12.468700 -32.971700
H -11.060700 -12.303700 -33.911100
H -10.888800 -8.074300 -24.732200
C -10.746200 -8.587000 -25.558200
C -10.432000 -11.231900 -30.225000
C -10.384100 -10.001900 -27.928600
N -9.889400 -12.535400 -32.296800
C -9.853900 -10.767800 -29.034000
C -9.593400 -11.952900 -31.070300
C -9.485800 -9.117200 -25.810100
H -9.330400 -13.965100 -34.620700
C -9.317000 -9.824900 -27.008700
C -8.753500 -13.144000 -32.788700
H -8.740000 -9.003800 -25.176700
C -8.584700 -13.851700 -33.987200
C -8.477100 -11.016000 -28.727100
C -8.216500 -12.201100 -30.763400
N -8.181100 -10.433500 -27.500600
C -7.686300 -12.967000 -31.868800
C -7.638400 -11.737000 -29.572400
C -7.324200 -14.381900 -34.239200
H -7.181600 -14.894600 -35.065200
H -7.009700 -10.665200 -25.886300
C -6.903900 -10.500200 -26.825700
H -6.711500 -11.911700 -29.324600
H -6.429000 -9.608700 -26.894900
C -6.427800 -13.511400 -32.149900
H -6.385000 -11.208800 -27.154000
C -6.255400 -14.219900 -33.336800
H -5.651600 -13.390900 -31.513200
H -5.354800 -14.622800 -33.534400
38
Fragment
H -20.869600 -8.346100 -26.263000
H -20.572800 -9.578000 -28.284200
C -19.969100 -8.749000 -26.460500
H -19.839400 -11.760100 -32.643400
C -19.796600 -9.457500 -27.647500
H -19.795400 -13.360200 -32.902500
H -19.512900 -11.057200 -30.472700
C -19.320600 -12.468700 -32.971700
H -19.214700 -12.303700 -33.911100
H -19.042800 -8.074300 -24.732200
C -18.900200 -8.587000 -25.558200
C -18.586000 -11.231900 -30.225000
C -18.538100 -10.001900 -27.928600
N -18.043400 -12.535400 -32.296800
C -18.007900 -10.767800 -29.034000
C -17.747400 -11.952900 -31.070300
C -17.639800 -9.117200 -25.810100
H -17.484400 -13.965100 -34.620700
C -17.471000 -9.824900 -27.008700
C -16.907500 -13.144000 -32.788700
H -16.894000 -9.003800 -25.176700
C -16.738700 -13.851700 -33.987200
C -16.631100 -11.016000 -28.727100
C -16.370500 -12.201100 -30.763400
N -16.335100 -10.433500 -27.500600
C -15.840300 -12.967000 -31.868800
C -15.792400 -11.737000 -29.572400
C -15.478200 -14.381900 -34.239200
H -15.335600 -14.894600 -35.065200
H -15.163700 -10.665200 -25.886300
C -15.057900 -10.500200 -26.825700
H -14.865500 -11.911700 -29.324600
H -14.583000 -9.608700 -26.894900
C -14.581800 -13.511400 -32.149900
H -14.539000 -11.208800 -27.154000
C -14.409400 -14.219900 -33.336800
H -13.805600 -13.390900 -31.513200
H -13.508800 -14.622800 -33.534400
76
Fragment
H -12.715600 -8.346100 -26.263000
H -12.418800 -9.578000 -28.284200
C -11.815100 -8.749000 -26.460500
H -11.685400 -11.760100 -32.643400
C -11.642600 -9.457500 -27.647500
H -11.641400 -13.360200 -32.902500
H -11.358900 -11.057200 -30.472700
C -11.166600 -12.468700 -32.971700
H -11.060700 -12.303700 -33.911100
H -10.888800 -8.074300 -24.732200
C -10.746200 -8.587000 -25.558200
C -10.432000 -11.231900 -30.225000
C -10.384100 -10.001900 -27.928600
N -9.889400 -12.535400 -32.296800
C -9.853900 -10.767800 -29.034000
C -9.593400 -11.952900 -31.070300
C -9.485800 -9.117200 -25.810100
H -9.330400 -13.965100 -34.620700
C -9.317000 -9.824900 -27.008700
C -8.753500 -13.144000 -32.788700
H -8.740000 -9.003800 -25.176700
C -8.584700 -13.851700 -33.987200
C -8.477100 -11.016000 -28.727100
C -8.216500 -12.201100 -30.763400
N -8.181100 -10.433500 -27.500600
C -7.686300 -12.967000 -31.868800
C -7.638400 -11.737000 -29.572400
C -7.324200 -14.381900 -34.239200
H -7.181600 -14.894600 -35.065200
H -7.009700 -10.665200 -25.886300
C -6.903900 -10.500200 -26.825700
H -6.711500 -11.911700 -29.324600
H -6.429000 -9.608700 -26.894900
C -6.427800 -13.511400 -32.149900
H -6.385000 -11.208800 -27.154000
C -6.255400 -14.219900 -33.336800
H -5.651600 -13.390900 -31.513200
H -5.354800 -14.622800 -33.534400
H -20.869600 -8.346100 -26.263000
H -20.572800 -9.578000 -28.284200
C -19.969100 -8.749000 -26.460500
H -19.839400 -11.760100 -32.643400
C -19.796600 -9.457500 -27.647500
H -19.795400 -13.360200 -32.902500
H -19.512900 -11.057200 -30.472700
C -19.320600 -12.468700 -32.971700
H -19.214700 -12.303700 -33.911100
H -19.042800 -8.074300 -24.732200
C -18.900200 -8.587000 -25.558200
C -18.586000 -11.231900 -30.225000
C -18.538100 -10.001900 -27.928600
N -18.043400 -12.535400 -32.296800
C -18.007900 -10.767800 -29.034000
C -17.747400 -11.952900 -31.070300
C -17.639800 -9.117200 -25.810100
H -17.484400 -13.965100 -34.620700
C -17.471000 -9.824900 -27.008700
C -16.907500 -13.144000 -32.788700
H -16.894000 -9.003800 -25.176700
C -16.738700 -13.851700 -33.987200
C -16.631100 -11.016000 -28.727100
C -16.370500 -12.201100 -30.763400
N -16.335100 -10.433500 -27.500600
C -15.840300 -12.967000 -31.868800
C -15.792400 -11.737000 -29.572400
C -15.478200 -14.381900 -34.239200
H -15.335600 -14.894600 -35.065200
H -15.163700 -10.665200 -25.886300
C -15.057900 -10.500200 -26.825700
H -14.865500 -11.911700 -29.324600
H -14.583000 -9.608700 -26.894900
C -14.581800 -13.511400 -32.149900
H -14.539000 -11.208800 -27.154000
C -14.409400 -14.219900 -33.336800
H -13.805600 -13.390900 -31.513200
H -13.508800 -14.622800 -33.534400
