38
Fragment
H -12.715600 -8.346100 -26.263000
H -12.418800 -9.578000 -28.284200
C -11.815100 -8.749000 -26.460500
H -11.685400 -11.760100 -32.643400
C -11.642600 -9.457500 -27.647500
H -11.641400 -13.360200 -32.902500
H -11.358900 -11.057200 -30.472700
C -11.166600 -12.468700 -32.971700
H -11.060700 -12.303700 -33.911100
H -10.888800 -8.074300 -24.732200
C -10.746200 -8.587000 -25.558200
C -10.432000 -11.231900 -30.225000
C -10.384100 -10.001900 -27.928600
N -9.889400 -12.535400 -32.296800
C -9.853900 -10.767800 -29.034000
C -9.593400 -11.952900 -31.070300
C -9.485800 -9.117200 -25.810100
H -9.330400 -13.965100 -34.620700
C -9.317000 -9.824900 -27.008700
C -8.753500 -13.144000 -32.788700
H -8.740000 -9.003800 -25.176700
C -8.584700 -13.851700 -33.987200
C -8.477100 -11.016000 -28.727100
C -8.216500 -12.201100 -30.763400
N -8.181100 -10.433500 -27.500600
C -7.686300 -12.967000 -31.868800
C -7.638400 -11.737000 -29.572400
C -7.324200 -14.381900 -34.239200
H -7.181600 -14.894600 -35.065200
H -7.009700 -10.665200 -25.886300
C -6.903900 -10.500200 -26.825700
H -6.711500 -11.911700 -29.324600
H -6.429000 -9.608700 -26.894900
C -6.427800 -13.511400 -32.149900
H -6.385000 -11.208800 -27.154000
C -6.255400 -14.219900 -33.336800
H -5.651600 -13.390900 -31.513200
H -5.354800 -14.622800 -33.534400
38
Fragment
H -9.703900 -10.794600 -16.296800
H -9.407100 -9.562700 -18.317900
C -8.803300 -10.391700 -16.494300
H -8.673700 -7.380700 -22.677200
C -8.630900 -9.683200 -17.681300
H -8.629700 -5.780500 -22.936300
H -8.347200 -8.083500 -20.506500
C -8.154800 -6.672100 -23.005400
H -8.049000 -6.837100 -23.944900
H -7.877100 -11.066400 -14.766000
C -7.734500 -10.553800 -15.592000
C -7.420300 -7.908800 -20.258800
C -7.372400 -9.138900 -17.962300
N -6.877700 -6.605300 -22.330500
C -6.842200 -8.372900 -19.067800
C -6.581600 -7.187900 -21.104100
C -6.474000 -10.023600 -15.843900
H -6.318700 -5.175700 -24.654500
C -6.305200 -9.315800 -17.042500
C -5.741700 -5.996800 -22.822500
H -5.728300 -10.136900 -15.210500
C -5.572900 -5.289000 -24.021000
C -5.465300 -8.124700 -18.760800
C -5.204800 -6.939700 -20.797100
N -5.169300 -8.707300 -17.534400
C -4.674600 -6.173700 -21.902600
C -4.626700 -7.403800 -19.606200
C -4.312500 -4.758800 -24.273000
H -4.169900 -4.246200 -25.099000
H -3.998000 -8.475500 -15.920100
C -3.892100 -8.640500 -16.859500
H -3.699800 -7.229100 -19.358400
H -3.417300 -9.532100 -16.928600
C -3.416100 -5.629400 -22.183600
H -3.373300 -7.931900 -17.187800
C -3.243600 -4.920900 -23.370600
H -2.639900 -5.749900 -21.547000
H -2.343100 -4.518000 -23.568100
76
Fragment
H -12.715600 -8.346100 -26.263000
H -12.418800 -9.578000 -28.284200
C -11.815100 -8.749000 -26.460500
H -11.685400 -11.760100 -32.643400
C -11.642600 -9.457500 -27.647500
H -11.641400 -13.360200 -32.902500
H -11.358900 -11.057200 -30.472700
C -11.166600 -12.468700 -32.971700
H -11.060700 -12.303700 -33.911100
H -10.888800 -8.074300 -24.732200
C -10.746200 -8.587000 -25.558200
C -10.432000 -11.231900 -30.225000
C -10.384100 -10.001900 -27.928600
N -9.889400 -12.535400 -32.296800
C -9.853900 -10.767800 -29.034000
C -9.593400 -11.952900 -31.070300
C -9.485800 -9.117200 -25.810100
H -9.330400 -13.965100 -34.620700
C -9.317000 -9.824900 -27.008700
C -8.753500 -13.144000 -32.788700
H -8.740000 -9.003800 -25.176700
C -8.584700 -13.851700 -33.987200
C -8.477100 -11.016000 -28.727100
C -8.216500 -12.201100 -30.763400
N -8.181100 -10.433500 -27.500600
C -7.686300 -12.967000 -31.868800
C -7.638400 -11.737000 -29.572400
C -7.324200 -14.381900 -34.239200
H -7.181600 -14.894600 -35.065200
H -7.009700 -10.665200 -25.886300
C -6.903900 -10.500200 -26.825700
H -6.711500 -11.911700 -29.324600
H -6.429000 -9.608700 -26.894900
C -6.427800 -13.511400 -32.149900
H -6.385000 -11.208800 -27.154000
C -6.255400 -14.219900 -33.336800
H -5.651600 -13.390900 -31.513200
H -5.354800 -14.622800 -33.534400
H -9.703900 -10.794600 -16.296800
H -9.407100 -9.562700 -18.317900
C -8.803300 -10.391700 -16.494300
H -8.673700 -7.380700 -22.677200
C -8.630900 -9.683200 -17.681300
H -8.629700 -5.780500 -22.936300
H -8.347200 -8.083500 -20.506500
C -8.154800 -6.672100 -23.005400
H -8.049000 -6.837100 -23.944900
H -7.877100 -11.066400 -14.766000
C -7.734500 -10.553800 -15.592000
C -7.420300 -7.908800 -20.258800
C -7.372400 -9.138900 -17.962300
N -6.877700 -6.605300 -22.330500
C -6.842200 -8.372900 -19.067800
C -6.581600 -7.187900 -21.104100
C -6.474000 -10.023600 -15.843900
H -6.318700 -5.175700 -24.654500
C -6.305200 -9.315800 -17.042500
C -5.741700 -5.996800 -22.822500
H -5.728300 -10.136900 -15.210500
C -5.572900 -5.289000 -24.021000
C -5.465300 -8.124700 -18.760800
C -5.204800 -6.939700 -20.797100
N -5.169300 -8.707300 -17.534400
C -4.674600 -6.173700 -21.902600
C -4.626700 -7.403800 -19.606200
C -4.312500 -4.758800 -24.273000
H -4.169900 -4.246200 -25.099000
H -3.998000 -8.475500 -15.920100
C -3.892100 -8.640500 -16.859500
H -3.699800 -7.229100 -19.358400
H -3.417300 -9.532100 -16.928600
C -3.416100 -5.629400 -22.183600
H -3.373300 -7.931900 -17.187800
C -3.243600 -4.920900 -23.370600
H -2.639900 -5.749900 -21.547000
H -2.343100 -4.518000 -23.568100
