28
Fragment
H -8.466400 -15.746200 -24.500200
H -8.412200 -14.300400 -24.145600
N -8.168300 -15.112200 -24.001100
C -7.331500 -15.387600 -23.007800
H -7.217500 -13.634000 -18.182800
N -6.980800 -13.041600 -22.066500
N -6.959600 -16.679600 -22.798000
H -6.958200 -14.513800 -16.909900
H -6.923300 -12.132900 -16.561200
C -6.801100 -14.408400 -22.136000
C -6.551500 -13.882200 -17.523400
C -6.278500 -12.690500 -21.025700
H -6.213100 -11.809900 -20.733500
C -6.120400 -12.657400 -16.764100
C -6.101700 -16.939600 -21.812500
C -5.970900 -14.850400 -21.122200
H -5.839700 -17.829600 -21.743800
N -5.644400 -13.731800 -20.399600
N -5.560300 -16.121100 -20.909700
O -5.480200 -12.968400 -15.530000
O -5.450000 -14.503600 -18.177800
C -5.223200 -11.809900 -17.613900
H -5.060200 -10.929300 -17.363300
C -4.852800 -13.689200 -19.146300
H -4.716300 -13.229400 -15.676800
C -4.661500 -12.280000 -18.703100
H -4.127000 -11.715600 -19.215200
H -3.967800 -14.061600 -19.341900
28
Fragment
H -12.379500 -9.811600 -28.366000
H -12.220400 -7.465600 -28.492800
C -11.685900 -8.030000 -29.004800
H -11.631000 -8.979400 -32.031100
C -11.494500 -9.439300 -28.561600
H -11.287100 -6.679300 -30.344600
C -11.124200 -7.559900 -30.094000
O -10.897400 -10.253600 -29.530100
O -10.867100 -8.718400 -32.177900
N -10.787100 -11.871100 -26.798200
N -10.702900 -9.481800 -27.308300
H -10.507700 -13.579600 -25.964100
C -10.376400 -10.600300 -26.585700
C -10.245600 -12.689600 -25.895400
C -10.226900 -8.407400 -30.943800
H -10.134200 -7.559900 -26.974400
C -10.068800 -8.440500 -26.682200
C -9.795900 -9.632200 -30.184500
C -9.546200 -10.158300 -25.571900
H -9.424100 -7.882900 -31.146800
H -9.389200 -10.263800 -30.798000
N -9.387800 -12.429600 -24.909900
N -9.366600 -8.791600 -25.641400
H -9.129800 -9.384000 -29.525200
C -9.015800 -11.137600 -24.700100
N -8.179100 -10.862200 -23.706900
H -7.935200 -10.050400 -23.562300
H -7.881000 -11.496200 -23.207700
56
Fragment
H -8.466400 -15.746200 -24.500200
H -8.412200 -14.300400 -24.145600
N -8.168300 -15.112200 -24.001100
C -7.331500 -15.387600 -23.007800
H -7.217500 -13.634000 -18.182800
N -6.980800 -13.041600 -22.066500
N -6.959600 -16.679600 -22.798000
H -6.958200 -14.513800 -16.909900
H -6.923300 -12.132900 -16.561200
C -6.801100 -14.408400 -22.136000
C -6.551500 -13.882200 -17.523400
C -6.278500 -12.690500 -21.025700
H -6.213100 -11.809900 -20.733500
C -6.120400 -12.657400 -16.764100
C -6.101700 -16.939600 -21.812500
C -5.970900 -14.850400 -21.122200
H -5.839700 -17.829600 -21.743800
N -5.644400 -13.731800 -20.399600
N -5.560300 -16.121100 -20.909700
O -5.480200 -12.968400 -15.530000
O -5.450000 -14.503600 -18.177800
C -5.223200 -11.809900 -17.613900
H -5.060200 -10.929300 -17.363300
C -4.852800 -13.689200 -19.146300
H -4.716300 -13.229400 -15.676800
C -4.661500 -12.280000 -18.703100
H -4.127000 -11.715600 -19.215200
H -3.967800 -14.061600 -19.341900
H -12.379500 -9.811600 -28.366000
H -12.220400 -7.465600 -28.492800
C -11.685900 -8.030000 -29.004800
H -11.631000 -8.979400 -32.031100
C -11.494500 -9.439300 -28.561600
H -11.287100 -6.679300 -30.344600
C -11.124200 -7.559900 -30.094000
O -10.897400 -10.253600 -29.530100
O -10.867100 -8.718400 -32.177900
N -10.787100 -11.871100 -26.798200
N -10.702900 -9.481800 -27.308300
H -10.507700 -13.579600 -25.964100
C -10.376400 -10.600300 -26.585700
C -10.245600 -12.689600 -25.895400
C -10.226900 -8.407400 -30.943800
H -10.134200 -7.559900 -26.974400
C -10.068800 -8.440500 -26.682200
C -9.795900 -9.632200 -30.184500
C -9.546200 -10.158300 -25.571900
H -9.424100 -7.882900 -31.146800
H -9.389200 -10.263800 -30.798000
N -9.387800 -12.429600 -24.909900
N -9.366600 -8.791600 -25.641400
H -9.129800 -9.384000 -29.525200
C -9.015800 -11.137600 -24.700100
N -8.179100 -10.862200 -23.706900
H -7.935200 -10.050400 -23.562300
H -7.881000 -11.496200 -23.207700
