28
Fragment
H -8.466400 -15.746200 -24.500200
H -8.412200 -14.300400 -24.145600
N -8.168300 -15.112200 -24.001100
C -7.331500 -15.387600 -23.007800
H -7.217500 -13.634000 -18.182800
N -6.980800 -13.041600 -22.066500
N -6.959600 -16.679600 -22.798000
H -6.958200 -14.513800 -16.909900
H -6.923300 -12.132900 -16.561200
C -6.801100 -14.408400 -22.136000
C -6.551500 -13.882200 -17.523400
C -6.278500 -12.690500 -21.025700
H -6.213100 -11.809900 -20.733500
C -6.120400 -12.657400 -16.764100
C -6.101700 -16.939600 -21.812500
C -5.970900 -14.850400 -21.122200
H -5.839700 -17.829600 -21.743800
N -5.644400 -13.731800 -20.399600
N -5.560300 -16.121100 -20.909700
O -5.480200 -12.968400 -15.530000
O -5.450000 -14.503600 -18.177800
C -5.223200 -11.809900 -17.613900
H -5.060200 -10.929300 -17.363300
C -4.852800 -13.689200 -19.146300
H -4.716300 -13.229400 -15.676800
C -4.661500 -12.280000 -18.703100
H -4.127000 -11.715600 -19.215200
H -3.967800 -14.061600 -19.341900
28
Fragment
H -3.156500 -12.654000 -13.490200
H -3.049400 -14.001200 -11.729800
O -2.891400 -14.104900 -15.779100
C -2.658300 -13.436800 -13.545900
C -2.620800 -14.257000 -12.513800
H -2.587200 -16.251200 -12.304000
H -2.518300 -14.283400 -16.487900
C -1.922300 -15.574600 -12.547300
C -1.912200 -13.746200 -14.803900
H -1.449400 -12.936200 -15.104000
O -1.432600 -15.927300 -13.815100
C -0.888500 -14.825700 -14.544600
N -0.874800 -15.618800 -11.511000
N -0.867300 -18.014900 -11.047400
H -0.541400 -15.145300 -15.392200
H -0.535200 -19.727600 -10.247700
C -0.484200 -16.745800 -10.815900
C -0.305500 -18.830900 -10.157000
H -0.292800 -13.696000 -11.201800
C -0.206900 -14.577500 -10.918800
H -0.148300 -14.447400 -14.043600
C 0.390000 -16.307300 -9.848800
N 0.529000 -18.565700 -9.156600
N 0.561200 -14.930200 -9.923100
C 0.913400 -17.275400 -8.962900
N 1.742600 -16.993200 -7.965600
H 1.993600 -16.182300 -7.831600
H 2.028800 -17.622200 -7.453600
56
Fragment
H -8.466400 -15.746200 -24.500200
H -8.412200 -14.300400 -24.145600
N -8.168300 -15.112200 -24.001100
C -7.331500 -15.387600 -23.007800
H -7.217500 -13.634000 -18.182800
N -6.980800 -13.041600 -22.066500
N -6.959600 -16.679600 -22.798000
H -6.958200 -14.513800 -16.909900
H -6.923300 -12.132900 -16.561200
C -6.801100 -14.408400 -22.136000
C -6.551500 -13.882200 -17.523400
C -6.278500 -12.690500 -21.025700
H -6.213100 -11.809900 -20.733500
C -6.120400 -12.657400 -16.764100
C -6.101700 -16.939600 -21.812500
C -5.970900 -14.850400 -21.122200
H -5.839700 -17.829600 -21.743800
N -5.644400 -13.731800 -20.399600
N -5.560300 -16.121100 -20.909700
O -5.480200 -12.968400 -15.530000
O -5.450000 -14.503600 -18.177800
C -5.223200 -11.809900 -17.613900
H -5.060200 -10.929300 -17.363300
C -4.852800 -13.689200 -19.146300
H -4.716300 -13.229400 -15.676800
C -4.661500 -12.280000 -18.703100
H -4.127000 -11.715600 -19.215200
H -3.967800 -14.061600 -19.341900
H -3.156500 -12.654000 -13.490200
H -3.049400 -14.001200 -11.729800
O -2.891400 -14.104900 -15.779100
C -2.658300 -13.436800 -13.545900
C -2.620800 -14.257000 -12.513800
H -2.587200 -16.251200 -12.304000
H -2.518300 -14.283400 -16.487900
C -1.922300 -15.574600 -12.547300
C -1.912200 -13.746200 -14.803900
H -1.449400 -12.936200 -15.104000
O -1.432600 -15.927300 -13.815100
C -0.888500 -14.825700 -14.544600
N -0.874800 -15.618800 -11.511000
N -0.867300 -18.014900 -11.047400
H -0.541400 -15.145300 -15.392200
H -0.535200 -19.727600 -10.247700
C -0.484200 -16.745800 -10.815900
C -0.305500 -18.830900 -10.157000
H -0.292800 -13.696000 -11.201800
C -0.206900 -14.577500 -10.918800
H -0.148300 -14.447400 -14.043600
C 0.390000 -16.307300 -9.848800
N 0.529000 -18.565700 -9.156600
N 0.561200 -14.930200 -9.923100
C 0.913400 -17.275400 -8.962900
N 1.742600 -16.993200 -7.965600
H 1.993600 -16.182300 -7.831600
H 2.028800 -17.622200 -7.453600
