28
Fragment
H -8.466400 -15.746200 -24.500200
H -8.412200 -14.300400 -24.145600
N -8.168300 -15.112200 -24.001100
C -7.331500 -15.387600 -23.007800
H -7.217500 -13.634000 -18.182800
N -6.980800 -13.041600 -22.066500
N -6.959600 -16.679600 -22.798000
H -6.958200 -14.513800 -16.909900
H -6.923300 -12.132900 -16.561200
C -6.801100 -14.408400 -22.136000
C -6.551500 -13.882200 -17.523400
C -6.278500 -12.690500 -21.025700
H -6.213100 -11.809900 -20.733500
C -6.120400 -12.657400 -16.764100
C -6.101700 -16.939600 -21.812500
C -5.970900 -14.850400 -21.122200
H -5.839700 -17.829600 -21.743800
N -5.644400 -13.731800 -20.399600
N -5.560300 -16.121100 -20.909700
O -5.480200 -12.968400 -15.530000
O -5.450000 -14.503600 -18.177800
C -5.223200 -11.809900 -17.613900
H -5.060200 -10.929300 -17.363300
C -4.852800 -13.689200 -19.146300
H -4.716300 -13.229400 -15.676800
C -4.661500 -12.280000 -18.703100
H -4.127000 -11.715600 -19.215200
H -3.967800 -14.061600 -19.341900
3
Fragment
H -2.312400 -15.745400 -18.461400
O -1.780100 -15.071400 -18.084300
H -1.585400 -14.735600 -18.734900
31
Fragment
H -8.466400 -15.746200 -24.500200
H -8.412200 -14.300400 -24.145600
N -8.168300 -15.112200 -24.001100
C -7.331500 -15.387600 -23.007800
H -7.217500 -13.634000 -18.182800
N -6.980800 -13.041600 -22.066500
N -6.959600 -16.679600 -22.798000
H -6.958200 -14.513800 -16.909900
H -6.923300 -12.132900 -16.561200
C -6.801100 -14.408400 -22.136000
C -6.551500 -13.882200 -17.523400
C -6.278500 -12.690500 -21.025700
H -6.213100 -11.809900 -20.733500
C -6.120400 -12.657400 -16.764100
C -6.101700 -16.939600 -21.812500
C -5.970900 -14.850400 -21.122200
H -5.839700 -17.829600 -21.743800
N -5.644400 -13.731800 -20.399600
N -5.560300 -16.121100 -20.909700
O -5.480200 -12.968400 -15.530000
O -5.450000 -14.503600 -18.177800
C -5.223200 -11.809900 -17.613900
H -5.060200 -10.929300 -17.363300
C -4.852800 -13.689200 -19.146300
H -4.716300 -13.229400 -15.676800
C -4.661500 -12.280000 -18.703100
H -4.127000 -11.715600 -19.215200
H -3.967800 -14.061600 -19.341900
H -2.312400 -15.745400 -18.461400
O -1.780100 -15.071400 -18.084300
H -1.585400 -14.735600 -18.734900
