28
Fragment
H -8.466400 -15.746200 -24.500200
H -8.412200 -14.300400 -24.145600
N -8.168300 -15.112200 -24.001100
C -7.331500 -15.387600 -23.007800
H -7.217500 -13.634000 -18.182800
N -6.980800 -13.041600 -22.066500
N -6.959600 -16.679600 -22.798000
H -6.958200 -14.513800 -16.909900
H -6.923300 -12.132900 -16.561200
C -6.801100 -14.408400 -22.136000
C -6.551500 -13.882200 -17.523400
C -6.278500 -12.690500 -21.025700
H -6.213100 -11.809900 -20.733500
C -6.120400 -12.657400 -16.764100
C -6.101700 -16.939600 -21.812500
C -5.970900 -14.850400 -21.122200
H -5.839700 -17.829600 -21.743800
N -5.644400 -13.731800 -20.399600
N -5.560300 -16.121100 -20.909700
O -5.480200 -12.968400 -15.530000
O -5.450000 -14.503600 -18.177800
C -5.223200 -11.809900 -17.613900
H -5.060200 -10.929300 -17.363300
C -4.852800 -13.689200 -19.146300
H -4.716300 -13.229400 -15.676800
C -4.661500 -12.280000 -18.703100
H -4.127000 -11.715600 -19.215200
H -3.967800 -14.061600 -19.341900
28
Fragment
H -12.379500 -18.311600 -28.366000
H -12.220400 -15.965600 -28.492800
C -11.685900 -16.530000 -29.004800
H -11.631000 -17.479400 -32.031100
C -11.494500 -17.939200 -28.561600
H -11.287100 -15.179300 -30.344600
C -11.124200 -16.059900 -30.094000
O -10.897400 -18.753600 -29.530100
O -10.867100 -17.218400 -32.177900
N -10.787100 -20.371100 -26.798200
N -10.702900 -17.981800 -27.308300
H -10.507700 -22.079600 -25.964100
C -10.376400 -19.100400 -26.585700
C -10.245600 -21.189600 -25.895400
C -10.226900 -16.907400 -30.943800
H -10.134200 -16.059900 -26.974400
C -10.068800 -16.940500 -26.682200
C -9.795900 -18.132200 -30.184500
C -9.546200 -18.658400 -25.571900
H -9.424100 -16.382900 -31.146800
H -9.389200 -18.763800 -30.798000
N -9.387800 -20.929600 -24.909900
N -9.366600 -17.291600 -25.641400
H -9.129800 -17.884000 -29.525200
C -9.015800 -19.637600 -24.700100
N -8.179100 -19.362200 -23.706900
H -7.935200 -18.550400 -23.562300
H -7.881000 -19.996200 -23.207700
56
Fragment
H -8.466400 -15.746200 -24.500200
H -8.412200 -14.300400 -24.145600
N -8.168300 -15.112200 -24.001100
C -7.331500 -15.387600 -23.007800
H -7.217500 -13.634000 -18.182800
N -6.980800 -13.041600 -22.066500
N -6.959600 -16.679600 -22.798000
H -6.958200 -14.513800 -16.909900
H -6.923300 -12.132900 -16.561200
C -6.801100 -14.408400 -22.136000
C -6.551500 -13.882200 -17.523400
C -6.278500 -12.690500 -21.025700
H -6.213100 -11.809900 -20.733500
C -6.120400 -12.657400 -16.764100
C -6.101700 -16.939600 -21.812500
C -5.970900 -14.850400 -21.122200
H -5.839700 -17.829600 -21.743800
N -5.644400 -13.731800 -20.399600
N -5.560300 -16.121100 -20.909700
O -5.480200 -12.968400 -15.530000
O -5.450000 -14.503600 -18.177800
C -5.223200 -11.809900 -17.613900
H -5.060200 -10.929300 -17.363300
C -4.852800 -13.689200 -19.146300
H -4.716300 -13.229400 -15.676800
C -4.661500 -12.280000 -18.703100
H -4.127000 -11.715600 -19.215200
H -3.967800 -14.061600 -19.341900
H -12.379500 -18.311600 -28.366000
H -12.220400 -15.965600 -28.492800
C -11.685900 -16.530000 -29.004800
H -11.631000 -17.479400 -32.031100
C -11.494500 -17.939200 -28.561600
H -11.287100 -15.179300 -30.344600
C -11.124200 -16.059900 -30.094000
O -10.897400 -18.753600 -29.530100
O -10.867100 -17.218400 -32.177900
N -10.787100 -20.371100 -26.798200
N -10.702900 -17.981800 -27.308300
H -10.507700 -22.079600 -25.964100
C -10.376400 -19.100400 -26.585700
C -10.245600 -21.189600 -25.895400
C -10.226900 -16.907400 -30.943800
H -10.134200 -16.059900 -26.974400
C -10.068800 -16.940500 -26.682200
C -9.795900 -18.132200 -30.184500
C -9.546200 -18.658400 -25.571900
H -9.424100 -16.382900 -31.146800
H -9.389200 -18.763800 -30.798000
N -9.387800 -20.929600 -24.909900
N -9.366600 -17.291600 -25.641400
H -9.129800 -17.884000 -29.525200
C -9.015800 -19.637600 -24.700100
N -8.179100 -19.362200 -23.706900
H -7.935200 -18.550400 -23.562300
H -7.881000 -19.996200 -23.207700
