28
Fragment
H -8.466400 -15.746200 -24.500200
H -8.412200 -14.300400 -24.145600
N -8.168300 -15.112200 -24.001100
C -7.331500 -15.387600 -23.007800
H -7.217500 -13.634000 -18.182800
N -6.980800 -13.041600 -22.066500
N -6.959600 -16.679600 -22.798000
H -6.958200 -14.513800 -16.909900
H -6.923300 -12.132900 -16.561200
C -6.801100 -14.408400 -22.136000
C -6.551500 -13.882200 -17.523400
C -6.278500 -12.690500 -21.025700
H -6.213100 -11.809900 -20.733500
C -6.120400 -12.657400 -16.764100
C -6.101700 -16.939600 -21.812500
C -5.970900 -14.850400 -21.122200
H -5.839700 -17.829600 -21.743800
N -5.644400 -13.731800 -20.399600
N -5.560300 -16.121100 -20.909700
O -5.480200 -12.968400 -15.530000
O -5.450000 -14.503600 -18.177800
C -5.223200 -11.809900 -17.613900
H -5.060200 -10.929300 -17.363300
C -4.852800 -13.689200 -19.146300
H -4.716300 -13.229400 -15.676800
C -4.661500 -12.280000 -18.703100
H -4.127000 -11.715600 -19.215200
H -3.967800 -14.061600 -19.341900
28
Fragment
H -8.605600 -12.654000 -29.392900
H -8.498500 -14.001200 -27.632400
O -8.340500 -14.104900 -31.681700
C -8.107400 -13.436800 -29.448500
C -8.069900 -14.257000 -28.416400
H -8.036300 -16.251200 -28.206700
H -7.967400 -14.283400 -32.390500
C -7.371400 -15.574600 -28.450000
C -7.361300 -13.746200 -30.706600
H -6.898500 -12.936200 -31.006700
O -6.881700 -15.927300 -29.717700
C -6.337600 -14.825700 -30.447200
N -6.323900 -15.618800 -27.413600
N -6.316400 -18.014900 -26.950100
H -5.990500 -15.145300 -31.294800
H -5.984300 -19.727600 -26.150300
C -5.933300 -16.745800 -26.718500
C -5.754700 -18.830900 -26.059700
H -5.741900 -13.696000 -27.104500
C -5.656000 -14.577500 -26.821400
H -5.597400 -14.447400 -29.946300
C -5.059100 -16.307300 -25.751500
N -4.920200 -18.565700 -25.059200
N -4.887900 -14.930200 -25.825700
C -4.535700 -17.275400 -24.865500
N -3.706600 -16.993200 -23.868300
H -3.455500 -16.182300 -23.734200
H -3.420300 -17.622200 -23.356200
56
Fragment
H -8.466400 -15.746200 -24.500200
H -8.412200 -14.300400 -24.145600
N -8.168300 -15.112200 -24.001100
C -7.331500 -15.387600 -23.007800
H -7.217500 -13.634000 -18.182800
N -6.980800 -13.041600 -22.066500
N -6.959600 -16.679600 -22.798000
H -6.958200 -14.513800 -16.909900
H -6.923300 -12.132900 -16.561200
C -6.801100 -14.408400 -22.136000
C -6.551500 -13.882200 -17.523400
C -6.278500 -12.690500 -21.025700
H -6.213100 -11.809900 -20.733500
C -6.120400 -12.657400 -16.764100
C -6.101700 -16.939600 -21.812500
C -5.970900 -14.850400 -21.122200
H -5.839700 -17.829600 -21.743800
N -5.644400 -13.731800 -20.399600
N -5.560300 -16.121100 -20.909700
O -5.480200 -12.968400 -15.530000
O -5.450000 -14.503600 -18.177800
C -5.223200 -11.809900 -17.613900
H -5.060200 -10.929300 -17.363300
C -4.852800 -13.689200 -19.146300
H -4.716300 -13.229400 -15.676800
C -4.661500 -12.280000 -18.703100
H -4.127000 -11.715600 -19.215200
H -3.967800 -14.061600 -19.341900
H -8.605600 -12.654000 -29.392900
H -8.498500 -14.001200 -27.632400
O -8.340500 -14.104900 -31.681700
C -8.107400 -13.436800 -29.448500
C -8.069900 -14.257000 -28.416400
H -8.036300 -16.251200 -28.206700
H -7.967400 -14.283400 -32.390500
C -7.371400 -15.574600 -28.450000
C -7.361300 -13.746200 -30.706600
H -6.898500 -12.936200 -31.006700
O -6.881700 -15.927300 -29.717700
C -6.337600 -14.825700 -30.447200
N -6.323900 -15.618800 -27.413600
N -6.316400 -18.014900 -26.950100
H -5.990500 -15.145300 -31.294800
H -5.984300 -19.727600 -26.150300
C -5.933300 -16.745800 -26.718500
C -5.754700 -18.830900 -26.059700
H -5.741900 -13.696000 -27.104500
C -5.656000 -14.577500 -26.821400
H -5.597400 -14.447400 -29.946300
C -5.059100 -16.307300 -25.751500
N -4.920200 -18.565700 -25.059200
N -4.887900 -14.930200 -25.825700
C -4.535700 -17.275400 -24.865500
N -3.706600 -16.993200 -23.868300
H -3.455500 -16.182300 -23.734200
H -3.420300 -17.622200 -23.356200
