24
Fragment
H -3.995100 -16.292400 -15.325000
H -3.940600 -17.801200 -15.684200
H -3.721300 -17.840700 -17.936100
C -3.416300 -17.019900 -15.535800
H -2.820000 -17.169100 -14.817300
C -2.799100 -17.600300 -17.870600
N -2.662500 -16.703400 -16.744700
H -2.539600 -17.135600 -18.650600
O -2.213900 -19.740100 -18.661800
H -2.008000 -12.285800 -16.624900
C -1.981800 -18.891900 -17.776400
C -1.854700 -15.664400 -16.793800
H -1.831700 -14.934900 -14.882800
N -1.702000 -14.812100 -15.772300
H -1.583200 -20.241300 -18.751900
H -1.516200 -12.211700 -15.155000
C -1.251800 -12.396400 -16.052700
N -1.139400 -15.332600 -17.904400
O -1.084600 -18.982200 -16.908400
C -0.747600 -13.793500 -16.152000
H -0.573200 -11.785600 -16.311700
C -0.446700 -14.223700 -17.590100
H 0.039900 -13.887800 -15.624900
O 0.285800 -13.591600 -18.334300
24
Fragment
H -3.995100 -26.438400 -15.325000
H -3.940600 -27.947200 -15.684200
H -3.721300 -27.986700 -17.936100
C -3.416300 -27.165900 -15.535800
H -2.820000 -27.315100 -14.817300
C -2.799100 -27.746300 -17.870600
N -2.662500 -26.849400 -16.744700
H -2.539600 -27.281600 -18.650600
O -2.213900 -29.886100 -18.661800
H -2.008000 -22.431800 -16.624900
C -1.981800 -29.037900 -17.776400
C -1.854700 -25.810400 -16.793800
H -1.831700 -25.080900 -14.882800
N -1.702000 -24.958100 -15.772300
H -1.583200 -30.387300 -18.751900
H -1.516200 -22.357700 -15.155000
C -1.251800 -22.542400 -16.052700
N -1.139400 -25.478600 -17.904400
O -1.084600 -29.128200 -16.908400
C -0.747600 -23.939500 -16.152000
H -0.573200 -21.931600 -16.311700
C -0.446700 -24.369700 -17.590100
H 0.039900 -24.033800 -15.624900
O 0.285800 -23.737600 -18.334300
48
Fragment
H -3.995100 -16.292400 -15.325000
H -3.940600 -17.801200 -15.684200
H -3.721300 -17.840700 -17.936100
C -3.416300 -17.019900 -15.535800
H -2.820000 -17.169100 -14.817300
C -2.799100 -17.600300 -17.870600
N -2.662500 -16.703400 -16.744700
H -2.539600 -17.135600 -18.650600
O -2.213900 -19.740100 -18.661800
H -2.008000 -12.285800 -16.624900
C -1.981800 -18.891900 -17.776400
C -1.854700 -15.664400 -16.793800
H -1.831700 -14.934900 -14.882800
N -1.702000 -14.812100 -15.772300
H -1.583200 -20.241300 -18.751900
H -1.516200 -12.211700 -15.155000
C -1.251800 -12.396400 -16.052700
N -1.139400 -15.332600 -17.904400
O -1.084600 -18.982200 -16.908400
C -0.747600 -13.793500 -16.152000
H -0.573200 -11.785600 -16.311700
C -0.446700 -14.223700 -17.590100
H 0.039900 -13.887800 -15.624900
O 0.285800 -13.591600 -18.334300
H -3.995100 -26.438400 -15.325000
H -3.940600 -27.947200 -15.684200
H -3.721300 -27.986700 -17.936100
C -3.416300 -27.165900 -15.535800
H -2.820000 -27.315100 -14.817300
C -2.799100 -27.746300 -17.870600
N -2.662500 -26.849400 -16.744700
H -2.539600 -27.281600 -18.650600
O -2.213900 -29.886100 -18.661800
H -2.008000 -22.431800 -16.624900
C -1.981800 -29.037900 -17.776400
C -1.854700 -25.810400 -16.793800
H -1.831700 -25.080900 -14.882800
N -1.702000 -24.958100 -15.772300
H -1.583200 -30.387300 -18.751900
H -1.516200 -22.357700 -15.155000
C -1.251800 -22.542400 -16.052700
N -1.139400 -25.478600 -17.904400
O -1.084600 -29.128200 -16.908400
C -0.747600 -23.939500 -16.152000
H -0.573200 -21.931600 -16.311700
C -0.446700 -24.369700 -17.590100
H 0.039900 -24.033800 -15.624900
O 0.285800 -23.737600 -18.334300
