24
Fragment
H -3.995100 -16.292400 -15.325000
H -3.940600 -17.801200 -15.684200
H -3.721300 -17.840700 -17.936100
C -3.416300 -17.019900 -15.535800
H -2.820000 -17.169100 -14.817300
C -2.799100 -17.600300 -17.870600
N -2.662500 -16.703400 -16.744700
H -2.539600 -17.135600 -18.650600
O -2.213900 -19.740100 -18.661800
H -2.008000 -12.285800 -16.624900
C -1.981800 -18.891900 -17.776400
C -1.854700 -15.664400 -16.793800
H -1.831700 -14.934900 -14.882800
N -1.702000 -14.812100 -15.772300
H -1.583200 -20.241300 -18.751900
H -1.516200 -12.211700 -15.155000
C -1.251800 -12.396400 -16.052700
N -1.139400 -15.332600 -17.904400
O -1.084600 -18.982200 -16.908400
C -0.747600 -13.793500 -16.152000
H -0.573200 -11.785600 -16.311700
C -0.446700 -14.223700 -17.590100
H 0.039900 -13.887800 -15.624900
O 0.285800 -13.591600 -18.334300
24
Fragment
H -8.745100 -16.292400 -15.325000
H -8.690600 -17.801200 -15.684200
H -8.471300 -17.840700 -17.936100
C -8.166300 -17.019900 -15.535800
H -7.570000 -17.169100 -14.817300
C -7.549100 -17.600300 -17.870600
N -7.412500 -16.703400 -16.744700
H -7.289600 -17.135600 -18.650600
O -6.963900 -19.740100 -18.661800
H -6.758000 -12.285800 -16.624900
C -6.731800 -18.891900 -17.776400
C -6.604700 -15.664400 -16.793800
H -6.581700 -14.934900 -14.882800
N -6.452000 -14.812100 -15.772300
H -6.333200 -20.241300 -18.751900
H -6.266200 -12.211700 -15.155000
C -6.001800 -12.396400 -16.052700
N -5.889400 -15.332600 -17.904400
O -5.834600 -18.982200 -16.908400
C -5.497600 -13.793500 -16.152000
H -5.323200 -11.785600 -16.311700
C -5.196700 -14.223700 -17.590100
H -4.710100 -13.887800 -15.624900
O -4.464200 -13.591600 -18.334300
48
Fragment
H -3.995100 -16.292400 -15.325000
H -3.940600 -17.801200 -15.684200
H -3.721300 -17.840700 -17.936100
C -3.416300 -17.019900 -15.535800
H -2.820000 -17.169100 -14.817300
C -2.799100 -17.600300 -17.870600
N -2.662500 -16.703400 -16.744700
H -2.539600 -17.135600 -18.650600
O -2.213900 -19.740100 -18.661800
H -2.008000 -12.285800 -16.624900
C -1.981800 -18.891900 -17.776400
C -1.854700 -15.664400 -16.793800
H -1.831700 -14.934900 -14.882800
N -1.702000 -14.812100 -15.772300
H -1.583200 -20.241300 -18.751900
H -1.516200 -12.211700 -15.155000
C -1.251800 -12.396400 -16.052700
N -1.139400 -15.332600 -17.904400
O -1.084600 -18.982200 -16.908400
C -0.747600 -13.793500 -16.152000
H -0.573200 -11.785600 -16.311700
C -0.446700 -14.223700 -17.590100
H 0.039900 -13.887800 -15.624900
O 0.285800 -13.591600 -18.334300
H -8.745100 -16.292400 -15.325000
H -8.690600 -17.801200 -15.684200
H -8.471300 -17.840700 -17.936100
C -8.166300 -17.019900 -15.535800
H -7.570000 -17.169100 -14.817300
C -7.549100 -17.600300 -17.870600
N -7.412500 -16.703400 -16.744700
H -7.289600 -17.135600 -18.650600
O -6.963900 -19.740100 -18.661800
H -6.758000 -12.285800 -16.624900
C -6.731800 -18.891900 -17.776400
C -6.604700 -15.664400 -16.793800
H -6.581700 -14.934900 -14.882800
N -6.452000 -14.812100 -15.772300
H -6.333200 -20.241300 -18.751900
H -6.266200 -12.211700 -15.155000
C -6.001800 -12.396400 -16.052700
N -5.889400 -15.332600 -17.904400
O -5.834600 -18.982200 -16.908400
C -5.497600 -13.793500 -16.152000
H -5.323200 -11.785600 -16.311700
C -5.196700 -14.223700 -17.590100
H -4.710100 -13.887800 -15.624900
O -4.464200 -13.591600 -18.334300
