24
Fragment
H -3.995100 -16.292400 -15.325000
H -3.940600 -17.801200 -15.684200
H -3.721300 -17.840700 -17.936100
C -3.416300 -17.019900 -15.535800
H -2.820000 -17.169100 -14.817300
C -2.799100 -17.600300 -17.870600
N -2.662500 -16.703400 -16.744700
H -2.539600 -17.135600 -18.650600
O -2.213900 -19.740100 -18.661800
H -2.008000 -12.285800 -16.624900
C -1.981800 -18.891900 -17.776400
C -1.854700 -15.664400 -16.793800
H -1.831700 -14.934900 -14.882800
N -1.702000 -14.812100 -15.772300
H -1.583200 -20.241300 -18.751900
H -1.516200 -12.211700 -15.155000
C -1.251800 -12.396400 -16.052700
N -1.139400 -15.332600 -17.904400
O -1.084600 -18.982200 -16.908400
C -0.747600 -13.793500 -16.152000
H -0.573200 -11.785600 -16.311700
C -0.446700 -14.223700 -17.590100
H 0.039900 -13.887800 -15.624900
O 0.285800 -13.591600 -18.334300
24
Fragment
H -2.975200 -14.145600 -20.442800
H -2.920800 -12.636800 -20.802100
H -2.701400 -12.597300 -23.054000
C -2.396500 -13.418100 -20.653700
H -1.800100 -13.268900 -19.935100
C -1.779200 -12.837700 -22.988500
N -1.642600 -13.734600 -21.862500
H -1.519800 -13.302400 -23.768400
O -1.194000 -10.697900 -23.779700
H -0.988200 -18.152200 -21.742800
C -0.962000 -11.546100 -22.894300
C -0.834800 -14.773600 -21.911700
H -0.811900 -15.503100 -20.000600
N -0.682100 -15.625900 -20.890100
H -0.563300 -10.196700 -23.869800
H -0.496400 -18.226300 -20.272900
C -0.232000 -18.041600 -21.170600
N -0.119500 -15.105400 -23.022200
O -0.064800 -11.455800 -22.026300
C 0.272300 -16.644500 -21.269900
H 0.446600 -18.652400 -21.429600
C 0.573100 -16.214300 -22.708000
H 1.059800 -16.550200 -20.742700
O 1.305700 -16.846400 -23.452100
48
Fragment
H -3.995100 -16.292400 -15.325000
H -3.940600 -17.801200 -15.684200
H -3.721300 -17.840700 -17.936100
C -3.416300 -17.019900 -15.535800
H -2.820000 -17.169100 -14.817300
C -2.799100 -17.600300 -17.870600
N -2.662500 -16.703400 -16.744700
H -2.539600 -17.135600 -18.650600
O -2.213900 -19.740100 -18.661800
H -2.008000 -12.285800 -16.624900
C -1.981800 -18.891900 -17.776400
C -1.854700 -15.664400 -16.793800
H -1.831700 -14.934900 -14.882800
N -1.702000 -14.812100 -15.772300
H -1.583200 -20.241300 -18.751900
H -1.516200 -12.211700 -15.155000
C -1.251800 -12.396400 -16.052700
N -1.139400 -15.332600 -17.904400
O -1.084600 -18.982200 -16.908400
C -0.747600 -13.793500 -16.152000
H -0.573200 -11.785600 -16.311700
C -0.446700 -14.223700 -17.590100
H 0.039900 -13.887800 -15.624900
O 0.285800 -13.591600 -18.334300
H -2.975200 -14.145600 -20.442800
H -2.920800 -12.636800 -20.802100
H -2.701400 -12.597300 -23.054000
C -2.396500 -13.418100 -20.653700
H -1.800100 -13.268900 -19.935100
C -1.779200 -12.837700 -22.988500
N -1.642600 -13.734600 -21.862500
H -1.519800 -13.302400 -23.768400
O -1.194000 -10.697900 -23.779700
H -0.988200 -18.152200 -21.742800
C -0.962000 -11.546100 -22.894300
C -0.834800 -14.773600 -21.911700
H -0.811900 -15.503100 -20.000600
N -0.682100 -15.625900 -20.890100
H -0.563300 -10.196700 -23.869800
H -0.496400 -18.226300 -20.272900
C -0.232000 -18.041600 -21.170600
N -0.119500 -15.105400 -23.022200
O -0.064800 -11.455800 -22.026300
C 0.272300 -16.644500 -21.269900
H 0.446600 -18.652400 -21.429600
C 0.573100 -16.214300 -22.708000
H 1.059800 -16.550200 -20.742700
O 1.305700 -16.846400 -23.452100
