26
Fragment
H -12.409200 -12.043300 -45.927000
H -12.320000 -13.968600 -47.144200
C -12.112800 -12.826700 -45.523400
C -12.061100 -13.978500 -46.251800
H -11.782900 -12.012700 -43.705500
C -11.732900 -12.801700 -44.194800
C -11.632100 -15.155200 -45.684800
H -11.611500 -15.940200 -46.183600
C -11.276700 -13.967600 -43.605300
C -11.230100 -15.152700 -44.361300
C -10.799500 -14.264400 -42.251400
H -10.790200 -12.639100 -41.070900
C -10.724400 -16.220300 -43.496100
C -10.591300 -13.547200 -41.104700
H -10.586900 -17.972900 -44.465800
C -10.484900 -15.631700 -42.243000
C -10.442500 -17.546200 -43.651600
C -10.074200 -14.205700 -39.980400
C -9.973400 -16.311700 -41.142800
H -9.933300 -13.715800 -39.202900
C -9.929000 -18.248800 -42.554300
C -9.769400 -15.532800 -39.980700
H -9.732700 -19.151200 -42.660400
C -9.703100 -17.677900 -41.340900
H -9.425300 -15.928600 -39.212300
H -9.369700 -18.191800 -40.642200
26
Fragment
H -12.375000 -22.323300 -37.582100
H -12.319400 -20.060100 -39.012000
C -12.041600 -21.809400 -36.883400
H -12.012000 -23.282700 -35.563900
C -11.975300 -19.664300 -38.243500
C -11.815700 -22.380300 -35.669900
H -11.811400 -17.847300 -39.021400
C -11.771300 -20.443200 -37.081400
C -11.670500 -18.337200 -38.243800
C -11.302200 -21.677700 -34.572600
C -11.259800 -19.763200 -35.981300
H -11.157800 -22.104400 -33.758500
C -11.153400 -17.678700 -37.119600
C -11.020300 -20.351800 -34.728100
H -10.954500 -16.770600 -37.153400
C -10.945200 -18.395900 -35.972800
C -10.514600 -19.284200 -33.863000
C -10.468000 -18.099100 -34.618900
H -10.133100 -20.071700 -32.040700
C -10.112500 -19.286700 -32.539400
C -10.011800 -16.933200 -34.029400
H -9.961800 -16.144200 -34.518800
C -9.683600 -18.110000 -31.972400
C -9.631800 -16.958200 -32.700900
H -9.424700 -18.100100 -31.080100
H -9.335400 -16.174800 -32.297200
52
Fragment
H -12.409200 -12.043300 -45.927000
H -12.320000 -13.968600 -47.144200
C -12.112800 -12.826700 -45.523400
C -12.061100 -13.978500 -46.251800
H -11.782900 -12.012700 -43.705500
C -11.732900 -12.801700 -44.194800
C -11.632100 -15.155200 -45.684800
H -11.611500 -15.940200 -46.183600
C -11.276700 -13.967600 -43.605300
C -11.230100 -15.152700 -44.361300
C -10.799500 -14.264400 -42.251400
H -10.790200 -12.639100 -41.070900
C -10.724400 -16.220300 -43.496100
C -10.591300 -13.547200 -41.104700
H -10.586900 -17.972900 -44.465800
C -10.484900 -15.631700 -42.243000
C -10.442500 -17.546200 -43.651600
C -10.074200 -14.205700 -39.980400
C -9.973400 -16.311700 -41.142800
H -9.933300 -13.715800 -39.202900
C -9.929000 -18.248800 -42.554300
C -9.769400 -15.532800 -39.980700
H -9.732700 -19.151200 -42.660400
C -9.703100 -17.677900 -41.340900
H -9.425300 -15.928600 -39.212300
H -9.369700 -18.191800 -40.642200
H -12.375000 -22.323300 -37.582100
H -12.319400 -20.060100 -39.012000
C -12.041600 -21.809400 -36.883400
H -12.012000 -23.282700 -35.563900
C -11.975300 -19.664300 -38.243500
C -11.815700 -22.380300 -35.669900
H -11.811400 -17.847300 -39.021400
C -11.771300 -20.443200 -37.081400
C -11.670500 -18.337200 -38.243800
C -11.302200 -21.677700 -34.572600
C -11.259800 -19.763200 -35.981300
H -11.157800 -22.104400 -33.758500
C -11.153400 -17.678700 -37.119600
C -11.020300 -20.351800 -34.728100
H -10.954500 -16.770600 -37.153400
C -10.945200 -18.395900 -35.972800
C -10.514600 -19.284200 -33.863000
C -10.468000 -18.099100 -34.618900
H -10.133100 -20.071700 -32.040700
C -10.112500 -19.286700 -32.539400
C -10.011800 -16.933200 -34.029400
H -9.961800 -16.144200 -34.518800
C -9.683600 -18.110000 -31.972400
C -9.631800 -16.958200 -32.700900
H -9.424700 -18.100100 -31.080100
H -9.335400 -16.174800 -32.297200
