26
Fragment
H -12.409200 -12.043300 -45.927000
H -12.320000 -13.968600 -47.144200
C -12.112800 -12.826700 -45.523400
C -12.061100 -13.978500 -46.251800
H -11.782900 -12.012700 -43.705500
C -11.732900 -12.801700 -44.194800
C -11.632100 -15.155200 -45.684800
H -11.611500 -15.940200 -46.183600
C -11.276700 -13.967600 -43.605300
C -11.230100 -15.152700 -44.361300
C -10.799500 -14.264400 -42.251400
H -10.790200 -12.639100 -41.070900
C -10.724400 -16.220300 -43.496100
C -10.591300 -13.547200 -41.104700
H -10.586900 -17.972900 -44.465800
C -10.484900 -15.631700 -42.243000
C -10.442500 -17.546200 -43.651600
C -10.074200 -14.205700 -39.980400
C -9.973400 -16.311700 -41.142800
H -9.933300 -13.715800 -39.202900
C -9.929000 -18.248800 -42.554300
C -9.769400 -15.532800 -39.980700
H -9.732700 -19.151200 -42.660400
C -9.703100 -17.677900 -41.340900
H -9.425300 -15.928600 -39.212300
H -9.369700 -18.191800 -40.642200
16
Fragment
N -15.628500 -14.172400 -52.205600
N -15.585900 -17.394400 -54.551400
C -15.320100 -15.186000 -51.792000
C -15.307200 -17.489800 -53.449100
C -14.935900 -17.598800 -52.071400
C -14.932000 -16.457100 -51.257500
H -14.580700 -19.579200 -52.084800
C -14.571300 -18.820800 -51.546300
C -14.547100 -16.560100 -49.933700
H -14.541600 -15.803800 -49.393900
C -14.191600 -18.919500 -50.221800
C -14.170600 -17.781100 -49.412400
C -13.838800 -20.198800 -49.674900
C -13.766000 -17.877200 -48.038500
N -13.575600 -21.218700 -49.248700
N -13.440600 -17.949600 -46.947700
42
Fragment
H -12.409200 -12.043300 -45.927000
H -12.320000 -13.968600 -47.144200
C -12.112800 -12.826700 -45.523400
C -12.061100 -13.978500 -46.251800
H -11.782900 -12.012700 -43.705500
C -11.732900 -12.801700 -44.194800
C -11.632100 -15.155200 -45.684800
H -11.611500 -15.940200 -46.183600
C -11.276700 -13.967600 -43.605300
C -11.230100 -15.152700 -44.361300
C -10.799500 -14.264400 -42.251400
H -10.790200 -12.639100 -41.070900
C -10.724400 -16.220300 -43.496100
C -10.591300 -13.547200 -41.104700
H -10.586900 -17.972900 -44.465800
C -10.484900 -15.631700 -42.243000
C -10.442500 -17.546200 -43.651600
C -10.074200 -14.205700 -39.980400
C -9.973400 -16.311700 -41.142800
H -9.933300 -13.715800 -39.202900
C -9.929000 -18.248800 -42.554300
C -9.769400 -15.532800 -39.980700
H -9.732700 -19.151200 -42.660400
C -9.703100 -17.677900 -41.340900
H -9.425300 -15.928600 -39.212300
H -9.369700 -18.191800 -40.642200
N -15.628500 -14.172400 -52.205600
N -15.585900 -17.394400 -54.551400
C -15.320100 -15.186000 -51.792000
C -15.307200 -17.489800 -53.449100
C -14.935900 -17.598800 -52.071400
C -14.932000 -16.457100 -51.257500
H -14.580700 -19.579200 -52.084800
C -14.571300 -18.820800 -51.546300
C -14.547100 -16.560100 -49.933700
H -14.541600 -15.803800 -49.393900
C -14.191600 -18.919500 -50.221800
C -14.170600 -17.781100 -49.412400
C -13.838800 -20.198800 -49.674900
C -13.766000 -17.877200 -48.038500
N -13.575600 -21.218700 -49.248700
N -13.440600 -17.949600 -46.947700
