26
Fragment
H -12.409200 -12.043300 -45.927000
H -12.320000 -13.968600 -47.144200
C -12.112800 -12.826700 -45.523400
C -12.061100 -13.978500 -46.251800
H -11.782900 -12.012700 -43.705500
C -11.732900 -12.801700 -44.194800
C -11.632100 -15.155200 -45.684800
H -11.611500 -15.940200 -46.183600
C -11.276700 -13.967600 -43.605300
C -11.230100 -15.152700 -44.361300
C -10.799500 -14.264400 -42.251400
H -10.790200 -12.639100 -41.070900
C -10.724400 -16.220300 -43.496100
C -10.591300 -13.547200 -41.104700
H -10.586900 -17.972900 -44.465800
C -10.484900 -15.631700 -42.243000
C -10.442500 -17.546200 -43.651600
C -10.074200 -14.205700 -39.980400
C -9.973400 -16.311700 -41.142800
H -9.933300 -13.715800 -39.202900
C -9.929000 -18.248800 -42.554300
C -9.769400 -15.532800 -39.980700
H -9.732700 -19.151200 -42.660400
C -9.703100 -17.677900 -41.340900
H -9.425300 -15.928600 -39.212300
H -9.369700 -18.191800 -40.642200
16
Fragment
N -8.334700 -23.011100 -36.560800
N -8.292100 -19.789100 -38.906600
C -8.026300 -21.997500 -36.147100
C -8.013500 -19.693700 -37.804200
C -7.642200 -19.584700 -36.426500
C -7.638200 -20.726400 -35.612700
H -7.286900 -17.604300 -36.440000
C -7.277600 -18.362700 -35.901500
C -7.253300 -20.623400 -34.288800
H -7.247900 -21.379700 -33.749100
C -6.897900 -18.264000 -34.577000
C -6.876900 -19.402400 -33.767500
C -6.545000 -16.984700 -34.030100
C -6.472300 -19.306300 -32.393600
N -6.281900 -15.964800 -33.603900
N -6.146900 -19.233900 -31.302800
42
Fragment
H -12.409200 -12.043300 -45.927000
H -12.320000 -13.968600 -47.144200
C -12.112800 -12.826700 -45.523400
C -12.061100 -13.978500 -46.251800
H -11.782900 -12.012700 -43.705500
C -11.732900 -12.801700 -44.194800
C -11.632100 -15.155200 -45.684800
H -11.611500 -15.940200 -46.183600
C -11.276700 -13.967600 -43.605300
C -11.230100 -15.152700 -44.361300
C -10.799500 -14.264400 -42.251400
H -10.790200 -12.639100 -41.070900
C -10.724400 -16.220300 -43.496100
C -10.591300 -13.547200 -41.104700
H -10.586900 -17.972900 -44.465800
C -10.484900 -15.631700 -42.243000
C -10.442500 -17.546200 -43.651600
C -10.074200 -14.205700 -39.980400
C -9.973400 -16.311700 -41.142800
H -9.933300 -13.715800 -39.202900
C -9.929000 -18.248800 -42.554300
C -9.769400 -15.532800 -39.980700
H -9.732700 -19.151200 -42.660400
C -9.703100 -17.677900 -41.340900
H -9.425300 -15.928600 -39.212300
H -9.369700 -18.191800 -40.642200
N -8.334700 -23.011100 -36.560800
N -8.292100 -19.789100 -38.906600
C -8.026300 -21.997500 -36.147100
C -8.013500 -19.693700 -37.804200
C -7.642200 -19.584700 -36.426500
C -7.638200 -20.726400 -35.612700
H -7.286900 -17.604300 -36.440000
C -7.277600 -18.362700 -35.901500
C -7.253300 -20.623400 -34.288800
H -7.247900 -21.379700 -33.749100
C -6.897900 -18.264000 -34.577000
C -6.876900 -19.402400 -33.767500
C -6.545000 -16.984700 -34.030100
C -6.472300 -19.306300 -32.393600
N -6.281900 -15.964800 -33.603900
N -6.146900 -19.233900 -31.302800
