26
Fragment
H -12.409200 -12.043300 -45.927000
H -12.320000 -13.968600 -47.144200
C -12.112800 -12.826700 -45.523400
C -12.061100 -13.978500 -46.251800
H -11.782900 -12.012700 -43.705500
C -11.732900 -12.801700 -44.194800
C -11.632100 -15.155200 -45.684800
H -11.611500 -15.940200 -46.183600
C -11.276700 -13.967600 -43.605300
C -11.230100 -15.152700 -44.361300
C -10.799500 -14.264400 -42.251400
H -10.790200 -12.639100 -41.070900
C -10.724400 -16.220300 -43.496100
C -10.591300 -13.547200 -41.104700
H -10.586900 -17.972900 -44.465800
C -10.484900 -15.631700 -42.243000
C -10.442500 -17.546200 -43.651600
C -10.074200 -14.205700 -39.980400
C -9.973400 -16.311700 -41.142800
H -9.933300 -13.715800 -39.202900
C -9.929000 -18.248800 -42.554300
C -9.769400 -15.532800 -39.980700
H -9.732700 -19.151200 -42.660400
C -9.703100 -17.677900 -41.340900
H -9.425300 -15.928600 -39.212300
H -9.369700 -18.191800 -40.642200
26
Fragment
H -12.409200 -20.306300 -45.927000
H -12.320000 -22.231600 -47.144200
C -12.112800 -21.089700 -45.523400
C -12.061100 -22.241500 -46.251800
H -11.782900 -20.275700 -43.705500
C -11.732900 -21.064700 -44.194800
C -11.632100 -23.418200 -45.684800
H -11.611500 -24.203200 -46.183600
C -11.276700 -22.230600 -43.605300
C -11.230100 -23.415700 -44.361300
C -10.799500 -22.527400 -42.251400
H -10.790200 -20.902100 -41.070900
C -10.724400 -24.483300 -43.496100
C -10.591300 -21.810200 -41.104700
H -10.586900 -26.235900 -44.465800
C -10.484900 -23.894700 -42.243000
C -10.442500 -25.809200 -43.651600
C -10.074200 -22.468700 -39.980400
C -9.973400 -24.574700 -41.142800
H -9.933300 -21.978800 -39.202900
C -9.929000 -26.511800 -42.554300
C -9.769400 -23.795800 -39.980700
H -9.732700 -27.414200 -42.660400
C -9.703100 -25.940900 -41.340900
H -9.425300 -24.191600 -39.212300
H -9.369700 -26.454800 -40.642200
52
Fragment
H -12.409200 -12.043300 -45.927000
H -12.320000 -13.968600 -47.144200
C -12.112800 -12.826700 -45.523400
C -12.061100 -13.978500 -46.251800
H -11.782900 -12.012700 -43.705500
C -11.732900 -12.801700 -44.194800
C -11.632100 -15.155200 -45.684800
H -11.611500 -15.940200 -46.183600
C -11.276700 -13.967600 -43.605300
C -11.230100 -15.152700 -44.361300
C -10.799500 -14.264400 -42.251400
H -10.790200 -12.639100 -41.070900
C -10.724400 -16.220300 -43.496100
C -10.591300 -13.547200 -41.104700
H -10.586900 -17.972900 -44.465800
C -10.484900 -15.631700 -42.243000
C -10.442500 -17.546200 -43.651600
C -10.074200 -14.205700 -39.980400
C -9.973400 -16.311700 -41.142800
H -9.933300 -13.715800 -39.202900
C -9.929000 -18.248800 -42.554300
C -9.769400 -15.532800 -39.980700
H -9.732700 -19.151200 -42.660400
C -9.703100 -17.677900 -41.340900
H -9.425300 -15.928600 -39.212300
H -9.369700 -18.191800 -40.642200
H -12.409200 -20.306300 -45.927000
H -12.320000 -22.231600 -47.144200
C -12.112800 -21.089700 -45.523400
C -12.061100 -22.241500 -46.251800
H -11.782900 -20.275700 -43.705500
C -11.732900 -21.064700 -44.194800
C -11.632100 -23.418200 -45.684800
H -11.611500 -24.203200 -46.183600
C -11.276700 -22.230600 -43.605300
C -11.230100 -23.415700 -44.361300
C -10.799500 -22.527400 -42.251400
H -10.790200 -20.902100 -41.070900
C -10.724400 -24.483300 -43.496100
C -10.591300 -21.810200 -41.104700
H -10.586900 -26.235900 -44.465800
C -10.484900 -23.894700 -42.243000
C -10.442500 -25.809200 -43.651600
C -10.074200 -22.468700 -39.980400
C -9.973400 -24.574700 -41.142800
H -9.933300 -21.978800 -39.202900
C -9.929000 -26.511800 -42.554300
C -9.769400 -23.795800 -39.980700
H -9.732700 -27.414200 -42.660400
C -9.703100 -25.940900 -41.340900
H -9.425300 -24.191600 -39.212300
H -9.369700 -26.454800 -40.642200
