38
Fragment
N -26.602800 -9.701400 -35.675800
H -26.315200 -7.676600 -35.740300
H -25.985100 -11.509000 -35.115300
C -25.983500 -8.499700 -35.463800
C -25.812300 -10.596000 -35.126000
C -24.822900 -8.678500 -34.794600
H -24.783400 -12.061700 -32.960700
N -24.715800 -10.024000 -34.576900
H -24.219100 -8.020300 -34.535600
C -23.908600 -11.768400 -33.079100
C -23.641800 -10.702300 -33.914900
H -23.055000 -13.121300 -31.864900
C -22.870600 -12.396200 -32.418400
C -22.341300 -10.274300 -34.107900
H -22.234800 -12.259700 -30.029000
H -22.160400 -9.568500 -34.685700
H -21.576300 -12.930600 -28.873500
N -21.569000 -12.695000 -29.701000
C -21.551100 -11.967300 -32.563500
C -21.313100 -10.904000 -33.433000
C -20.495000 -13.013100 -30.497700
H -20.440500 -10.611600 -33.563100
C -20.435100 -12.650100 -31.867400
H -19.473400 -13.983800 -29.048300
C -19.430200 -13.718900 -29.938700
C -19.274000 -12.952600 -32.567000
H -19.207900 -12.682200 -33.454200
C -18.310700 -14.031500 -30.690800
C -18.215900 -13.632700 -32.009200
H -18.050500 -16.100300 -28.776900
H -17.455100 -13.819700 -32.508400
C -17.285000 -15.738200 -29.162200
N -17.226000 -14.745500 -30.093900
C -16.005800 -16.088300 -28.913800
C -15.914000 -14.539300 -30.345600
H -15.751400 -16.758400 -28.320500
H -15.596200 -13.905900 -30.948000
N -15.136000 -15.333100 -29.643700
38
Fragment
N -31.847100 -12.165200 -32.034300
H -31.386900 -13.592400 -30.730000
H -31.231600 -10.739900 -33.357500
C -31.069000 -12.959000 -31.332400
C -30.977300 -11.410000 -32.764200
N -29.757100 -12.752800 -31.584100
C -29.698000 -11.760100 -32.515800
H -29.528000 -13.678600 -29.169600
H -28.932600 -11.398000 -32.901100
C -28.767100 -13.865600 -29.668800
C -28.672400 -13.466800 -30.987200
H -27.775100 -14.816100 -28.223900
C -27.709100 -14.545700 -29.111000
C -27.552800 -13.779400 -31.739300
H -27.509700 -13.514500 -32.629700
C -26.548000 -14.848200 -29.810600
H -26.542600 -16.886700 -28.114900
C -26.488100 -14.485200 -31.180300
C -25.670000 -16.594300 -28.245000
C -25.431900 -15.531000 -29.114500
N -25.414000 -14.803300 -31.977000
H -25.406700 -14.567700 -32.804500
H -24.822600 -17.929800 -26.992400
H -24.748200 -15.238600 -31.649000
C -24.641800 -17.224000 -27.570100
C -24.112400 -15.102100 -29.259600
H -23.928100 -14.377000 -29.813100
C -23.341300 -16.796000 -27.763100
C -23.074500 -15.729900 -28.598900
H -22.764000 -19.478000 -27.142400
N -22.267300 -17.474300 -27.101100
H -22.199600 -15.436600 -28.717300
C -22.160100 -18.819800 -26.883400
C -21.170800 -16.902300 -26.552000
C -20.999600 -18.998600 -26.214200
H -20.998000 -15.989300 -26.562700
H -20.667900 -19.821700 -25.937700
N -20.380300 -17.796900 -26.002200
76
Fragment
N -26.602800 -9.701400 -35.675800
H -26.315200 -7.676600 -35.740300
H -25.985100 -11.509000 -35.115300
C -25.983500 -8.499700 -35.463800
C -25.812300 -10.596000 -35.126000
C -24.822900 -8.678500 -34.794600
H -24.783400 -12.061700 -32.960700
N -24.715800 -10.024000 -34.576900
H -24.219100 -8.020300 -34.535600
C -23.908600 -11.768400 -33.079100
C -23.641800 -10.702300 -33.914900
H -23.055000 -13.121300 -31.864900
C -22.870600 -12.396200 -32.418400
C -22.341300 -10.274300 -34.107900
H -22.234800 -12.259700 -30.029000
H -22.160400 -9.568500 -34.685700
H -21.576300 -12.930600 -28.873500
N -21.569000 -12.695000 -29.701000
C -21.551100 -11.967300 -32.563500
C -21.313100 -10.904000 -33.433000
C -20.495000 -13.013100 -30.497700
H -20.440500 -10.611600 -33.563100
C -20.435100 -12.650100 -31.867400
H -19.473400 -13.983800 -29.048300
C -19.430200 -13.718900 -29.938700
C -19.274000 -12.952600 -32.567000
H -19.207900 -12.682200 -33.454200
C -18.310700 -14.031500 -30.690800
C -18.215900 -13.632700 -32.009200
H -18.050500 -16.100300 -28.776900
H -17.455100 -13.819700 -32.508400
C -17.285000 -15.738200 -29.162200
N -17.226000 -14.745500 -30.093900
C -16.005800 -16.088300 -28.913800
C -15.914000 -14.539300 -30.345600
H -15.751400 -16.758400 -28.320500
H -15.596200 -13.905900 -30.948000
N -15.136000 -15.333100 -29.643700
N -31.847100 -12.165200 -32.034300
H -31.386900 -13.592400 -30.730000
H -31.231600 -10.739900 -33.357500
C -31.069000 -12.959000 -31.332400
C -30.977300 -11.410000 -32.764200
N -29.757100 -12.752800 -31.584100
C -29.698000 -11.760100 -32.515800
H -29.528000 -13.678600 -29.169600
H -28.932600 -11.398000 -32.901100
C -28.767100 -13.865600 -29.668800
C -28.672400 -13.466800 -30.987200
H -27.775100 -14.816100 -28.223900
C -27.709100 -14.545700 -29.111000
C -27.552800 -13.779400 -31.739300
H -27.509700 -13.514500 -32.629700
C -26.548000 -14.848200 -29.810600
H -26.542600 -16.886700 -28.114900
C -26.488100 -14.485200 -31.180300
C -25.670000 -16.594300 -28.245000
C -25.431900 -15.531000 -29.114500
N -25.414000 -14.803300 -31.977000
H -25.406700 -14.567700 -32.804500
H -24.822600 -17.929800 -26.992400
H -24.748200 -15.238600 -31.649000
C -24.641800 -17.224000 -27.570100
C -24.112400 -15.102100 -29.259600
H -23.928100 -14.377000 -29.813100
C -23.341300 -16.796000 -27.763100
C -23.074500 -15.729900 -28.598900
H -22.764000 -19.478000 -27.142400
N -22.267300 -17.474300 -27.101100
H -22.199600 -15.436600 -28.717300
C -22.160100 -18.819800 -26.883400
C -21.170800 -16.902300 -26.552000
C -20.999600 -18.998600 -26.214200
H -20.998000 -15.989300 -26.562700
H -20.667900 -19.821700 -25.937700
N -20.380300 -17.796900 -26.002200
