38
Fragment
N -26.602800 -9.701400 -35.675800
H -26.315200 -7.676600 -35.740300
H -25.985100 -11.509000 -35.115300
C -25.983500 -8.499700 -35.463800
C -25.812300 -10.596000 -35.126000
C -24.822900 -8.678500 -34.794600
H -24.783400 -12.061700 -32.960700
N -24.715800 -10.024000 -34.576900
H -24.219100 -8.020300 -34.535600
C -23.908600 -11.768400 -33.079100
C -23.641800 -10.702300 -33.914900
H -23.055000 -13.121300 -31.864900
C -22.870600 -12.396200 -32.418400
C -22.341300 -10.274300 -34.107900
H -22.234800 -12.259700 -30.029000
H -22.160400 -9.568500 -34.685700
H -21.576300 -12.930600 -28.873500
N -21.569000 -12.695000 -29.701000
C -21.551100 -11.967300 -32.563500
C -21.313100 -10.904000 -33.433000
C -20.495000 -13.013100 -30.497700
H -20.440500 -10.611600 -33.563100
C -20.435100 -12.650100 -31.867400
H -19.473400 -13.983800 -29.048300
C -19.430200 -13.718900 -29.938700
C -19.274000 -12.952600 -32.567000
H -19.207900 -12.682200 -33.454200
C -18.310700 -14.031500 -30.690800
C -18.215900 -13.632700 -32.009200
H -18.050500 -16.100300 -28.776900
H -17.455100 -13.819700 -32.508400
C -17.285000 -15.738200 -29.162200
N -17.226000 -14.745500 -30.093900
C -16.005800 -16.088300 -28.913800
C -15.914000 -14.539300 -30.345600
H -15.751400 -16.758400 -28.320500
H -15.596200 -13.905900 -30.948000
N -15.136000 -15.333100 -29.643700
38
Fragment
N -30.668600 -15.333100 -42.314000
H -30.208400 -13.905900 -41.009700
H -30.053100 -16.758400 -43.637200
C -29.890500 -14.539300 -41.612100
C -29.798800 -16.088300 -43.043800
N -28.578600 -14.745500 -41.863700
C -28.519500 -15.738200 -42.795500
H -28.349500 -13.819700 -39.449300
H -27.754100 -16.100300 -43.180800
C -27.588600 -13.632700 -39.948400
C -27.493900 -14.031500 -41.266900
H -26.596600 -12.682200 -38.503500
C -26.530600 -12.952600 -39.390700
C -26.374300 -13.718900 -42.019000
H -26.331200 -13.983800 -42.909400
C -25.369500 -12.650100 -40.090300
H -25.364100 -10.611600 -38.394600
C -25.309600 -13.013100 -41.460000
C -24.491500 -10.904000 -38.524700
C -24.253400 -11.967300 -39.394200
N -24.235600 -12.695000 -42.256600
H -24.228200 -12.930600 -43.084100
H -23.644100 -9.568500 -37.272000
H -23.569700 -12.259700 -41.928700
C -23.463300 -10.274300 -37.849700
C -22.933900 -12.396200 -39.539300
H -22.749600 -13.121300 -40.092800
C -22.162800 -10.702300 -38.042800
C -21.896000 -11.768400 -38.878500
H -21.585500 -8.020300 -37.422100
N -21.088800 -10.024000 -37.380800
H -21.021100 -12.061700 -38.996900
C -20.981700 -8.678500 -37.163100
C -19.992300 -10.596000 -36.831600
C -19.821100 -8.499700 -36.493800
H -19.819500 -11.509000 -36.842300
H -19.489400 -7.676600 -36.217300
N -19.201800 -9.701400 -36.281900
76
Fragment
N -26.602800 -9.701400 -35.675800
H -26.315200 -7.676600 -35.740300
H -25.985100 -11.509000 -35.115300
C -25.983500 -8.499700 -35.463800
C -25.812300 -10.596000 -35.126000
C -24.822900 -8.678500 -34.794600
H -24.783400 -12.061700 -32.960700
N -24.715800 -10.024000 -34.576900
H -24.219100 -8.020300 -34.535600
C -23.908600 -11.768400 -33.079100
C -23.641800 -10.702300 -33.914900
H -23.055000 -13.121300 -31.864900
C -22.870600 -12.396200 -32.418400
C -22.341300 -10.274300 -34.107900
H -22.234800 -12.259700 -30.029000
H -22.160400 -9.568500 -34.685700
H -21.576300 -12.930600 -28.873500
N -21.569000 -12.695000 -29.701000
C -21.551100 -11.967300 -32.563500
C -21.313100 -10.904000 -33.433000
C -20.495000 -13.013100 -30.497700
H -20.440500 -10.611600 -33.563100
C -20.435100 -12.650100 -31.867400
H -19.473400 -13.983800 -29.048300
C -19.430200 -13.718900 -29.938700
C -19.274000 -12.952600 -32.567000
H -19.207900 -12.682200 -33.454200
C -18.310700 -14.031500 -30.690800
C -18.215900 -13.632700 -32.009200
H -18.050500 -16.100300 -28.776900
H -17.455100 -13.819700 -32.508400
C -17.285000 -15.738200 -29.162200
N -17.226000 -14.745500 -30.093900
C -16.005800 -16.088300 -28.913800
C -15.914000 -14.539300 -30.345600
H -15.751400 -16.758400 -28.320500
H -15.596200 -13.905900 -30.948000
N -15.136000 -15.333100 -29.643700
N -30.668600 -15.333100 -42.314000
H -30.208400 -13.905900 -41.009700
H -30.053100 -16.758400 -43.637200
C -29.890500 -14.539300 -41.612100
C -29.798800 -16.088300 -43.043800
N -28.578600 -14.745500 -41.863700
C -28.519500 -15.738200 -42.795500
H -28.349500 -13.819700 -39.449300
H -27.754100 -16.100300 -43.180800
C -27.588600 -13.632700 -39.948400
C -27.493900 -14.031500 -41.266900
H -26.596600 -12.682200 -38.503500
C -26.530600 -12.952600 -39.390700
C -26.374300 -13.718900 -42.019000
H -26.331200 -13.983800 -42.909400
C -25.369500 -12.650100 -40.090300
H -25.364100 -10.611600 -38.394600
C -25.309600 -13.013100 -41.460000
C -24.491500 -10.904000 -38.524700
C -24.253400 -11.967300 -39.394200
N -24.235600 -12.695000 -42.256600
H -24.228200 -12.930600 -43.084100
H -23.644100 -9.568500 -37.272000
H -23.569700 -12.259700 -41.928700
C -23.463300 -10.274300 -37.849700
C -22.933900 -12.396200 -39.539300
H -22.749600 -13.121300 -40.092800
C -22.162800 -10.702300 -38.042800
C -21.896000 -11.768400 -38.878500
H -21.585500 -8.020300 -37.422100
N -21.088800 -10.024000 -37.380800
H -21.021100 -12.061700 -38.996900
C -20.981700 -8.678500 -37.163100
C -19.992300 -10.596000 -36.831600
C -19.821100 -8.499700 -36.493800
H -19.819500 -11.509000 -36.842300
H -19.489400 -7.676600 -36.217300
N -19.201800 -9.701400 -36.281900
