38
Fragment
N -26.602800 -9.701400 -35.675800
H -26.315200 -7.676600 -35.740300
H -25.985100 -11.509000 -35.115300
C -25.983500 -8.499700 -35.463800
C -25.812300 -10.596000 -35.126000
C -24.822900 -8.678500 -34.794600
H -24.783400 -12.061700 -32.960700
N -24.715800 -10.024000 -34.576900
H -24.219100 -8.020300 -34.535600
C -23.908600 -11.768400 -33.079100
C -23.641800 -10.702300 -33.914900
H -23.055000 -13.121300 -31.864900
C -22.870600 -12.396200 -32.418400
C -22.341300 -10.274300 -34.107900
H -22.234800 -12.259700 -30.029000
H -22.160400 -9.568500 -34.685700
H -21.576300 -12.930600 -28.873500
N -21.569000 -12.695000 -29.701000
C -21.551100 -11.967300 -32.563500
C -21.313100 -10.904000 -33.433000
C -20.495000 -13.013100 -30.497700
H -20.440500 -10.611600 -33.563100
C -20.435100 -12.650100 -31.867400
H -19.473400 -13.983800 -29.048300
C -19.430200 -13.718900 -29.938700
C -19.274000 -12.952600 -32.567000
H -19.207900 -12.682200 -33.454200
C -18.310700 -14.031500 -30.690800
C -18.215900 -13.632700 -32.009200
H -18.050500 -16.100300 -28.776900
H -17.455100 -13.819700 -32.508400
C -17.285000 -15.738200 -29.162200
N -17.226000 -14.745500 -30.093900
C -16.005800 -16.088300 -28.913800
C -15.914000 -14.539300 -30.345600
H -15.751400 -16.758400 -28.320500
H -15.596200 -13.905900 -30.948000
N -15.136000 -15.333100 -29.643700
38
Fragment
N -35.611800 -5.118400 -35.675800
H -35.324200 -3.093600 -35.740300
H -34.994100 -6.925900 -35.115300
C -34.992500 -3.916700 -35.463800
C -34.821300 -6.013000 -35.126000
C -33.831900 -4.095400 -34.794600
H -33.792400 -7.478600 -32.960700
N -33.724800 -5.441000 -34.576900
H -33.228100 -3.437300 -34.535600
C -32.917600 -7.185300 -33.079100
C -32.650800 -6.119300 -33.914900
H -32.064000 -8.538200 -31.864900
C -31.879600 -7.813200 -32.418400
C -31.350300 -5.691200 -34.107900
H -31.243800 -7.676600 -30.029000
H -31.169400 -4.985400 -34.685700
H -30.585300 -8.347600 -28.873500
N -30.578000 -8.112000 -29.701000
C -30.560100 -7.384200 -32.563500
C -30.322100 -6.320900 -33.433000
C -29.504000 -8.430100 -30.497700
H -29.449500 -6.028500 -33.563100
C -29.444100 -8.067100 -31.867400
H -28.482400 -9.400800 -29.048300
C -28.439200 -9.135900 -29.938700
C -28.283000 -8.369600 -32.567000
H -28.216900 -8.099200 -33.454200
C -27.319700 -9.448400 -30.690800
C -27.224900 -9.049700 -32.009200
H -27.059500 -11.517200 -28.776900
H -26.464100 -9.236700 -32.508400
C -26.294000 -11.155100 -29.162200
N -26.235000 -10.162500 -30.093900
C -25.014800 -11.505300 -28.913800
C -24.923000 -9.956200 -30.345600
H -24.760400 -12.175300 -28.320500
H -24.605200 -9.322800 -30.948000
N -24.145000 -10.750000 -29.643700
76
Fragment
N -26.602800 -9.701400 -35.675800
H -26.315200 -7.676600 -35.740300
H -25.985100 -11.509000 -35.115300
C -25.983500 -8.499700 -35.463800
C -25.812300 -10.596000 -35.126000
C -24.822900 -8.678500 -34.794600
H -24.783400 -12.061700 -32.960700
N -24.715800 -10.024000 -34.576900
H -24.219100 -8.020300 -34.535600
C -23.908600 -11.768400 -33.079100
C -23.641800 -10.702300 -33.914900
H -23.055000 -13.121300 -31.864900
C -22.870600 -12.396200 -32.418400
C -22.341300 -10.274300 -34.107900
H -22.234800 -12.259700 -30.029000
H -22.160400 -9.568500 -34.685700
H -21.576300 -12.930600 -28.873500
N -21.569000 -12.695000 -29.701000
C -21.551100 -11.967300 -32.563500
C -21.313100 -10.904000 -33.433000
C -20.495000 -13.013100 -30.497700
H -20.440500 -10.611600 -33.563100
C -20.435100 -12.650100 -31.867400
H -19.473400 -13.983800 -29.048300
C -19.430200 -13.718900 -29.938700
C -19.274000 -12.952600 -32.567000
H -19.207900 -12.682200 -33.454200
C -18.310700 -14.031500 -30.690800
C -18.215900 -13.632700 -32.009200
H -18.050500 -16.100300 -28.776900
H -17.455100 -13.819700 -32.508400
C -17.285000 -15.738200 -29.162200
N -17.226000 -14.745500 -30.093900
C -16.005800 -16.088300 -28.913800
C -15.914000 -14.539300 -30.345600
H -15.751400 -16.758400 -28.320500
H -15.596200 -13.905900 -30.948000
N -15.136000 -15.333100 -29.643700
N -35.611800 -5.118400 -35.675800
H -35.324200 -3.093600 -35.740300
H -34.994100 -6.925900 -35.115300
C -34.992500 -3.916700 -35.463800
C -34.821300 -6.013000 -35.126000
C -33.831900 -4.095400 -34.794600
H -33.792400 -7.478600 -32.960700
N -33.724800 -5.441000 -34.576900
H -33.228100 -3.437300 -34.535600
C -32.917600 -7.185300 -33.079100
C -32.650800 -6.119300 -33.914900
H -32.064000 -8.538200 -31.864900
C -31.879600 -7.813200 -32.418400
C -31.350300 -5.691200 -34.107900
H -31.243800 -7.676600 -30.029000
H -31.169400 -4.985400 -34.685700
H -30.585300 -8.347600 -28.873500
N -30.578000 -8.112000 -29.701000
C -30.560100 -7.384200 -32.563500
C -30.322100 -6.320900 -33.433000
C -29.504000 -8.430100 -30.497700
H -29.449500 -6.028500 -33.563100
C -29.444100 -8.067100 -31.867400
H -28.482400 -9.400800 -29.048300
C -28.439200 -9.135900 -29.938700
C -28.283000 -8.369600 -32.567000
H -28.216900 -8.099200 -33.454200
C -27.319700 -9.448400 -30.690800
C -27.224900 -9.049700 -32.009200
H -27.059500 -11.517200 -28.776900
H -26.464100 -9.236700 -32.508400
C -26.294000 -11.155100 -29.162200
N -26.235000 -10.162500 -30.093900
C -25.014800 -11.505300 -28.913800
C -24.923000 -9.956200 -30.345600
H -24.760400 -12.175300 -28.320500
H -24.605200 -9.322800 -30.948000
N -24.145000 -10.750000 -29.643700
