34
Fragment
H -13.196500 -22.397400 -20.239200
N -12.844000 -20.473800 -20.116000
C -12.560700 -21.774100 -19.970100
H -12.083800 -18.696700 -19.832400
C -11.904500 -19.604500 -19.740000
C -11.367600 -22.239300 -19.438000
H -11.218500 -23.151900 -19.341800
C -10.679400 -19.979400 -19.221500
C -10.400700 -21.326300 -19.051400
H -10.049200 -19.335500 -18.989600
C -9.125200 -21.849300 -18.450600
O -8.997800 -23.037200 -18.179700
H -8.209200 -20.096000 -18.433300
N -8.153700 -20.936900 -18.223600
N -6.973400 -21.385700 -17.672500
H -6.271600 -19.595400 -17.527600
C -6.102100 -20.498300 -17.382900
H -4.907000 -23.004100 -16.606500
C -4.841100 -20.939900 -16.821000
C -4.402600 -22.229000 -16.510000
N -3.855600 -20.082800 -16.548600
N -3.161100 -22.178400 -16.057300
N -2.876400 -20.866600 -16.100600
H -1.985300 -18.447600 -16.305900
C -1.599100 -20.354000 -15.728400
C -1.335400 -19.005300 -15.943400
H -0.840000 -22.098300 -15.055000
C -0.653100 -21.197100 -15.185900
C -0.089500 -18.510100 -15.606700
H 0.106600 -17.613300 -15.758000
C 0.584200 -20.673800 -14.838500
C 0.866200 -19.335100 -15.047700
H 1.229600 -21.227000 -14.462300
H 1.698000 -18.992300 -14.811800
34
Fragment
H 0.767800 -16.763500 -13.142900
H 1.236300 -14.528800 -13.492300
C 1.599600 -16.420700 -12.906900
C 1.881700 -15.082000 -13.116200
H 2.359300 -18.142500 -12.196600
C 2.555400 -17.245700 -12.348000
C 3.118900 -14.558700 -12.768700
H 3.305800 -13.657500 -12.899700
C 3.801300 -16.750500 -12.011300
C 4.065000 -15.401800 -12.226200
H 4.451200 -17.308200 -11.648700
N 5.342300 -14.889200 -11.854000
N 5.627000 -13.577400 -11.897400
N 6.321500 -15.673000 -11.406100
C 6.868500 -13.526800 -11.444600
C 7.307000 -14.815900 -11.133600
H 7.372900 -12.751700 -11.348200
C 8.567900 -15.257500 -10.571800
H 8.737500 -16.160400 -10.427100
N 9.439300 -14.370100 -10.282100
N 10.619600 -14.818900 -9.731000
H 10.675100 -15.659800 -9.521400
O 11.463700 -12.718600 -9.774900
C 11.591100 -13.906500 -9.504000
H 12.515100 -16.420300 -8.965100
C 12.866500 -14.429500 -8.903300
C 13.145200 -15.776400 -8.733200
H 13.684400 -12.603900 -8.612800
C 13.833500 -13.516500 -8.516700
C 14.370400 -16.151300 -8.214600
H 14.549600 -17.059100 -8.122200
C 15.026600 -13.981700 -7.984500
N 15.309900 -15.282000 -7.838600
H 15.662400 -13.358400 -7.715500
68
Fragment
H -13.196500 -22.397400 -20.239200
N -12.844000 -20.473800 -20.116000
C -12.560700 -21.774100 -19.970100
H -12.083800 -18.696700 -19.832400
C -11.904500 -19.604500 -19.740000
C -11.367600 -22.239300 -19.438000
H -11.218500 -23.151900 -19.341800
C -10.679400 -19.979400 -19.221500
C -10.400700 -21.326300 -19.051400
H -10.049200 -19.335500 -18.989600
C -9.125200 -21.849300 -18.450600
O -8.997800 -23.037200 -18.179700
H -8.209200 -20.096000 -18.433300
N -8.153700 -20.936900 -18.223600
N -6.973400 -21.385700 -17.672500
H -6.271600 -19.595400 -17.527600
C -6.102100 -20.498300 -17.382900
H -4.907000 -23.004100 -16.606500
C -4.841100 -20.939900 -16.821000
C -4.402600 -22.229000 -16.510000
N -3.855600 -20.082800 -16.548600
N -3.161100 -22.178400 -16.057300
N -2.876400 -20.866600 -16.100600
H -1.985300 -18.447600 -16.305900
C -1.599100 -20.354000 -15.728400
C -1.335400 -19.005300 -15.943400
H -0.840000 -22.098300 -15.055000
C -0.653100 -21.197100 -15.185900
C -0.089500 -18.510100 -15.606700
H 0.106600 -17.613300 -15.758000
C 0.584200 -20.673800 -14.838500
C 0.866200 -19.335100 -15.047700
H 1.229600 -21.227000 -14.462300
H 1.698000 -18.992300 -14.811800
H 0.767800 -16.763500 -13.142900
H 1.236300 -14.528800 -13.492300
C 1.599600 -16.420700 -12.906900
C 1.881700 -15.082000 -13.116200
H 2.359300 -18.142500 -12.196600
C 2.555400 -17.245700 -12.348000
C 3.118900 -14.558700 -12.768700
H 3.305800 -13.657500 -12.899700
C 3.801300 -16.750500 -12.011300
C 4.065000 -15.401800 -12.226200
H 4.451200 -17.308200 -11.648700
N 5.342300 -14.889200 -11.854000
N 5.627000 -13.577400 -11.897400
N 6.321500 -15.673000 -11.406100
C 6.868500 -13.526800 -11.444600
C 7.307000 -14.815900 -11.133600
H 7.372900 -12.751700 -11.348200
C 8.567900 -15.257500 -10.571800
H 8.737500 -16.160400 -10.427100
N 9.439300 -14.370100 -10.282100
N 10.619600 -14.818900 -9.731000
H 10.675100 -15.659800 -9.521400
O 11.463700 -12.718600 -9.774900
C 11.591100 -13.906500 -9.504000
H 12.515100 -16.420300 -8.965100
C 12.866500 -14.429500 -8.903300
C 13.145200 -15.776400 -8.733200
H 13.684400 -12.603900 -8.612800
C 13.833500 -13.516500 -8.516700
C 14.370400 -16.151300 -8.214600
H 14.549600 -17.059100 -8.122200
C 15.026600 -13.981700 -7.984500
N 15.309900 -15.282000 -7.838600
H 15.662400 -13.358400 -7.715500
