34
Fragment
H -13.196500 -22.397400 -20.239200
N -12.844000 -20.473800 -20.116000
C -12.560700 -21.774100 -19.970100
H -12.083800 -18.696700 -19.832400
C -11.904500 -19.604500 -19.740000
C -11.367600 -22.239300 -19.438000
H -11.218500 -23.151900 -19.341800
C -10.679400 -19.979400 -19.221500
C -10.400700 -21.326300 -19.051400
H -10.049200 -19.335500 -18.989600
C -9.125200 -21.849300 -18.450600
O -8.997800 -23.037200 -18.179700
H -8.209200 -20.096000 -18.433300
N -8.153700 -20.936900 -18.223600
N -6.973400 -21.385700 -17.672500
H -6.271600 -19.595400 -17.527600
C -6.102100 -20.498300 -17.382900
H -4.907000 -23.004100 -16.606500
C -4.841100 -20.939900 -16.821000
C -4.402600 -22.229000 -16.510000
N -3.855600 -20.082800 -16.548600
N -3.161100 -22.178400 -16.057300
N -2.876400 -20.866600 -16.100600
H -1.985300 -18.447600 -16.305900
C -1.599100 -20.354000 -15.728400
C -1.335400 -19.005300 -15.943400
H -0.840000 -22.098300 -15.055000
C -0.653100 -21.197100 -15.185900
C -0.089500 -18.510100 -15.606700
H 0.106600 -17.613300 -15.758000
C 0.584200 -20.673800 -14.838500
C 0.866200 -19.335100 -15.047700
H 1.229600 -21.227000 -14.462300
H 1.698000 -18.992300 -14.811800
34
Fragment
H -21.813200 -19.317700 -27.227800
N -21.460800 -21.241300 -27.104700
C -21.177400 -19.941000 -26.958800
H -20.700500 -23.018400 -26.821100
C -20.521200 -22.110600 -26.728700
C -19.984400 -19.475800 -26.426700
H -19.835200 -18.563200 -26.330500
C -19.296100 -21.735700 -26.210100
C -19.017400 -20.388800 -26.040000
H -18.666000 -22.379600 -25.978300
C -17.741900 -19.865800 -25.439300
O -17.614600 -18.677900 -25.168400
H -16.825900 -21.619100 -25.422000
N -16.770500 -20.778200 -25.212300
N -15.590200 -20.329400 -24.661200
H -14.888400 -22.119700 -24.516200
C -14.718800 -21.216800 -24.371600
H -13.523700 -18.711000 -23.595100
C -13.457900 -20.775200 -23.809700
C -13.019300 -19.486100 -23.498700
N -12.472400 -21.632300 -23.537300
N -11.777900 -19.536700 -23.046000
N -11.493200 -20.848500 -23.089300
H -10.602100 -23.267500 -23.294600
C -10.215800 -21.361100 -22.717100
C -9.952200 -22.709800 -22.932000
H -9.456700 -19.616800 -22.043600
C -9.269800 -20.518000 -22.174600
C -8.706200 -23.205000 -22.595300
H -8.510100 -24.101800 -22.746700
C -8.032500 -21.041300 -21.827100
C -7.750500 -22.380000 -22.036400
H -7.387200 -20.488100 -21.451000
H -6.918700 -22.722800 -21.800400
68
Fragment
H -13.196500 -22.397400 -20.239200
N -12.844000 -20.473800 -20.116000
C -12.560700 -21.774100 -19.970100
H -12.083800 -18.696700 -19.832400
C -11.904500 -19.604500 -19.740000
C -11.367600 -22.239300 -19.438000
H -11.218500 -23.151900 -19.341800
C -10.679400 -19.979400 -19.221500
C -10.400700 -21.326300 -19.051400
H -10.049200 -19.335500 -18.989600
C -9.125200 -21.849300 -18.450600
O -8.997800 -23.037200 -18.179700
H -8.209200 -20.096000 -18.433300
N -8.153700 -20.936900 -18.223600
N -6.973400 -21.385700 -17.672500
H -6.271600 -19.595400 -17.527600
C -6.102100 -20.498300 -17.382900
H -4.907000 -23.004100 -16.606500
C -4.841100 -20.939900 -16.821000
C -4.402600 -22.229000 -16.510000
N -3.855600 -20.082800 -16.548600
N -3.161100 -22.178400 -16.057300
N -2.876400 -20.866600 -16.100600
H -1.985300 -18.447600 -16.305900
C -1.599100 -20.354000 -15.728400
C -1.335400 -19.005300 -15.943400
H -0.840000 -22.098300 -15.055000
C -0.653100 -21.197100 -15.185900
C -0.089500 -18.510100 -15.606700
H 0.106600 -17.613300 -15.758000
C 0.584200 -20.673800 -14.838500
C 0.866200 -19.335100 -15.047700
H 1.229600 -21.227000 -14.462300
H 1.698000 -18.992300 -14.811800
H -21.813200 -19.317700 -27.227800
N -21.460800 -21.241300 -27.104700
C -21.177400 -19.941000 -26.958800
H -20.700500 -23.018400 -26.821100
C -20.521200 -22.110600 -26.728700
C -19.984400 -19.475800 -26.426700
H -19.835200 -18.563200 -26.330500
C -19.296100 -21.735700 -26.210100
C -19.017400 -20.388800 -26.040000
H -18.666000 -22.379600 -25.978300
C -17.741900 -19.865800 -25.439300
O -17.614600 -18.677900 -25.168400
H -16.825900 -21.619100 -25.422000
N -16.770500 -20.778200 -25.212300
N -15.590200 -20.329400 -24.661200
H -14.888400 -22.119700 -24.516200
C -14.718800 -21.216800 -24.371600
H -13.523700 -18.711000 -23.595100
C -13.457900 -20.775200 -23.809700
C -13.019300 -19.486100 -23.498700
N -12.472400 -21.632300 -23.537300
N -11.777900 -19.536700 -23.046000
N -11.493200 -20.848500 -23.089300
H -10.602100 -23.267500 -23.294600
C -10.215800 -21.361100 -22.717100
C -9.952200 -22.709800 -22.932000
H -9.456700 -19.616800 -22.043600
C -9.269800 -20.518000 -22.174600
C -8.706200 -23.205000 -22.595300
H -8.510100 -24.101800 -22.746700
C -8.032500 -21.041300 -21.827100
C -7.750500 -22.380000 -22.036400
H -7.387200 -20.488100 -21.451000
H -6.918700 -22.722800 -21.800400
