34
Fragment
H -13.196500 -22.397400 -20.239200
N -12.844000 -20.473800 -20.116000
C -12.560700 -21.774100 -19.970100
H -12.083800 -18.696700 -19.832400
C -11.904500 -19.604500 -19.740000
C -11.367600 -22.239300 -19.438000
H -11.218500 -23.151900 -19.341800
C -10.679400 -19.979400 -19.221500
C -10.400700 -21.326300 -19.051400
H -10.049200 -19.335500 -18.989600
C -9.125200 -21.849300 -18.450600
O -8.997800 -23.037200 -18.179700
H -8.209200 -20.096000 -18.433300
N -8.153700 -20.936900 -18.223600
N -6.973400 -21.385700 -17.672500
H -6.271600 -19.595400 -17.527600
C -6.102100 -20.498300 -17.382900
H -4.907000 -23.004100 -16.606500
C -4.841100 -20.939900 -16.821000
C -4.402600 -22.229000 -16.510000
N -3.855600 -20.082800 -16.548600
N -3.161100 -22.178400 -16.057300
N -2.876400 -20.866600 -16.100600
H -1.985300 -18.447600 -16.305900
C -1.599100 -20.354000 -15.728400
C -1.335400 -19.005300 -15.943400
H -0.840000 -22.098300 -15.055000
C -0.653100 -21.197100 -15.185900
C -0.089500 -18.510100 -15.606700
H 0.106600 -17.613300 -15.758000
C 0.584200 -20.673800 -14.838500
C 0.866200 -19.335100 -15.047700
H 1.229600 -21.227000 -14.462300
H 1.698000 -18.992300 -14.811800
3
Fragment
H -1.007600 -25.292500 -14.326800
O -0.447600 -24.633800 -14.132800
H 0.001100 -24.533200 -14.771200
37
Fragment
H -13.196500 -22.397400 -20.239200
N -12.844000 -20.473800 -20.116000
C -12.560700 -21.774100 -19.970100
H -12.083800 -18.696700 -19.832400
C -11.904500 -19.604500 -19.740000
C -11.367600 -22.239300 -19.438000
H -11.218500 -23.151900 -19.341800
C -10.679400 -19.979400 -19.221500
C -10.400700 -21.326300 -19.051400
H -10.049200 -19.335500 -18.989600
C -9.125200 -21.849300 -18.450600
O -8.997800 -23.037200 -18.179700
H -8.209200 -20.096000 -18.433300
N -8.153700 -20.936900 -18.223600
N -6.973400 -21.385700 -17.672500
H -6.271600 -19.595400 -17.527600
C -6.102100 -20.498300 -17.382900
H -4.907000 -23.004100 -16.606500
C -4.841100 -20.939900 -16.821000
C -4.402600 -22.229000 -16.510000
N -3.855600 -20.082800 -16.548600
N -3.161100 -22.178400 -16.057300
N -2.876400 -20.866600 -16.100600
H -1.985300 -18.447600 -16.305900
C -1.599100 -20.354000 -15.728400
C -1.335400 -19.005300 -15.943400
H -0.840000 -22.098300 -15.055000
C -0.653100 -21.197100 -15.185900
C -0.089500 -18.510100 -15.606700
H 0.106600 -17.613300 -15.758000
C 0.584200 -20.673800 -14.838500
C 0.866200 -19.335100 -15.047700
H 1.229600 -21.227000 -14.462300
H 1.698000 -18.992300 -14.811800
H -1.007600 -25.292500 -14.326800
O -0.447600 -24.633800 -14.132800
H 0.001100 -24.533200 -14.771200
