17
Fragment
O -11.147500 -13.010900 -40.233300
H -10.803800 -14.847800 -41.874400
H -10.686800 -11.662800 -38.162700
C -10.178500 -13.619900 -39.798700
C -10.159300 -12.292800 -37.725900
H -10.096800 -11.347300 -35.981300
N -9.874000 -14.724000 -41.885500
C -9.801600 -12.114000 -36.415400
C -9.725400 -13.420800 -38.390900
H -9.675100 -13.930700 -42.347400
N -9.498600 -14.485600 -40.544400
N -9.056500 -12.973300 -35.736500
C -8.942600 -14.319600 -37.698000
H -8.748400 -14.866200 -40.288400
C -8.642500 -14.054600 -36.384800
H -8.624700 -15.090000 -38.112600
H -8.118100 -14.669000 -35.922900
17
Fragment
H -8.229800 -12.844000 -47.547600
H -7.723100 -12.423000 -45.357900
C -7.705300 -13.458400 -47.085700
H -7.599400 -12.646800 -43.182100
C -7.405200 -13.193400 -45.772400
N -7.291400 -14.539700 -47.734000
N -6.849200 -13.027400 -42.926100
H -6.672700 -13.582300 -41.123100
C -6.622500 -14.092200 -45.079600
C -6.546300 -15.399000 -47.055100
N -6.473800 -12.789000 -41.585000
H -6.251100 -16.165700 -47.489100
C -6.188600 -15.220200 -45.744600
C -6.169400 -13.893100 -43.671800
H -5.661000 -15.850200 -45.307800
H -5.544000 -12.665200 -41.596100
O -5.200300 -14.502100 -43.237100
34
Fragment
O -11.147500 -13.010900 -40.233300
H -10.803800 -14.847800 -41.874400
H -10.686800 -11.662800 -38.162700
C -10.178500 -13.619900 -39.798700
C -10.159300 -12.292800 -37.725900
H -10.096800 -11.347300 -35.981300
N -9.874000 -14.724000 -41.885500
C -9.801600 -12.114000 -36.415400
C -9.725400 -13.420800 -38.390900
H -9.675100 -13.930700 -42.347400
N -9.498600 -14.485600 -40.544400
N -9.056500 -12.973300 -35.736500
C -8.942600 -14.319600 -37.698000
H -8.748400 -14.866200 -40.288400
C -8.642500 -14.054600 -36.384800
H -8.624700 -15.090000 -38.112600
H -8.118100 -14.669000 -35.922900
H -8.229800 -12.844000 -47.547600
H -7.723100 -12.423000 -45.357900
C -7.705300 -13.458400 -47.085700
H -7.599400 -12.646800 -43.182100
C -7.405200 -13.193400 -45.772400
N -7.291400 -14.539700 -47.734000
N -6.849200 -13.027400 -42.926100
H -6.672700 -13.582300 -41.123100
C -6.622500 -14.092200 -45.079600
C -6.546300 -15.399000 -47.055100
N -6.473800 -12.789000 -41.585000
H -6.251100 -16.165700 -47.489100
C -6.188600 -15.220200 -45.744600
C -6.169400 -13.893100 -43.671800
H -5.661000 -15.850200 -45.307800
H -5.544000 -12.665200 -41.596100
O -5.200300 -14.502100 -43.237100
