17
Fragment
O -11.147500 -13.010900 -40.233300
H -10.803800 -14.847800 -41.874400
H -10.686800 -11.662800 -38.162700
C -10.178500 -13.619900 -39.798700
C -10.159300 -12.292800 -37.725900
H -10.096800 -11.347300 -35.981300
N -9.874000 -14.724000 -41.885500
C -9.801600 -12.114000 -36.415400
C -9.725400 -13.420800 -38.390900
H -9.675100 -13.930700 -42.347400
N -9.498600 -14.485600 -40.544400
N -9.056500 -12.973300 -35.736500
C -8.942600 -14.319600 -37.698000
H -8.748400 -14.866200 -40.288400
C -8.642500 -14.054600 -36.384800
H -8.624700 -15.090000 -38.112600
H -8.118100 -14.669000 -35.922900
15
Fragment
H -10.541400 -15.566900 -47.862000
O -10.530500 -15.382500 -47.062900
H -10.101000 -15.474200 -44.581600
C -9.813300 -16.323500 -46.390100
C -9.689000 -16.181300 -45.024000
H -9.333900 -17.481800 -47.973300
C -9.233400 -17.388200 -47.052300
H -9.146400 -16.368400 -42.684000
C -8.938800 -17.109400 -44.322800
O -8.752900 -17.026900 -42.975300
C -8.500500 -18.312700 -46.331700
C -8.333300 -18.174200 -44.965500
H -8.078200 -19.371900 -47.731200
O -7.918600 -19.384700 -46.926000
H -7.822100 -18.786800 -44.489800
32
Fragment
O -11.147500 -13.010900 -40.233300
H -10.803800 -14.847800 -41.874400
H -10.686800 -11.662800 -38.162700
C -10.178500 -13.619900 -39.798700
C -10.159300 -12.292800 -37.725900
H -10.096800 -11.347300 -35.981300
N -9.874000 -14.724000 -41.885500
C -9.801600 -12.114000 -36.415400
C -9.725400 -13.420800 -38.390900
H -9.675100 -13.930700 -42.347400
N -9.498600 -14.485600 -40.544400
N -9.056500 -12.973300 -35.736500
C -8.942600 -14.319600 -37.698000
H -8.748400 -14.866200 -40.288400
C -8.642500 -14.054600 -36.384800
H -8.624700 -15.090000 -38.112600
H -8.118100 -14.669000 -35.922900
H -10.541400 -15.566900 -47.862000
O -10.530500 -15.382500 -47.062900
H -10.101000 -15.474200 -44.581600
C -9.813300 -16.323500 -46.390100
C -9.689000 -16.181300 -45.024000
H -9.333900 -17.481800 -47.973300
C -9.233400 -17.388200 -47.052300
H -9.146400 -16.368400 -42.684000
C -8.938800 -17.109400 -44.322800
O -8.752900 -17.026900 -42.975300
C -8.500500 -18.312700 -46.331700
C -8.333300 -18.174200 -44.965500
H -8.078200 -19.371900 -47.731200
O -7.918600 -19.384700 -46.926000
H -7.822100 -18.786800 -44.489800
