17
Fragment
O -11.147500 -13.010900 -40.233300
H -10.803800 -14.847800 -41.874400
H -10.686800 -11.662800 -38.162700
C -10.178500 -13.619900 -39.798700
C -10.159300 -12.292800 -37.725900
H -10.096800 -11.347300 -35.981300
N -9.874000 -14.724000 -41.885500
C -9.801600 -12.114000 -36.415400
C -9.725400 -13.420800 -38.390900
H -9.675100 -13.930700 -42.347400
N -9.498600 -14.485600 -40.544400
N -9.056500 -12.973300 -35.736500
C -8.942600 -14.319600 -37.698000
H -8.748400 -14.866200 -40.288400
C -8.642500 -14.054600 -36.384800
H -8.624700 -15.090000 -38.112600
H -8.118100 -14.669000 -35.922900
17
Fragment
H -9.140100 -10.083500 -33.635800
H -8.633500 -10.504500 -31.446100
C -8.615700 -9.469100 -33.173900
H -8.509800 -10.280700 -29.270300
C -8.315600 -9.734100 -31.860700
N -8.201700 -8.387800 -33.822200
N -7.759500 -9.900100 -29.014300
H -7.583100 -9.345200 -27.211400
C -7.532800 -8.835300 -31.167900
C -7.456600 -7.528500 -33.143300
N -7.384200 -10.138500 -27.673200
H -7.161400 -6.761800 -33.577400
C -7.098900 -7.707300 -31.832900
C -7.079700 -9.034400 -29.760000
H -6.571400 -7.077300 -31.396000
H -6.454400 -10.262300 -27.684400
O -6.110700 -8.425400 -29.325400
34
Fragment
O -11.147500 -13.010900 -40.233300
H -10.803800 -14.847800 -41.874400
H -10.686800 -11.662800 -38.162700
C -10.178500 -13.619900 -39.798700
C -10.159300 -12.292800 -37.725900
H -10.096800 -11.347300 -35.981300
N -9.874000 -14.724000 -41.885500
C -9.801600 -12.114000 -36.415400
C -9.725400 -13.420800 -38.390900
H -9.675100 -13.930700 -42.347400
N -9.498600 -14.485600 -40.544400
N -9.056500 -12.973300 -35.736500
C -8.942600 -14.319600 -37.698000
H -8.748400 -14.866200 -40.288400
C -8.642500 -14.054600 -36.384800
H -8.624700 -15.090000 -38.112600
H -8.118100 -14.669000 -35.922900
H -9.140100 -10.083500 -33.635800
H -8.633500 -10.504500 -31.446100
C -8.615700 -9.469100 -33.173900
H -8.509800 -10.280700 -29.270300
C -8.315600 -9.734100 -31.860700
N -8.201700 -8.387800 -33.822200
N -7.759500 -9.900100 -29.014300
H -7.583100 -9.345200 -27.211400
C -7.532800 -8.835300 -31.167900
C -7.456600 -7.528500 -33.143300
N -7.384200 -10.138500 -27.673200
H -7.161400 -6.761800 -33.577400
C -7.098900 -7.707300 -31.832900
C -7.079700 -9.034400 -29.760000
H -6.571400 -7.077300 -31.396000
H -6.454400 -10.262300 -27.684400
O -6.110700 -8.425400 -29.325400
