17
Fragment
O -11.147500 -13.010900 -40.233300
H -10.803800 -14.847800 -41.874400
H -10.686800 -11.662800 -38.162700
C -10.178500 -13.619900 -39.798700
C -10.159300 -12.292800 -37.725900
H -10.096800 -11.347300 -35.981300
N -9.874000 -14.724000 -41.885500
C -9.801600 -12.114000 -36.415400
C -9.725400 -13.420800 -38.390900
H -9.675100 -13.930700 -42.347400
N -9.498600 -14.485600 -40.544400
N -9.056500 -12.973300 -35.736500
C -8.942600 -14.319600 -37.698000
H -8.748400 -14.866200 -40.288400
C -8.642500 -14.054600 -36.384800
H -8.624700 -15.090000 -38.112600
H -8.118100 -14.669000 -35.922900
15
Fragment
H -15.795700 -8.726200 -38.980700
O -15.699300 -8.128300 -36.544500
H -15.539700 -8.141100 -35.739300
C -15.284500 -9.338800 -38.504900
C -15.117300 -9.200300 -37.138800
O -14.865000 -10.486100 -40.495100
C -14.679000 -10.403600 -39.147700
H -14.471500 -11.144600 -40.786500
C -14.384400 -10.124800 -36.418200
H -14.284000 -10.031200 -35.497200
C -13.928900 -11.331700 -38.446500
C -13.804500 -11.189500 -37.080400
H -13.516800 -12.038800 -38.888900
O -13.087400 -12.130500 -36.407600
H -13.076400 -11.946100 -35.608500
32
Fragment
O -11.147500 -13.010900 -40.233300
H -10.803800 -14.847800 -41.874400
H -10.686800 -11.662800 -38.162700
C -10.178500 -13.619900 -39.798700
C -10.159300 -12.292800 -37.725900
H -10.096800 -11.347300 -35.981300
N -9.874000 -14.724000 -41.885500
C -9.801600 -12.114000 -36.415400
C -9.725400 -13.420800 -38.390900
H -9.675100 -13.930700 -42.347400
N -9.498600 -14.485600 -40.544400
N -9.056500 -12.973300 -35.736500
C -8.942600 -14.319600 -37.698000
H -8.748400 -14.866200 -40.288400
C -8.642500 -14.054600 -36.384800
H -8.624700 -15.090000 -38.112600
H -8.118100 -14.669000 -35.922900
H -15.795700 -8.726200 -38.980700
O -15.699300 -8.128300 -36.544500
H -15.539700 -8.141100 -35.739300
C -15.284500 -9.338800 -38.504900
C -15.117300 -9.200300 -37.138800
O -14.865000 -10.486100 -40.495100
C -14.679000 -10.403600 -39.147700
H -14.471500 -11.144600 -40.786500
C -14.384400 -10.124800 -36.418200
H -14.284000 -10.031200 -35.497200
C -13.928900 -11.331700 -38.446500
C -13.804500 -11.189500 -37.080400
H -13.516800 -12.038800 -38.888900
O -13.087400 -12.130500 -36.407600
H -13.076400 -11.946100 -35.608500
