6
Fragment
N -10.190300 -10.122300 -17.064600
C -9.568300 -9.178600 -17.132600
H -9.298100 -7.194600 -17.043400
C -8.749500 -7.983900 -17.230500
H -8.376900 -7.916300 -18.134900
H -8.017500 -8.035000 -16.580100
15
Fragment
O -7.107500 -5.283900 -17.259600
H -6.774800 -2.528400 -13.702100
O -6.243100 -3.144200 -13.636000
N -6.123200 -3.672700 -14.934700
N -6.021600 -4.748000 -17.272100
O -5.670800 -3.833200 -17.992600
C -5.245900 -4.607200 -14.914000
Br -5.014700 -7.156300 -16.191200
C -4.985200 -5.257400 -16.245400
H -4.636500 -4.601600 -13.181800
N -4.549500 -5.056900 -13.846500
H -3.890100 -5.592100 -13.941200
N -3.616900 -4.763400 -16.811100
O -3.216000 -3.705900 -16.345300
O -3.071700 -5.422900 -17.667100
21
Fragment
N -10.190300 -10.122300 -17.064600
C -9.568300 -9.178600 -17.132600
H -9.298100 -7.194600 -17.043400
C -8.749500 -7.983900 -17.230500
H -8.376900 -7.916300 -18.134900
H -8.017500 -8.035000 -16.580100
O -7.107500 -5.283900 -17.259600
H -6.774800 -2.528400 -13.702100
O -6.243100 -3.144200 -13.636000
N -6.123200 -3.672700 -14.934700
N -6.021600 -4.748000 -17.272100
O -5.670800 -3.833200 -17.992600
C -5.245900 -4.607200 -14.914000
Br -5.014700 -7.156300 -16.191200
C -4.985200 -5.257400 -16.245400
H -4.636500 -4.601600 -13.181800
N -4.549500 -5.056900 -13.846500
H -3.890100 -5.592100 -13.941200
N -3.616900 -4.763400 -16.811100
O -3.216000 -3.705900 -16.345300
O -3.071700 -5.422900 -17.667100
