6
Fragment
N -10.190300 -10.122300 -17.064600
C -9.568300 -9.178600 -17.132600
H -9.298100 -7.194600 -17.043400
C -8.749500 -7.983900 -17.230500
H -8.376900 -7.916300 -18.134900
H -8.017500 -8.035000 -16.580100
15
Fragment
O -10.717600 -3.944000 -23.454000
H -10.384900 -6.699400 -19.896600
O -9.853100 -6.083600 -19.830400
N -9.733200 -5.555200 -21.129100
N -9.631700 -4.479800 -23.466600
O -9.280900 -5.394600 -24.187100
C -8.856000 -4.620700 -21.108500
Br -8.624800 -2.071600 -22.385600
C -8.595300 -3.970400 -22.439900
H -8.246500 -4.626200 -19.376200
N -8.159600 -4.171000 -20.040900
H -7.500100 -3.635800 -20.135700
N -7.226900 -4.464400 -23.005600
O -6.826100 -5.521900 -22.539700
O -6.681800 -3.805000 -23.861500
21
Fragment
N -10.190300 -10.122300 -17.064600
C -9.568300 -9.178600 -17.132600
H -9.298100 -7.194600 -17.043400
C -8.749500 -7.983900 -17.230500
H -8.376900 -7.916300 -18.134900
H -8.017500 -8.035000 -16.580100
O -10.717600 -3.944000 -23.454000
H -10.384900 -6.699400 -19.896600
O -9.853100 -6.083600 -19.830400
N -9.733200 -5.555200 -21.129100
N -9.631700 -4.479800 -23.466600
O -9.280900 -5.394600 -24.187100
C -8.856000 -4.620700 -21.108500
Br -8.624800 -2.071600 -22.385600
C -8.595300 -3.970400 -22.439900
H -8.246500 -4.626200 -19.376200
N -8.159600 -4.171000 -20.040900
H -7.500100 -3.635800 -20.135700
N -7.226900 -4.464400 -23.005600
O -6.826100 -5.521900 -22.539700
O -6.681800 -3.805000 -23.861500
