6
Fragment
N -10.190300 -10.122300 -17.064600
C -9.568300 -9.178600 -17.132600
H -9.298100 -7.194600 -17.043400
C -8.749500 -7.983900 -17.230500
H -8.376900 -7.916300 -18.134900
H -8.017500 -8.035000 -16.580100
15
Fragment
O -10.717600 -10.095900 -23.454000
H -10.384900 -12.851300 -19.896600
O -9.853100 -12.235500 -19.830400
N -9.733200 -11.707100 -21.129100
N -9.631700 -10.631700 -23.466600
O -9.280900 -11.546500 -24.187100
C -8.856000 -10.772600 -21.108500
Br -8.624800 -8.223500 -22.385600
C -8.595300 -10.122300 -22.439900
H -8.246500 -10.778100 -19.376200
N -8.159600 -10.322900 -20.040900
H -7.500100 -9.787700 -20.135700
N -7.226900 -10.616300 -23.005600
O -6.826100 -11.673800 -22.539700
O -6.681800 -9.956900 -23.861500
21
Fragment
N -10.190300 -10.122300 -17.064600
C -9.568300 -9.178600 -17.132600
H -9.298100 -7.194600 -17.043400
C -8.749500 -7.983900 -17.230500
H -8.376900 -7.916300 -18.134900
H -8.017500 -8.035000 -16.580100
O -10.717600 -10.095900 -23.454000
H -10.384900 -12.851300 -19.896600
O -9.853100 -12.235500 -19.830400
N -9.733200 -11.707100 -21.129100
N -9.631700 -10.631700 -23.466600
O -9.280900 -11.546500 -24.187100
C -8.856000 -10.772600 -21.108500
Br -8.624800 -8.223500 -22.385600
C -8.595300 -10.122300 -22.439900
H -8.246500 -10.778100 -19.376200
N -8.159600 -10.322900 -20.040900
H -7.500100 -9.787700 -20.135700
N -7.226900 -10.616300 -23.005600
O -6.826100 -11.673800 -22.539700
O -6.681800 -9.956900 -23.861500
