6
Fragment
N -10.190300 -10.122300 -17.064600
C -9.568300 -9.178600 -17.132600
H -9.298100 -7.194600 -17.043400
C -8.749500 -7.983900 -17.230500
H -8.376900 -7.916300 -18.134900
H -8.017500 -8.035000 -16.580100
6
Fragment
H -10.032900 -11.110900 -14.392200
H -9.673400 -10.992200 -12.837400
C -9.300800 -11.059900 -13.741800
H -8.752200 -10.270600 -13.928800
C -8.482100 -12.254600 -13.839600
N -7.860100 -13.198300 -13.907700
12
Fragment
N -10.190300 -10.122300 -17.064600
C -9.568300 -9.178600 -17.132600
H -9.298100 -7.194600 -17.043400
C -8.749500 -7.983900 -17.230500
H -8.376900 -7.916300 -18.134900
H -8.017500 -8.035000 -16.580100
H -10.032900 -11.110900 -14.392200
H -9.673400 -10.992200 -12.837400
C -9.300800 -11.059900 -13.741800
H -8.752200 -10.270600 -13.928800
C -8.482100 -12.254600 -13.839600
N -7.860100 -13.198300 -13.907700
