29
Fragment
O -10.586500 -12.943500 -16.829800
O -9.741400 -10.954500 -16.942200
N -9.643400 -12.174100 -16.956400
H -9.617900 -14.788400 -16.022600
O -9.060100 -13.079000 -14.272000
H -8.865500 -15.867900 -16.880100
C -8.742400 -15.105200 -16.293800
C -8.341600 -12.721200 -17.194600
N -8.187800 -13.598800 -13.575300
N -8.036200 -14.040500 -17.014100
N -7.984600 -15.511800 -15.117400
O -7.734600 -13.096200 -12.547900
C -7.669700 -14.854300 -13.948700
N -7.403200 -16.705600 -15.157700
C -7.264000 -12.094500 -17.801500
O -7.180800 -10.826900 -18.162500
C -6.846800 -15.677400 -13.201000
N -6.821800 -14.318700 -17.484800
C -6.740700 -16.815300 -14.020500
H -6.423400 -10.549200 -18.014400
H -6.389900 -14.717100 -11.781600
C -6.373100 -13.172200 -17.965900
O -6.282100 -15.494600 -12.018900
O -6.086500 -18.935500 -14.588600
N -6.010100 -18.033500 -13.772900
O -5.336100 -18.083700 -12.759600
N -5.098200 -13.140600 -18.650300
O -4.801700 -12.098800 -19.189000
O -4.413400 -14.138700 -18.663500
29
Fragment
O -2.225800 -10.553700 -19.145600
O -1.837500 -8.513800 -18.620000
N -1.541000 -9.555600 -19.158800
O -1.303100 -14.498700 -25.049500
N -0.629100 -14.448500 -24.036200
O -0.552700 -15.350500 -23.220400
O -0.357100 -11.909500 -25.790100
C -0.266100 -9.587100 -19.843100
H -0.249300 -11.132000 -26.027500
H -0.215700 -6.964200 -19.794700
C 0.101500 -13.230300 -23.788500
N 0.182600 -10.733600 -20.324300
C 0.207600 -12.092400 -24.608000
O 0.541600 -7.241800 -19.646500
C 0.624800 -8.509500 -20.007600
N 0.764100 -13.120600 -22.651400
C 1.030500 -11.269200 -23.860400
O 1.095400 -9.511100 -25.261200
N 1.345400 -11.926700 -22.691700
N 1.397000 -10.455400 -20.795000
N 1.548600 -10.013800 -24.233700
C 1.702400 -9.136100 -20.614400
C 2.103200 -11.520200 -21.515300
H 2.226300 -12.282800 -20.928900
O 2.420900 -9.493900 -23.537100
H 2.978700 -11.203400 -21.786400
N 3.004200 -8.589100 -20.852600
O 3.102200 -7.369400 -20.866800
O 3.947300 -9.358400 -20.979300
58
Fragment
O -10.586500 -12.943500 -16.829800
O -9.741400 -10.954500 -16.942200
N -9.643400 -12.174100 -16.956400
H -9.617900 -14.788400 -16.022600
O -9.060100 -13.079000 -14.272000
H -8.865500 -15.867900 -16.880100
C -8.742400 -15.105200 -16.293800
C -8.341600 -12.721200 -17.194600
N -8.187800 -13.598800 -13.575300
N -8.036200 -14.040500 -17.014100
N -7.984600 -15.511800 -15.117400
O -7.734600 -13.096200 -12.547900
C -7.669700 -14.854300 -13.948700
N -7.403200 -16.705600 -15.157700
C -7.264000 -12.094500 -17.801500
O -7.180800 -10.826900 -18.162500
C -6.846800 -15.677400 -13.201000
N -6.821800 -14.318700 -17.484800
C -6.740700 -16.815300 -14.020500
H -6.423400 -10.549200 -18.014400
H -6.389900 -14.717100 -11.781600
C -6.373100 -13.172200 -17.965900
O -6.282100 -15.494600 -12.018900
O -6.086500 -18.935500 -14.588600
N -6.010100 -18.033500 -13.772900
O -5.336100 -18.083700 -12.759600
N -5.098200 -13.140600 -18.650300
O -4.801700 -12.098800 -19.189000
O -4.413400 -14.138700 -18.663500
O -2.225800 -10.553700 -19.145600
O -1.837500 -8.513800 -18.620000
N -1.541000 -9.555600 -19.158800
O -1.303100 -14.498700 -25.049500
N -0.629100 -14.448500 -24.036200
O -0.552700 -15.350500 -23.220400
O -0.357100 -11.909500 -25.790100
C -0.266100 -9.587100 -19.843100
H -0.249300 -11.132000 -26.027500
H -0.215700 -6.964200 -19.794700
C 0.101500 -13.230300 -23.788500
N 0.182600 -10.733600 -20.324300
C 0.207600 -12.092400 -24.608000
O 0.541600 -7.241800 -19.646500
C 0.624800 -8.509500 -20.007600
N 0.764100 -13.120600 -22.651400
C 1.030500 -11.269200 -23.860400
O 1.095400 -9.511100 -25.261200
N 1.345400 -11.926700 -22.691700
N 1.397000 -10.455400 -20.795000
N 1.548600 -10.013800 -24.233700
C 1.702400 -9.136100 -20.614400
C 2.103200 -11.520200 -21.515300
H 2.226300 -12.282800 -20.928900
O 2.420900 -9.493900 -23.537100
H 2.978700 -11.203400 -21.786400
N 3.004200 -8.589100 -20.852600
O 3.102200 -7.369400 -20.866800
O 3.947300 -9.358400 -20.979300
