29
Fragment
O -10.586500 -12.943500 -16.829800
O -9.741400 -10.954500 -16.942200
N -9.643400 -12.174100 -16.956400
H -9.617900 -14.788400 -16.022600
O -9.060100 -13.079000 -14.272000
H -8.865500 -15.867900 -16.880100
C -8.742400 -15.105200 -16.293800
C -8.341600 -12.721200 -17.194600
N -8.187800 -13.598800 -13.575300
N -8.036200 -14.040500 -17.014100
N -7.984600 -15.511800 -15.117400
O -7.734600 -13.096200 -12.547900
C -7.669700 -14.854300 -13.948700
N -7.403200 -16.705600 -15.157700
C -7.264000 -12.094500 -17.801500
O -7.180800 -10.826900 -18.162500
C -6.846800 -15.677400 -13.201000
N -6.821800 -14.318700 -17.484800
C -6.740700 -16.815300 -14.020500
H -6.423400 -10.549200 -18.014400
H -6.389900 -14.717100 -11.781600
C -6.373100 -13.172200 -17.965900
O -6.282100 -15.494600 -12.018900
O -6.086500 -18.935500 -14.588600
N -6.010100 -18.033500 -13.772900
O -5.336100 -18.083700 -12.759600
N -5.098200 -13.140600 -18.650300
O -4.801700 -12.098800 -19.189000
O -4.413400 -14.138700 -18.663500
29
Fragment
O -7.295800 -12.943500 -26.282000
O -6.450700 -10.954500 -26.394500
N -6.352700 -12.174100 -26.408700
H -6.327100 -14.788400 -25.474900
O -5.769400 -13.079000 -23.724200
H -5.574800 -15.867900 -26.332400
C -5.451600 -15.105200 -25.746100
C -5.050900 -12.721200 -26.646900
N -4.897100 -13.598800 -23.027600
N -4.745500 -14.040500 -26.466300
N -4.693900 -15.511800 -24.569700
O -4.443900 -13.096200 -22.000200
C -4.379000 -14.854300 -23.401000
N -4.112500 -16.705600 -24.609900
C -3.973300 -12.094500 -27.253700
O -3.890100 -10.826900 -27.614800
C -3.556100 -15.677400 -22.653300
N -3.531100 -14.318700 -26.937100
C -3.450000 -16.815300 -23.472800
H -3.132700 -10.549200 -27.466700
H -3.099200 -14.717100 -21.233900
C -3.082400 -13.172200 -27.418200
O -2.991400 -15.494600 -21.471200
O -2.795800 -18.935500 -24.040900
N -2.719400 -18.033500 -23.225200
O -2.045400 -18.083700 -22.211900
N -1.807500 -13.140600 -28.102500
O -1.511000 -12.098800 -28.641300
O -1.122700 -14.138700 -28.115800
58
Fragment
O -10.586500 -12.943500 -16.829800
O -9.741400 -10.954500 -16.942200
N -9.643400 -12.174100 -16.956400
H -9.617900 -14.788400 -16.022600
O -9.060100 -13.079000 -14.272000
H -8.865500 -15.867900 -16.880100
C -8.742400 -15.105200 -16.293800
C -8.341600 -12.721200 -17.194600
N -8.187800 -13.598800 -13.575300
N -8.036200 -14.040500 -17.014100
N -7.984600 -15.511800 -15.117400
O -7.734600 -13.096200 -12.547900
C -7.669700 -14.854300 -13.948700
N -7.403200 -16.705600 -15.157700
C -7.264000 -12.094500 -17.801500
O -7.180800 -10.826900 -18.162500
C -6.846800 -15.677400 -13.201000
N -6.821800 -14.318700 -17.484800
C -6.740700 -16.815300 -14.020500
H -6.423400 -10.549200 -18.014400
H -6.389900 -14.717100 -11.781600
C -6.373100 -13.172200 -17.965900
O -6.282100 -15.494600 -12.018900
O -6.086500 -18.935500 -14.588600
N -6.010100 -18.033500 -13.772900
O -5.336100 -18.083700 -12.759600
N -5.098200 -13.140600 -18.650300
O -4.801700 -12.098800 -19.189000
O -4.413400 -14.138700 -18.663500
O -7.295800 -12.943500 -26.282000
O -6.450700 -10.954500 -26.394500
N -6.352700 -12.174100 -26.408700
H -6.327100 -14.788400 -25.474900
O -5.769400 -13.079000 -23.724200
H -5.574800 -15.867900 -26.332400
C -5.451600 -15.105200 -25.746100
C -5.050900 -12.721200 -26.646900
N -4.897100 -13.598800 -23.027600
N -4.745500 -14.040500 -26.466300
N -4.693900 -15.511800 -24.569700
O -4.443900 -13.096200 -22.000200
C -4.379000 -14.854300 -23.401000
N -4.112500 -16.705600 -24.609900
C -3.973300 -12.094500 -27.253700
O -3.890100 -10.826900 -27.614800
C -3.556100 -15.677400 -22.653300
N -3.531100 -14.318700 -26.937100
C -3.450000 -16.815300 -23.472800
H -3.132700 -10.549200 -27.466700
H -3.099200 -14.717100 -21.233900
C -3.082400 -13.172200 -27.418200
O -2.991400 -15.494600 -21.471200
O -2.795800 -18.935500 -24.040900
N -2.719400 -18.033500 -23.225200
O -2.045400 -18.083700 -22.211900
N -1.807500 -13.140600 -28.102500
O -1.511000 -12.098800 -28.641300
O -1.122700 -14.138700 -28.115800
