29
Fragment
O -10.586500 -12.943500 -16.829800
O -9.741400 -10.954500 -16.942200
N -9.643400 -12.174100 -16.956400
H -9.617900 -14.788400 -16.022600
O -9.060100 -13.079000 -14.272000
H -8.865500 -15.867900 -16.880100
C -8.742400 -15.105200 -16.293800
C -8.341600 -12.721200 -17.194600
N -8.187800 -13.598800 -13.575300
N -8.036200 -14.040500 -17.014100
N -7.984600 -15.511800 -15.117400
O -7.734600 -13.096200 -12.547900
C -7.669700 -14.854300 -13.948700
N -7.403200 -16.705600 -15.157700
C -7.264000 -12.094500 -17.801500
O -7.180800 -10.826900 -18.162500
C -6.846800 -15.677400 -13.201000
N -6.821800 -14.318700 -17.484800
C -6.740700 -16.815300 -14.020500
H -6.423400 -10.549200 -18.014400
H -6.389900 -14.717100 -11.781600
C -6.373100 -13.172200 -17.965900
O -6.282100 -15.494600 -12.018900
O -6.086500 -18.935500 -14.588600
N -6.010100 -18.033500 -13.772900
O -5.336100 -18.083700 -12.759600
N -5.098200 -13.140600 -18.650300
O -4.801700 -12.098800 -19.189000
O -4.413400 -14.138700 -18.663500
29
Fragment
O -10.586500 -5.773400 -16.829800
O -9.741400 -3.784400 -16.942200
N -9.643400 -5.004000 -16.956400
H -9.617900 -7.618300 -16.022600
O -9.060100 -5.908900 -14.272000
H -8.865500 -8.697800 -16.880100
C -8.742400 -7.935100 -16.293800
C -8.341600 -5.551100 -17.194600
N -8.187800 -6.428700 -13.575300
N -8.036200 -6.870400 -17.014100
N -7.984600 -8.341700 -15.117400
O -7.734600 -5.926100 -12.547900
C -7.669700 -7.684200 -13.948700
N -7.403200 -9.535500 -15.157700
C -7.264000 -4.924400 -17.801500
O -7.180800 -3.656800 -18.162500
C -6.846800 -8.507300 -13.201000
N -6.821800 -7.148600 -17.484800
C -6.740700 -9.645200 -14.020500
H -6.423400 -3.379100 -18.014400
H -6.389900 -7.547000 -11.781600
C -6.373100 -6.002100 -17.965900
O -6.282100 -8.324500 -12.018900
O -6.086500 -11.765400 -14.588600
N -6.010100 -10.863400 -13.772900
O -5.336100 -10.913600 -12.759600
N -5.098200 -5.970500 -18.650300
O -4.801700 -4.928700 -19.189000
O -4.413400 -6.968600 -18.663500
58
Fragment
O -10.586500 -12.943500 -16.829800
O -9.741400 -10.954500 -16.942200
N -9.643400 -12.174100 -16.956400
H -9.617900 -14.788400 -16.022600
O -9.060100 -13.079000 -14.272000
H -8.865500 -15.867900 -16.880100
C -8.742400 -15.105200 -16.293800
C -8.341600 -12.721200 -17.194600
N -8.187800 -13.598800 -13.575300
N -8.036200 -14.040500 -17.014100
N -7.984600 -15.511800 -15.117400
O -7.734600 -13.096200 -12.547900
C -7.669700 -14.854300 -13.948700
N -7.403200 -16.705600 -15.157700
C -7.264000 -12.094500 -17.801500
O -7.180800 -10.826900 -18.162500
C -6.846800 -15.677400 -13.201000
N -6.821800 -14.318700 -17.484800
C -6.740700 -16.815300 -14.020500
H -6.423400 -10.549200 -18.014400
H -6.389900 -14.717100 -11.781600
C -6.373100 -13.172200 -17.965900
O -6.282100 -15.494600 -12.018900
O -6.086500 -18.935500 -14.588600
N -6.010100 -18.033500 -13.772900
O -5.336100 -18.083700 -12.759600
N -5.098200 -13.140600 -18.650300
O -4.801700 -12.098800 -19.189000
O -4.413400 -14.138700 -18.663500
O -10.586500 -5.773400 -16.829800
O -9.741400 -3.784400 -16.942200
N -9.643400 -5.004000 -16.956400
H -9.617900 -7.618300 -16.022600
O -9.060100 -5.908900 -14.272000
H -8.865500 -8.697800 -16.880100
C -8.742400 -7.935100 -16.293800
C -8.341600 -5.551100 -17.194600
N -8.187800 -6.428700 -13.575300
N -8.036200 -6.870400 -17.014100
N -7.984600 -8.341700 -15.117400
O -7.734600 -5.926100 -12.547900
C -7.669700 -7.684200 -13.948700
N -7.403200 -9.535500 -15.157700
C -7.264000 -4.924400 -17.801500
O -7.180800 -3.656800 -18.162500
C -6.846800 -8.507300 -13.201000
N -6.821800 -7.148600 -17.484800
C -6.740700 -9.645200 -14.020500
H -6.423400 -3.379100 -18.014400
H -6.389900 -7.547000 -11.781600
C -6.373100 -6.002100 -17.965900
O -6.282100 -8.324500 -12.018900
O -6.086500 -11.765400 -14.588600
N -6.010100 -10.863400 -13.772900
O -5.336100 -10.913600 -12.759600
N -5.098200 -5.970500 -18.650300
O -4.801700 -4.928700 -19.189000
O -4.413400 -6.968600 -18.663500
