29
Fragment
O -10.586500 -12.943500 -16.829800
O -9.741400 -10.954500 -16.942200
N -9.643400 -12.174100 -16.956400
H -9.617900 -14.788400 -16.022600
O -9.060100 -13.079000 -14.272000
H -8.865500 -15.867900 -16.880100
C -8.742400 -15.105200 -16.293800
C -8.341600 -12.721200 -17.194600
N -8.187800 -13.598800 -13.575300
N -8.036200 -14.040500 -17.014100
N -7.984600 -15.511800 -15.117400
O -7.734600 -13.096200 -12.547900
C -7.669700 -14.854300 -13.948700
N -7.403200 -16.705600 -15.157700
C -7.264000 -12.094500 -17.801500
O -7.180800 -10.826900 -18.162500
C -6.846800 -15.677400 -13.201000
N -6.821800 -14.318700 -17.484800
C -6.740700 -16.815300 -14.020500
H -6.423400 -10.549200 -18.014400
H -6.389900 -14.717100 -11.781600
C -6.373100 -13.172200 -17.965900
O -6.282100 -15.494600 -12.018900
O -6.086500 -18.935500 -14.588600
N -6.010100 -18.033500 -13.772900
O -5.336100 -18.083700 -12.759600
N -5.098200 -13.140600 -18.650300
O -4.801700 -12.098800 -19.189000
O -4.413400 -14.138700 -18.663500
29
Fragment
O -12.126800 -17.723800 -19.145600
O -11.738500 -15.683900 -18.620000
N -11.442000 -16.725700 -19.158800
O -11.204100 -21.668800 -25.049500
N -10.530100 -21.618600 -24.036200
O -10.453700 -22.520600 -23.220400
O -10.258100 -19.079600 -25.790100
C -10.167100 -16.757200 -19.843100
H -10.150300 -18.302100 -26.027500
H -10.116700 -14.134300 -19.794700
C -9.799500 -20.400400 -23.788500
N -9.718400 -17.903700 -20.324300
C -9.693400 -19.262500 -24.608000
O -9.359400 -14.411900 -19.646500
C -9.276200 -15.679600 -20.007600
N -9.136900 -20.290700 -22.651400
C -8.870500 -18.439300 -23.860400
O -8.805600 -16.681200 -25.261200
N -8.555600 -19.096800 -22.691700
N -8.504000 -17.625500 -20.795000
N -8.352400 -17.183900 -24.233700
C -8.198600 -16.306200 -20.614400
C -7.797800 -18.690300 -21.515300
H -7.674700 -19.452900 -20.928900
O -7.480100 -16.664000 -23.537100
H -6.922300 -18.373500 -21.786400
N -6.896800 -15.759200 -20.852600
O -6.798800 -14.539500 -20.866800
O -5.953700 -16.528500 -20.979300
58
Fragment
O -10.586500 -12.943500 -16.829800
O -9.741400 -10.954500 -16.942200
N -9.643400 -12.174100 -16.956400
H -9.617900 -14.788400 -16.022600
O -9.060100 -13.079000 -14.272000
H -8.865500 -15.867900 -16.880100
C -8.742400 -15.105200 -16.293800
C -8.341600 -12.721200 -17.194600
N -8.187800 -13.598800 -13.575300
N -8.036200 -14.040500 -17.014100
N -7.984600 -15.511800 -15.117400
O -7.734600 -13.096200 -12.547900
C -7.669700 -14.854300 -13.948700
N -7.403200 -16.705600 -15.157700
C -7.264000 -12.094500 -17.801500
O -7.180800 -10.826900 -18.162500
C -6.846800 -15.677400 -13.201000
N -6.821800 -14.318700 -17.484800
C -6.740700 -16.815300 -14.020500
H -6.423400 -10.549200 -18.014400
H -6.389900 -14.717100 -11.781600
C -6.373100 -13.172200 -17.965900
O -6.282100 -15.494600 -12.018900
O -6.086500 -18.935500 -14.588600
N -6.010100 -18.033500 -13.772900
O -5.336100 -18.083700 -12.759600
N -5.098200 -13.140600 -18.650300
O -4.801700 -12.098800 -19.189000
O -4.413400 -14.138700 -18.663500
O -12.126800 -17.723800 -19.145600
O -11.738500 -15.683900 -18.620000
N -11.442000 -16.725700 -19.158800
O -11.204100 -21.668800 -25.049500
N -10.530100 -21.618600 -24.036200
O -10.453700 -22.520600 -23.220400
O -10.258100 -19.079600 -25.790100
C -10.167100 -16.757200 -19.843100
H -10.150300 -18.302100 -26.027500
H -10.116700 -14.134300 -19.794700
C -9.799500 -20.400400 -23.788500
N -9.718400 -17.903700 -20.324300
C -9.693400 -19.262500 -24.608000
O -9.359400 -14.411900 -19.646500
C -9.276200 -15.679600 -20.007600
N -9.136900 -20.290700 -22.651400
C -8.870500 -18.439300 -23.860400
O -8.805600 -16.681200 -25.261200
N -8.555600 -19.096800 -22.691700
N -8.504000 -17.625500 -20.795000
N -8.352400 -17.183900 -24.233700
C -8.198600 -16.306200 -20.614400
C -7.797800 -18.690300 -21.515300
H -7.674700 -19.452900 -20.928900
O -7.480100 -16.664000 -23.537100
H -6.922300 -18.373500 -21.786400
N -6.896800 -15.759200 -20.852600
O -6.798800 -14.539500 -20.866800
O -5.953700 -16.528500 -20.979300
