29
Fragment
O -10.586500 -12.943500 -16.829800
O -9.741400 -10.954500 -16.942200
N -9.643400 -12.174100 -16.956400
H -9.617900 -14.788400 -16.022600
O -9.060100 -13.079000 -14.272000
H -8.865500 -15.867900 -16.880100
C -8.742400 -15.105200 -16.293800
C -8.341600 -12.721200 -17.194600
N -8.187800 -13.598800 -13.575300
N -8.036200 -14.040500 -17.014100
N -7.984600 -15.511800 -15.117400
O -7.734600 -13.096200 -12.547900
C -7.669700 -14.854300 -13.948700
N -7.403200 -16.705600 -15.157700
C -7.264000 -12.094500 -17.801500
O -7.180800 -10.826900 -18.162500
C -6.846800 -15.677400 -13.201000
N -6.821800 -14.318700 -17.484800
C -6.740700 -16.815300 -14.020500
H -6.423400 -10.549200 -18.014400
H -6.389900 -14.717100 -11.781600
C -6.373100 -13.172200 -17.965900
O -6.282100 -15.494600 -12.018900
O -6.086500 -18.935500 -14.588600
N -6.010100 -18.033500 -13.772900
O -5.336100 -18.083700 -12.759600
N -5.098200 -13.140600 -18.650300
O -4.801700 -12.098800 -19.189000
O -4.413400 -14.138700 -18.663500
29
Fragment
O -10.586500 -20.113600 -16.829800
O -9.741400 -18.124600 -16.942200
N -9.643400 -19.344200 -16.956400
H -9.617900 -21.958500 -16.022600
O -9.060100 -20.249100 -14.272000
H -8.865500 -23.038000 -16.880100
C -8.742400 -22.275300 -16.293800
C -8.341600 -19.891300 -17.194600
N -8.187800 -20.768900 -13.575300
N -8.036200 -21.210600 -17.014100
N -7.984600 -22.681900 -15.117400
O -7.734600 -20.266300 -12.547900
C -7.669700 -22.024400 -13.948700
N -7.403200 -23.875700 -15.157700
C -7.264000 -19.264600 -17.801500
O -7.180800 -17.997000 -18.162500
C -6.846800 -22.847500 -13.201000
N -6.821800 -21.488800 -17.484800
C -6.740700 -23.985400 -14.020500
H -6.423400 -17.719300 -18.014400
H -6.389900 -21.887200 -11.781600
C -6.373100 -20.342300 -17.965900
O -6.282100 -22.664700 -12.018900
O -6.086500 -26.105600 -14.588600
N -6.010100 -25.203600 -13.772900
O -5.336100 -25.253800 -12.759600
N -5.098200 -20.310700 -18.650300
O -4.801700 -19.268900 -19.189000
O -4.413400 -21.308800 -18.663500
58
Fragment
O -10.586500 -12.943500 -16.829800
O -9.741400 -10.954500 -16.942200
N -9.643400 -12.174100 -16.956400
H -9.617900 -14.788400 -16.022600
O -9.060100 -13.079000 -14.272000
H -8.865500 -15.867900 -16.880100
C -8.742400 -15.105200 -16.293800
C -8.341600 -12.721200 -17.194600
N -8.187800 -13.598800 -13.575300
N -8.036200 -14.040500 -17.014100
N -7.984600 -15.511800 -15.117400
O -7.734600 -13.096200 -12.547900
C -7.669700 -14.854300 -13.948700
N -7.403200 -16.705600 -15.157700
C -7.264000 -12.094500 -17.801500
O -7.180800 -10.826900 -18.162500
C -6.846800 -15.677400 -13.201000
N -6.821800 -14.318700 -17.484800
C -6.740700 -16.815300 -14.020500
H -6.423400 -10.549200 -18.014400
H -6.389900 -14.717100 -11.781600
C -6.373100 -13.172200 -17.965900
O -6.282100 -15.494600 -12.018900
O -6.086500 -18.935500 -14.588600
N -6.010100 -18.033500 -13.772900
O -5.336100 -18.083700 -12.759600
N -5.098200 -13.140600 -18.650300
O -4.801700 -12.098800 -19.189000
O -4.413400 -14.138700 -18.663500
O -10.586500 -20.113600 -16.829800
O -9.741400 -18.124600 -16.942200
N -9.643400 -19.344200 -16.956400
H -9.617900 -21.958500 -16.022600
O -9.060100 -20.249100 -14.272000
H -8.865500 -23.038000 -16.880100
C -8.742400 -22.275300 -16.293800
C -8.341600 -19.891300 -17.194600
N -8.187800 -20.768900 -13.575300
N -8.036200 -21.210600 -17.014100
N -7.984600 -22.681900 -15.117400
O -7.734600 -20.266300 -12.547900
C -7.669700 -22.024400 -13.948700
N -7.403200 -23.875700 -15.157700
C -7.264000 -19.264600 -17.801500
O -7.180800 -17.997000 -18.162500
C -6.846800 -22.847500 -13.201000
N -6.821800 -21.488800 -17.484800
C -6.740700 -23.985400 -14.020500
H -6.423400 -17.719300 -18.014400
H -6.389900 -21.887200 -11.781600
C -6.373100 -20.342300 -17.965900
O -6.282100 -22.664700 -12.018900
O -6.086500 -26.105600 -14.588600
N -6.010100 -25.203600 -13.772900
O -5.336100 -25.253800 -12.759600
N -5.098200 -20.310700 -18.650300
O -4.801700 -19.268900 -19.189000
O -4.413400 -21.308800 -18.663500
