35
Fragment
H -7.032200 -6.105600 -19.599200
H -6.938200 -6.796000 -14.976200
H -6.678800 -6.761500 -21.804800
H -6.580800 -6.339500 -17.374400
C -6.418100 -6.803900 -19.794000
C -6.203700 -7.190800 -21.104000
H -6.074700 -7.984900 -25.991100
N -5.994900 -6.993300 -17.441900
C -5.965100 -6.696000 -15.046800
O -5.749500 -8.220700 -25.253500
H -5.738800 -5.745700 -15.120300
C -5.733200 -7.440200 -18.755600
H -5.540000 -7.072100 -14.248300
C -5.471900 -7.427000 -16.270300
C -5.295800 -8.205100 -21.405900
N -5.141900 -8.535500 -22.775900
H -5.092300 -9.284200 -27.474700
C -4.845900 -9.203100 -25.453300
C -4.823100 -8.463900 -19.053600
O -4.664600 -8.352000 -16.180900
C -4.619200 -9.666600 -26.745400
C -4.612500 -8.838600 -20.365100
H -4.351900 -8.899400 -18.352300
N -4.286500 -9.442700 -23.021400
C -4.139100 -9.783800 -24.380500
H -3.996300 -9.533800 -20.562300
C -3.704100 -10.683700 -26.971800
H -3.556200 -10.982900 -27.861400
C -3.221600 -10.808500 -24.644200
C -2.990300 -11.285000 -25.922000
H -2.741500 -11.189500 -23.919300
H -2.520400 -13.171300 -26.585100
C -2.035100 -12.423000 -26.180800
H -1.633400 -12.711300 -25.335300
H -1.329400 -12.124600 -26.792400
35
Fragment
H -12.547400 -0.802600 -19.780000
H -12.357000 -0.216000 -21.257800
C -11.898400 -0.443800 -20.421100
H -11.480700 0.359500 -20.047600
H -11.150800 -1.660200 -22.681200
C -10.837500 -1.481100 -20.696100
C -10.604400 -1.964800 -21.966500
H -10.192100 -1.676000 -18.771300
C -10.034600 -1.974500 -19.659500
H -9.888400 -3.245400 -25.995500
C -9.589300 -2.890000 -22.235500
H -9.563000 -3.868100 -28.205500
N -9.457200 -3.258700 -23.589600
C -9.211100 -3.871800 -26.219000
C -9.020600 -2.883900 -19.894700
C -9.016300 -4.247400 -27.527700
C -8.771400 -3.351400 -21.181900
N -8.524000 -4.081900 -23.843700
H -8.489300 -3.193100 -19.169800
H -8.401400 -6.727400 -31.540400
C -8.399600 -4.424500 -25.219500
H -8.380600 -4.943100 -29.793600
C -8.029200 -5.174100 -27.880400
N -7.929700 -5.473100 -29.256400
O -7.755900 -4.216400 -21.391800
C -7.451600 -6.565500 -31.359600
C -7.418100 -5.330500 -25.560200
H -7.378000 -4.387700 -20.660800
C -7.230500 -6.471700 -29.865600
C -7.225800 -5.730200 -26.881300
H -7.176900 -5.726000 -31.784500
H -6.919200 -7.305200 -31.722700
H -6.861800 -5.690800 -24.879400
H -6.558100 -6.370000 -27.099800
O -6.488500 -7.238900 -29.268800
70
Fragment
H -7.032200 -6.105600 -19.599200
H -6.938200 -6.796000 -14.976200
H -6.678800 -6.761500 -21.804800
H -6.580800 -6.339500 -17.374400
C -6.418100 -6.803900 -19.794000
C -6.203700 -7.190800 -21.104000
H -6.074700 -7.984900 -25.991100
N -5.994900 -6.993300 -17.441900
C -5.965100 -6.696000 -15.046800
O -5.749500 -8.220700 -25.253500
H -5.738800 -5.745700 -15.120300
C -5.733200 -7.440200 -18.755600
H -5.540000 -7.072100 -14.248300
C -5.471900 -7.427000 -16.270300
C -5.295800 -8.205100 -21.405900
N -5.141900 -8.535500 -22.775900
H -5.092300 -9.284200 -27.474700
C -4.845900 -9.203100 -25.453300
C -4.823100 -8.463900 -19.053600
O -4.664600 -8.352000 -16.180900
C -4.619200 -9.666600 -26.745400
C -4.612500 -8.838600 -20.365100
H -4.351900 -8.899400 -18.352300
N -4.286500 -9.442700 -23.021400
C -4.139100 -9.783800 -24.380500
H -3.996300 -9.533800 -20.562300
C -3.704100 -10.683700 -26.971800
H -3.556200 -10.982900 -27.861400
C -3.221600 -10.808500 -24.644200
C -2.990300 -11.285000 -25.922000
H -2.741500 -11.189500 -23.919300
H -2.520400 -13.171300 -26.585100
C -2.035100 -12.423000 -26.180800
H -1.633400 -12.711300 -25.335300
H -1.329400 -12.124600 -26.792400
H -12.547400 -0.802600 -19.780000
H -12.357000 -0.216000 -21.257800
C -11.898400 -0.443800 -20.421100
H -11.480700 0.359500 -20.047600
H -11.150800 -1.660200 -22.681200
C -10.837500 -1.481100 -20.696100
C -10.604400 -1.964800 -21.966500
H -10.192100 -1.676000 -18.771300
C -10.034600 -1.974500 -19.659500
H -9.888400 -3.245400 -25.995500
C -9.589300 -2.890000 -22.235500
H -9.563000 -3.868100 -28.205500
N -9.457200 -3.258700 -23.589600
C -9.211100 -3.871800 -26.219000
C -9.020600 -2.883900 -19.894700
C -9.016300 -4.247400 -27.527700
C -8.771400 -3.351400 -21.181900
N -8.524000 -4.081900 -23.843700
H -8.489300 -3.193100 -19.169800
H -8.401400 -6.727400 -31.540400
C -8.399600 -4.424500 -25.219500
H -8.380600 -4.943100 -29.793600
C -8.029200 -5.174100 -27.880400
N -7.929700 -5.473100 -29.256400
O -7.755900 -4.216400 -21.391800
C -7.451600 -6.565500 -31.359600
C -7.418100 -5.330500 -25.560200
H -7.378000 -4.387700 -20.660800
C -7.230500 -6.471700 -29.865600
C -7.225800 -5.730200 -26.881300
H -7.176900 -5.726000 -31.784500
H -6.919200 -7.305200 -31.722700
H -6.861800 -5.690800 -24.879400
H -6.558100 -6.370000 -27.099800
O -6.488500 -7.238900 -29.268800
