35
Fragment
H -7.032200 -6.105600 -19.599200
H -6.938200 -6.796000 -14.976200
H -6.678800 -6.761500 -21.804800
H -6.580800 -6.339500 -17.374400
C -6.418100 -6.803900 -19.794000
C -6.203700 -7.190800 -21.104000
H -6.074700 -7.984900 -25.991100
N -5.994900 -6.993300 -17.441900
C -5.965100 -6.696000 -15.046800
O -5.749500 -8.220700 -25.253500
H -5.738800 -5.745700 -15.120300
C -5.733200 -7.440200 -18.755600
H -5.540000 -7.072100 -14.248300
C -5.471900 -7.427000 -16.270300
C -5.295800 -8.205100 -21.405900
N -5.141900 -8.535500 -22.775900
H -5.092300 -9.284200 -27.474700
C -4.845900 -9.203100 -25.453300
C -4.823100 -8.463900 -19.053600
O -4.664600 -8.352000 -16.180900
C -4.619200 -9.666600 -26.745400
C -4.612500 -8.838600 -20.365100
H -4.351900 -8.899400 -18.352300
N -4.286500 -9.442700 -23.021400
C -4.139100 -9.783800 -24.380500
H -3.996300 -9.533800 -20.562300
C -3.704100 -10.683700 -26.971800
H -3.556200 -10.982900 -27.861400
C -3.221600 -10.808500 -24.644200
C -2.990300 -11.285000 -25.922000
H -2.741500 -11.189500 -23.919300
H -2.520400 -13.171300 -26.585100
C -2.035100 -12.423000 -26.180800
H -1.633400 -12.711300 -25.335300
H -1.329400 -12.124600 -26.792400
35
Fragment
O -14.332900 -1.549800 -14.843700
H -14.263300 -2.418700 -17.012700
H -13.959600 -3.097900 -19.233000
H -13.902100 -1.483500 -12.389700
H -13.644500 -3.062700 -12.328000
C -13.595600 -3.058500 -17.231200
C -13.590900 -2.317000 -14.246900
H -13.443300 -4.401100 -23.451700
C -13.403300 -3.458200 -18.552200
C -13.369800 -2.223200 -12.752900
O -13.065500 -4.572300 -22.720700
N -12.891700 -3.315600 -14.856100
C -12.792200 -3.614600 -16.232100
H -12.440800 -3.845600 -14.318900
C -12.421800 -4.364200 -18.892900
H -12.420000 -2.061300 -12.572100
H -12.332000 -5.595600 -24.942700
N -12.297400 -4.706800 -20.268800
C -12.049900 -5.437300 -22.930500
C -11.805100 -4.541300 -16.584800
C -11.800800 -5.904800 -24.217700
C -11.610300 -4.916900 -17.893500
N -11.364200 -5.530000 -20.522900
H -11.258400 -4.920700 -15.907000
C -11.232100 -5.898700 -21.877000
H -10.933000 -5.543300 -18.117000
C -10.786800 -6.814300 -24.453000
H -10.629300 -7.112800 -25.341100
C -10.217000 -6.823900 -22.145900
C -9.983900 -7.307600 -23.416400
H -9.670600 -7.128500 -21.431300
H -9.340700 -9.148200 -24.064800
C -8.923000 -8.345000 -23.691300
H -8.464400 -8.572700 -22.854700
H -8.274000 -7.986100 -24.332400
70
Fragment
H -7.032200 -6.105600 -19.599200
H -6.938200 -6.796000 -14.976200
H -6.678800 -6.761500 -21.804800
H -6.580800 -6.339500 -17.374400
C -6.418100 -6.803900 -19.794000
C -6.203700 -7.190800 -21.104000
H -6.074700 -7.984900 -25.991100
N -5.994900 -6.993300 -17.441900
C -5.965100 -6.696000 -15.046800
O -5.749500 -8.220700 -25.253500
H -5.738800 -5.745700 -15.120300
C -5.733200 -7.440200 -18.755600
H -5.540000 -7.072100 -14.248300
C -5.471900 -7.427000 -16.270300
C -5.295800 -8.205100 -21.405900
N -5.141900 -8.535500 -22.775900
H -5.092300 -9.284200 -27.474700
C -4.845900 -9.203100 -25.453300
C -4.823100 -8.463900 -19.053600
O -4.664600 -8.352000 -16.180900
C -4.619200 -9.666600 -26.745400
C -4.612500 -8.838600 -20.365100
H -4.351900 -8.899400 -18.352300
N -4.286500 -9.442700 -23.021400
C -4.139100 -9.783800 -24.380500
H -3.996300 -9.533800 -20.562300
C -3.704100 -10.683700 -26.971800
H -3.556200 -10.982900 -27.861400
C -3.221600 -10.808500 -24.644200
C -2.990300 -11.285000 -25.922000
H -2.741500 -11.189500 -23.919300
H -2.520400 -13.171300 -26.585100
C -2.035100 -12.423000 -26.180800
H -1.633400 -12.711300 -25.335300
H -1.329400 -12.124600 -26.792400
O -14.332900 -1.549800 -14.843700
H -14.263300 -2.418700 -17.012700
H -13.959600 -3.097900 -19.233000
H -13.902100 -1.483500 -12.389700
H -13.644500 -3.062700 -12.328000
C -13.595600 -3.058500 -17.231200
C -13.590900 -2.317000 -14.246900
H -13.443300 -4.401100 -23.451700
C -13.403300 -3.458200 -18.552200
C -13.369800 -2.223200 -12.752900
O -13.065500 -4.572300 -22.720700
N -12.891700 -3.315600 -14.856100
C -12.792200 -3.614600 -16.232100
H -12.440800 -3.845600 -14.318900
C -12.421800 -4.364200 -18.892900
H -12.420000 -2.061300 -12.572100
H -12.332000 -5.595600 -24.942700
N -12.297400 -4.706800 -20.268800
C -12.049900 -5.437300 -22.930500
C -11.805100 -4.541300 -16.584800
C -11.800800 -5.904800 -24.217700
C -11.610300 -4.916900 -17.893500
N -11.364200 -5.530000 -20.522900
H -11.258400 -4.920700 -15.907000
C -11.232100 -5.898700 -21.877000
H -10.933000 -5.543300 -18.117000
C -10.786800 -6.814300 -24.453000
H -10.629300 -7.112800 -25.341100
C -10.217000 -6.823900 -22.145900
C -9.983900 -7.307600 -23.416400
H -9.670600 -7.128500 -21.431300
H -9.340700 -9.148200 -24.064800
C -8.923000 -8.345000 -23.691300
H -8.464400 -8.572700 -22.854700
H -8.274000 -7.986100 -24.332400
