35
Fragment
H -7.032200 -6.105600 -19.599200
H -6.938200 -6.796000 -14.976200
H -6.678800 -6.761500 -21.804800
H -6.580800 -6.339500 -17.374400
C -6.418100 -6.803900 -19.794000
C -6.203700 -7.190800 -21.104000
H -6.074700 -7.984900 -25.991100
N -5.994900 -6.993300 -17.441900
C -5.965100 -6.696000 -15.046800
O -5.749500 -8.220700 -25.253500
H -5.738800 -5.745700 -15.120300
C -5.733200 -7.440200 -18.755600
H -5.540000 -7.072100 -14.248300
C -5.471900 -7.427000 -16.270300
C -5.295800 -8.205100 -21.405900
N -5.141900 -8.535500 -22.775900
H -5.092300 -9.284200 -27.474700
C -4.845900 -9.203100 -25.453300
C -4.823100 -8.463900 -19.053600
O -4.664600 -8.352000 -16.180900
C -4.619200 -9.666600 -26.745400
C -4.612500 -8.838600 -20.365100
H -4.351900 -8.899400 -18.352300
N -4.286500 -9.442700 -23.021400
C -4.139100 -9.783800 -24.380500
H -3.996300 -9.533800 -20.562300
C -3.704100 -10.683700 -26.971800
H -3.556200 -10.982900 -27.861400
C -3.221600 -10.808500 -24.644200
C -2.990300 -11.285000 -25.922000
H -2.741500 -11.189500 -23.919300
H -2.520400 -13.171300 -26.585100
C -2.035100 -12.423000 -26.180800
H -1.633400 -12.711300 -25.335300
H -1.329400 -12.124600 -26.792400
6
Fragment
H -5.277900 -9.294700 -30.418500
C -4.351800 -9.292600 -30.671400
H -4.217700 -8.667500 -31.387500
C -3.965800 -10.623600 -31.109600
H -3.815200 -9.035200 -29.917100
N -3.632000 -11.650700 -31.461000
41
Fragment
H -7.032200 -6.105600 -19.599200
H -6.938200 -6.796000 -14.976200
H -6.678800 -6.761500 -21.804800
H -6.580800 -6.339500 -17.374400
C -6.418100 -6.803900 -19.794000
C -6.203700 -7.190800 -21.104000
H -6.074700 -7.984900 -25.991100
N -5.994900 -6.993300 -17.441900
C -5.965100 -6.696000 -15.046800
O -5.749500 -8.220700 -25.253500
H -5.738800 -5.745700 -15.120300
C -5.733200 -7.440200 -18.755600
H -5.540000 -7.072100 -14.248300
C -5.471900 -7.427000 -16.270300
C -5.295800 -8.205100 -21.405900
N -5.141900 -8.535500 -22.775900
H -5.092300 -9.284200 -27.474700
C -4.845900 -9.203100 -25.453300
C -4.823100 -8.463900 -19.053600
O -4.664600 -8.352000 -16.180900
C -4.619200 -9.666600 -26.745400
C -4.612500 -8.838600 -20.365100
H -4.351900 -8.899400 -18.352300
N -4.286500 -9.442700 -23.021400
C -4.139100 -9.783800 -24.380500
H -3.996300 -9.533800 -20.562300
C -3.704100 -10.683700 -26.971800
H -3.556200 -10.982900 -27.861400
C -3.221600 -10.808500 -24.644200
C -2.990300 -11.285000 -25.922000
H -2.741500 -11.189500 -23.919300
H -2.520400 -13.171300 -26.585100
C -2.035100 -12.423000 -26.180800
H -1.633400 -12.711300 -25.335300
H -1.329400 -12.124600 -26.792400
H -5.277900 -9.294700 -30.418500
C -4.351800 -9.292600 -30.671400
H -4.217700 -8.667500 -31.387500
C -3.965800 -10.623600 -31.109600
H -3.815200 -9.035200 -29.917100
N -3.632000 -11.650700 -31.461000
