35
Fragment
H -7.032200 -6.105600 -19.599200
H -6.938200 -6.796000 -14.976200
H -6.678800 -6.761500 -21.804800
H -6.580800 -6.339500 -17.374400
C -6.418100 -6.803900 -19.794000
C -6.203700 -7.190800 -21.104000
H -6.074700 -7.984900 -25.991100
N -5.994900 -6.993300 -17.441900
C -5.965100 -6.696000 -15.046800
O -5.749500 -8.220700 -25.253500
H -5.738800 -5.745700 -15.120300
C -5.733200 -7.440200 -18.755600
H -5.540000 -7.072100 -14.248300
C -5.471900 -7.427000 -16.270300
C -5.295800 -8.205100 -21.405900
N -5.141900 -8.535500 -22.775900
H -5.092300 -9.284200 -27.474700
C -4.845900 -9.203100 -25.453300
C -4.823100 -8.463900 -19.053600
O -4.664600 -8.352000 -16.180900
C -4.619200 -9.666600 -26.745400
C -4.612500 -8.838600 -20.365100
H -4.351900 -8.899400 -18.352300
N -4.286500 -9.442700 -23.021400
C -4.139100 -9.783800 -24.380500
H -3.996300 -9.533800 -20.562300
C -3.704100 -10.683700 -26.971800
H -3.556200 -10.982900 -27.861400
C -3.221600 -10.808500 -24.644200
C -2.990300 -11.285000 -25.922000
H -2.741500 -11.189500 -23.919300
H -2.520400 -13.171300 -26.585100
C -2.035100 -12.423000 -26.180800
H -1.633400 -12.711300 -25.335300
H -1.329400 -12.124600 -26.792400
35
Fragment
H -3.310300 -12.565200 -19.780000
H -3.119900 -11.978600 -21.257800
C -2.661300 -12.206300 -20.421100
H -2.243600 -11.403000 -20.047600
H -1.913700 -13.422700 -22.681200
C -1.600400 -13.243700 -20.696100
C -1.367300 -13.727300 -21.966500
H -0.955000 -13.438500 -18.771300
C -0.797500 -13.737000 -19.659500
H -0.651200 -15.008000 -25.995500
C -0.352200 -14.652600 -22.235500
H -0.325900 -15.630600 -28.205500
N -0.220100 -15.021300 -23.589600
C 0.026100 -15.634400 -26.219000
C 0.216500 -14.646500 -19.894700
C 0.220800 -16.010000 -27.527700
C 0.465700 -15.113900 -21.181900
N 0.713100 -15.844400 -23.843700
H 0.747800 -14.955700 -19.169800
H 0.835700 -18.489900 -31.540400
C 0.837600 -16.187000 -25.219500
H 0.856500 -16.705700 -29.793600
C 1.207900 -16.936600 -27.880400
N 1.307500 -17.235600 -29.256400
O 1.481200 -15.979000 -21.391800
C 1.785500 -18.328000 -31.359600
C 1.819000 -17.093000 -25.560200
H 1.859100 -16.150200 -20.660800
C 2.006600 -18.234300 -29.865600
C 2.011400 -17.492700 -26.881300
H 2.060200 -17.488600 -31.784500
H 2.317900 -19.067700 -31.722700
H 2.375300 -17.453400 -24.879400
H 2.679000 -18.132500 -27.099800
O 2.748600 -19.001400 -29.268800
70
Fragment
H -7.032200 -6.105600 -19.599200
H -6.938200 -6.796000 -14.976200
H -6.678800 -6.761500 -21.804800
H -6.580800 -6.339500 -17.374400
C -6.418100 -6.803900 -19.794000
C -6.203700 -7.190800 -21.104000
H -6.074700 -7.984900 -25.991100
N -5.994900 -6.993300 -17.441900
C -5.965100 -6.696000 -15.046800
O -5.749500 -8.220700 -25.253500
H -5.738800 -5.745700 -15.120300
C -5.733200 -7.440200 -18.755600
H -5.540000 -7.072100 -14.248300
C -5.471900 -7.427000 -16.270300
C -5.295800 -8.205100 -21.405900
N -5.141900 -8.535500 -22.775900
H -5.092300 -9.284200 -27.474700
C -4.845900 -9.203100 -25.453300
C -4.823100 -8.463900 -19.053600
O -4.664600 -8.352000 -16.180900
C -4.619200 -9.666600 -26.745400
C -4.612500 -8.838600 -20.365100
H -4.351900 -8.899400 -18.352300
N -4.286500 -9.442700 -23.021400
C -4.139100 -9.783800 -24.380500
H -3.996300 -9.533800 -20.562300
C -3.704100 -10.683700 -26.971800
H -3.556200 -10.982900 -27.861400
C -3.221600 -10.808500 -24.644200
C -2.990300 -11.285000 -25.922000
H -2.741500 -11.189500 -23.919300
H -2.520400 -13.171300 -26.585100
C -2.035100 -12.423000 -26.180800
H -1.633400 -12.711300 -25.335300
H -1.329400 -12.124600 -26.792400
H -3.310300 -12.565200 -19.780000
H -3.119900 -11.978600 -21.257800
C -2.661300 -12.206300 -20.421100
H -2.243600 -11.403000 -20.047600
H -1.913700 -13.422700 -22.681200
C -1.600400 -13.243700 -20.696100
C -1.367300 -13.727300 -21.966500
H -0.955000 -13.438500 -18.771300
C -0.797500 -13.737000 -19.659500
H -0.651200 -15.008000 -25.995500
C -0.352200 -14.652600 -22.235500
H -0.325900 -15.630600 -28.205500
N -0.220100 -15.021300 -23.589600
C 0.026100 -15.634400 -26.219000
C 0.216500 -14.646500 -19.894700
C 0.220800 -16.010000 -27.527700
C 0.465700 -15.113900 -21.181900
N 0.713100 -15.844400 -23.843700
H 0.747800 -14.955700 -19.169800
H 0.835700 -18.489900 -31.540400
C 0.837600 -16.187000 -25.219500
H 0.856500 -16.705700 -29.793600
C 1.207900 -16.936600 -27.880400
N 1.307500 -17.235600 -29.256400
O 1.481200 -15.979000 -21.391800
C 1.785500 -18.328000 -31.359600
C 1.819000 -17.093000 -25.560200
H 1.859100 -16.150200 -20.660800
C 2.006600 -18.234300 -29.865600
C 2.011400 -17.492700 -26.881300
H 2.060200 -17.488600 -31.784500
H 2.317900 -19.067700 -31.722700
H 2.375300 -17.453400 -24.879400
H 2.679000 -18.132500 -27.099800
O 2.748600 -19.001400 -29.268800
