35
Fragment
H -7.032200 -6.105600 -19.599200
H -6.938200 -6.796000 -14.976200
H -6.678800 -6.761500 -21.804800
H -6.580800 -6.339500 -17.374400
C -6.418100 -6.803900 -19.794000
C -6.203700 -7.190800 -21.104000
H -6.074700 -7.984900 -25.991100
N -5.994900 -6.993300 -17.441900
C -5.965100 -6.696000 -15.046800
O -5.749500 -8.220700 -25.253500
H -5.738800 -5.745700 -15.120300
C -5.733200 -7.440200 -18.755600
H -5.540000 -7.072100 -14.248300
C -5.471900 -7.427000 -16.270300
C -5.295800 -8.205100 -21.405900
N -5.141900 -8.535500 -22.775900
H -5.092300 -9.284200 -27.474700
C -4.845900 -9.203100 -25.453300
C -4.823100 -8.463900 -19.053600
O -4.664600 -8.352000 -16.180900
C -4.619200 -9.666600 -26.745400
C -4.612500 -8.838600 -20.365100
H -4.351900 -8.899400 -18.352300
N -4.286500 -9.442700 -23.021400
C -4.139100 -9.783800 -24.380500
H -3.996300 -9.533800 -20.562300
C -3.704100 -10.683700 -26.971800
H -3.556200 -10.982900 -27.861400
C -3.221600 -10.808500 -24.644200
C -2.990300 -11.285000 -25.922000
H -2.741500 -11.189500 -23.919300
H -2.520400 -13.171300 -26.585100
C -2.035100 -12.423000 -26.180800
H -1.633400 -12.711300 -25.335300
H -1.329400 -12.124600 -26.792400
35
Fragment
H -6.393400 -1.576300 -2.615900
H -6.089500 -0.989500 -4.073100
C -5.687800 -1.277800 -3.227600
H -5.202400 -0.529500 -2.823200
H -4.981300 -2.511400 -5.489100
C -4.732500 -2.415900 -3.486400
C -4.501200 -2.892400 -4.764100
H -4.166600 -2.717900 -1.546900
C -4.018800 -3.017100 -2.436500
H -3.726500 -4.167100 -8.846000
C -3.583800 -3.917000 -5.027800
N -3.436300 -4.258100 -6.386900
H -3.370900 -4.801500 -11.056100
C -3.110300 -4.862300 -9.043200
C -3.103700 -4.034200 -2.662900
O -3.058200 -5.348800 -13.227400
C -2.899700 -5.236900 -10.354700
C -2.877000 -4.497700 -3.955000
H -2.630500 -4.416700 -1.933600
N -2.580900 -5.165300 -6.632500
C -2.427100 -5.495800 -8.002400
C -2.250900 -6.273800 -13.138000
H -2.182900 -6.628700 -15.160000
C -1.989700 -6.260700 -10.652700
H -1.984100 -7.955100 -14.288000
O -1.973300 -5.480200 -4.154800
C -1.757800 -7.004900 -14.361500
N -1.727900 -6.707600 -11.966400
H -1.648200 -5.716000 -3.417200
C -1.519100 -6.510000 -8.304300
C -1.304700 -6.896900 -9.614300
H -1.142000 -7.361400 -12.033900
H -1.044000 -6.939400 -7.603500
H -0.784700 -6.904800 -14.432100
H -0.690600 -7.595200 -9.809100
70
Fragment
H -7.032200 -6.105600 -19.599200
H -6.938200 -6.796000 -14.976200
H -6.678800 -6.761500 -21.804800
H -6.580800 -6.339500 -17.374400
C -6.418100 -6.803900 -19.794000
C -6.203700 -7.190800 -21.104000
H -6.074700 -7.984900 -25.991100
N -5.994900 -6.993300 -17.441900
C -5.965100 -6.696000 -15.046800
O -5.749500 -8.220700 -25.253500
H -5.738800 -5.745700 -15.120300
C -5.733200 -7.440200 -18.755600
H -5.540000 -7.072100 -14.248300
C -5.471900 -7.427000 -16.270300
C -5.295800 -8.205100 -21.405900
N -5.141900 -8.535500 -22.775900
H -5.092300 -9.284200 -27.474700
C -4.845900 -9.203100 -25.453300
C -4.823100 -8.463900 -19.053600
O -4.664600 -8.352000 -16.180900
C -4.619200 -9.666600 -26.745400
C -4.612500 -8.838600 -20.365100
H -4.351900 -8.899400 -18.352300
N -4.286500 -9.442700 -23.021400
C -4.139100 -9.783800 -24.380500
H -3.996300 -9.533800 -20.562300
C -3.704100 -10.683700 -26.971800
H -3.556200 -10.982900 -27.861400
C -3.221600 -10.808500 -24.644200
C -2.990300 -11.285000 -25.922000
H -2.741500 -11.189500 -23.919300
H -2.520400 -13.171300 -26.585100
C -2.035100 -12.423000 -26.180800
H -1.633400 -12.711300 -25.335300
H -1.329400 -12.124600 -26.792400
H -6.393400 -1.576300 -2.615900
H -6.089500 -0.989500 -4.073100
C -5.687800 -1.277800 -3.227600
H -5.202400 -0.529500 -2.823200
H -4.981300 -2.511400 -5.489100
C -4.732500 -2.415900 -3.486400
C -4.501200 -2.892400 -4.764100
H -4.166600 -2.717900 -1.546900
C -4.018800 -3.017100 -2.436500
H -3.726500 -4.167100 -8.846000
C -3.583800 -3.917000 -5.027800
N -3.436300 -4.258100 -6.386900
H -3.370900 -4.801500 -11.056100
C -3.110300 -4.862300 -9.043200
C -3.103700 -4.034200 -2.662900
O -3.058200 -5.348800 -13.227400
C -2.899700 -5.236900 -10.354700
C -2.877000 -4.497700 -3.955000
H -2.630500 -4.416700 -1.933600
N -2.580900 -5.165300 -6.632500
C -2.427100 -5.495800 -8.002400
C -2.250900 -6.273800 -13.138000
H -2.182900 -6.628700 -15.160000
C -1.989700 -6.260700 -10.652700
H -1.984100 -7.955100 -14.288000
O -1.973300 -5.480200 -4.154800
C -1.757800 -7.004900 -14.361500
N -1.727900 -6.707600 -11.966400
H -1.648200 -5.716000 -3.417200
C -1.519100 -6.510000 -8.304300
C -1.304700 -6.896900 -9.614300
H -1.142000 -7.361400 -12.033900
H -1.044000 -6.939400 -7.603500
H -0.784700 -6.904800 -14.432100
H -0.690600 -7.595200 -9.809100
