35
Fragment
H -7.032200 -6.105600 -19.599200
H -6.938200 -6.796000 -14.976200
H -6.678800 -6.761500 -21.804800
H -6.580800 -6.339500 -17.374400
C -6.418100 -6.803900 -19.794000
C -6.203700 -7.190800 -21.104000
H -6.074700 -7.984900 -25.991100
N -5.994900 -6.993300 -17.441900
C -5.965100 -6.696000 -15.046800
O -5.749500 -8.220700 -25.253500
H -5.738800 -5.745700 -15.120300
C -5.733200 -7.440200 -18.755600
H -5.540000 -7.072100 -14.248300
C -5.471900 -7.427000 -16.270300
C -5.295800 -8.205100 -21.405900
N -5.141900 -8.535500 -22.775900
H -5.092300 -9.284200 -27.474700
C -4.845900 -9.203100 -25.453300
C -4.823100 -8.463900 -19.053600
O -4.664600 -8.352000 -16.180900
C -4.619200 -9.666600 -26.745400
C -4.612500 -8.838600 -20.365100
H -4.351900 -8.899400 -18.352300
N -4.286500 -9.442700 -23.021400
C -4.139100 -9.783800 -24.380500
H -3.996300 -9.533800 -20.562300
C -3.704100 -10.683700 -26.971800
H -3.556200 -10.982900 -27.861400
C -3.221600 -10.808500 -24.644200
C -2.990300 -11.285000 -25.922000
H -2.741500 -11.189500 -23.919300
H -2.520400 -13.171300 -26.585100
C -2.035100 -12.423000 -26.180800
H -1.633400 -12.711300 -25.335300
H -1.329400 -12.124600 -26.792400
35
Fragment
H -10.254900 -8.426700 -17.320000
H -9.950900 -7.839900 -18.777200
C -9.549200 -8.128200 -17.931700
H -9.063800 -7.380000 -17.527400
H -8.842800 -9.361800 -20.193200
C -8.593900 -9.266300 -18.190500
C -8.362600 -9.742800 -19.468300
H -8.028000 -9.568400 -16.251000
C -7.880200 -9.867500 -17.140600
H -7.587900 -11.017500 -23.550200
C -7.445200 -10.767400 -19.731900
N -7.297800 -11.108600 -21.091100
H -7.232300 -11.651900 -25.760200
C -6.971800 -11.712700 -23.747400
C -6.965100 -10.884600 -17.367100
O -6.919600 -12.199200 -27.931600
C -6.761200 -12.087400 -25.058800
C -6.738400 -11.348100 -18.659100
H -6.492000 -11.267100 -16.637800
N -6.442300 -12.015800 -21.336600
C -6.288500 -12.346200 -22.706600
C -6.112300 -13.124200 -27.842200
H -6.044300 -13.479200 -29.864100
C -5.851100 -13.111100 -25.356900
H -5.845500 -14.805600 -28.992200
O -5.834800 -12.330600 -18.859000
C -5.619200 -13.855300 -29.065700
N -5.589400 -13.558000 -26.670500
H -5.509600 -12.566400 -18.121400
C -5.380600 -13.360400 -23.008500
C -5.166100 -13.747400 -24.318500
H -5.003500 -14.211800 -26.738000
H -4.905500 -13.789800 -22.307700
H -4.646100 -13.755300 -29.136300
H -4.552100 -14.445700 -24.513300
70
Fragment
H -7.032200 -6.105600 -19.599200
H -6.938200 -6.796000 -14.976200
H -6.678800 -6.761500 -21.804800
H -6.580800 -6.339500 -17.374400
C -6.418100 -6.803900 -19.794000
C -6.203700 -7.190800 -21.104000
H -6.074700 -7.984900 -25.991100
N -5.994900 -6.993300 -17.441900
C -5.965100 -6.696000 -15.046800
O -5.749500 -8.220700 -25.253500
H -5.738800 -5.745700 -15.120300
C -5.733200 -7.440200 -18.755600
H -5.540000 -7.072100 -14.248300
C -5.471900 -7.427000 -16.270300
C -5.295800 -8.205100 -21.405900
N -5.141900 -8.535500 -22.775900
H -5.092300 -9.284200 -27.474700
C -4.845900 -9.203100 -25.453300
C -4.823100 -8.463900 -19.053600
O -4.664600 -8.352000 -16.180900
C -4.619200 -9.666600 -26.745400
C -4.612500 -8.838600 -20.365100
H -4.351900 -8.899400 -18.352300
N -4.286500 -9.442700 -23.021400
C -4.139100 -9.783800 -24.380500
H -3.996300 -9.533800 -20.562300
C -3.704100 -10.683700 -26.971800
H -3.556200 -10.982900 -27.861400
C -3.221600 -10.808500 -24.644200
C -2.990300 -11.285000 -25.922000
H -2.741500 -11.189500 -23.919300
H -2.520400 -13.171300 -26.585100
C -2.035100 -12.423000 -26.180800
H -1.633400 -12.711300 -25.335300
H -1.329400 -12.124600 -26.792400
H -10.254900 -8.426700 -17.320000
H -9.950900 -7.839900 -18.777200
C -9.549200 -8.128200 -17.931700
H -9.063800 -7.380000 -17.527400
H -8.842800 -9.361800 -20.193200
C -8.593900 -9.266300 -18.190500
C -8.362600 -9.742800 -19.468300
H -8.028000 -9.568400 -16.251000
C -7.880200 -9.867500 -17.140600
H -7.587900 -11.017500 -23.550200
C -7.445200 -10.767400 -19.731900
N -7.297800 -11.108600 -21.091100
H -7.232300 -11.651900 -25.760200
C -6.971800 -11.712700 -23.747400
C -6.965100 -10.884600 -17.367100
O -6.919600 -12.199200 -27.931600
C -6.761200 -12.087400 -25.058800
C -6.738400 -11.348100 -18.659100
H -6.492000 -11.267100 -16.637800
N -6.442300 -12.015800 -21.336600
C -6.288500 -12.346200 -22.706600
C -6.112300 -13.124200 -27.842200
H -6.044300 -13.479200 -29.864100
C -5.851100 -13.111100 -25.356900
H -5.845500 -14.805600 -28.992200
O -5.834800 -12.330600 -18.859000
C -5.619200 -13.855300 -29.065700
N -5.589400 -13.558000 -26.670500
H -5.509600 -12.566400 -18.121400
C -5.380600 -13.360400 -23.008500
C -5.166100 -13.747400 -24.318500
H -5.003500 -14.211800 -26.738000
H -4.905500 -13.789800 -22.307700
H -4.646100 -13.755300 -29.136300
H -4.552100 -14.445700 -24.513300
