35
Fragment
H -7.032200 -6.105600 -19.599200
H -6.938200 -6.796000 -14.976200
H -6.678800 -6.761500 -21.804800
H -6.580800 -6.339500 -17.374400
C -6.418100 -6.803900 -19.794000
C -6.203700 -7.190800 -21.104000
H -6.074700 -7.984900 -25.991100
N -5.994900 -6.993300 -17.441900
C -5.965100 -6.696000 -15.046800
O -5.749500 -8.220700 -25.253500
H -5.738800 -5.745700 -15.120300
C -5.733200 -7.440200 -18.755600
H -5.540000 -7.072100 -14.248300
C -5.471900 -7.427000 -16.270300
C -5.295800 -8.205100 -21.405900
N -5.141900 -8.535500 -22.775900
H -5.092300 -9.284200 -27.474700
C -4.845900 -9.203100 -25.453300
C -4.823100 -8.463900 -19.053600
O -4.664600 -8.352000 -16.180900
C -4.619200 -9.666600 -26.745400
C -4.612500 -8.838600 -20.365100
H -4.351900 -8.899400 -18.352300
N -4.286500 -9.442700 -23.021400
C -4.139100 -9.783800 -24.380500
H -3.996300 -9.533800 -20.562300
C -3.704100 -10.683700 -26.971800
H -3.556200 -10.982900 -27.861400
C -3.221600 -10.808500 -24.644200
C -2.990300 -11.285000 -25.922000
H -2.741500 -11.189500 -23.919300
H -2.520400 -13.171300 -26.585100
C -2.035100 -12.423000 -26.180800
H -1.633400 -12.711300 -25.335300
H -1.329400 -12.124600 -26.792400
35
Fragment
H -11.569300 0.744800 -4.895000
H -11.475200 0.054400 -0.272000
H -11.215900 0.089000 -7.100600
H -11.117900 0.510900 -2.670300
C -10.955200 0.046500 -5.089800
C -10.740800 -0.340400 -6.399800
H -10.611800 -1.134400 -11.286900
N -10.532000 -0.142900 -2.737800
C -10.502100 0.154400 -0.342600
O -10.286600 -1.370200 -10.549400
H -10.275900 1.104700 -0.416100
C -10.270300 -0.589700 -4.051400
H -10.077000 -0.221700 0.455800
C -10.009000 -0.576600 -1.566100
C -9.832900 -1.354700 -6.701700
N -9.679000 -1.685100 -8.071700
H -9.629400 -2.433800 -12.770600
C -9.383000 -2.352700 -10.749200
C -9.360200 -1.613500 -4.349500
O -9.201700 -1.501600 -1.476700
C -9.156300 -2.816200 -12.041200
C -9.149600 -1.988200 -5.661000
H -8.889000 -2.048900 -3.648100
N -8.823600 -2.592300 -8.317300
C -8.676200 -2.933400 -9.676400
H -8.533400 -2.683300 -5.858100
C -8.241200 -3.833300 -12.267700
H -8.093300 -4.132500 -13.157300
C -7.758700 -3.958100 -9.940000
C -7.527400 -4.434600 -11.217800
H -7.278600 -4.339000 -9.215100
H -7.057500 -6.320900 -11.881000
C -6.572100 -5.572600 -11.476600
H -6.170500 -5.860900 -10.631100
H -5.866500 -5.274100 -12.088300
70
Fragment
H -7.032200 -6.105600 -19.599200
H -6.938200 -6.796000 -14.976200
H -6.678800 -6.761500 -21.804800
H -6.580800 -6.339500 -17.374400
C -6.418100 -6.803900 -19.794000
C -6.203700 -7.190800 -21.104000
H -6.074700 -7.984900 -25.991100
N -5.994900 -6.993300 -17.441900
C -5.965100 -6.696000 -15.046800
O -5.749500 -8.220700 -25.253500
H -5.738800 -5.745700 -15.120300
C -5.733200 -7.440200 -18.755600
H -5.540000 -7.072100 -14.248300
C -5.471900 -7.427000 -16.270300
C -5.295800 -8.205100 -21.405900
N -5.141900 -8.535500 -22.775900
H -5.092300 -9.284200 -27.474700
C -4.845900 -9.203100 -25.453300
C -4.823100 -8.463900 -19.053600
O -4.664600 -8.352000 -16.180900
C -4.619200 -9.666600 -26.745400
C -4.612500 -8.838600 -20.365100
H -4.351900 -8.899400 -18.352300
N -4.286500 -9.442700 -23.021400
C -4.139100 -9.783800 -24.380500
H -3.996300 -9.533800 -20.562300
C -3.704100 -10.683700 -26.971800
H -3.556200 -10.982900 -27.861400
C -3.221600 -10.808500 -24.644200
C -2.990300 -11.285000 -25.922000
H -2.741500 -11.189500 -23.919300
H -2.520400 -13.171300 -26.585100
C -2.035100 -12.423000 -26.180800
H -1.633400 -12.711300 -25.335300
H -1.329400 -12.124600 -26.792400
H -11.569300 0.744800 -4.895000
H -11.475200 0.054400 -0.272000
H -11.215900 0.089000 -7.100600
H -11.117900 0.510900 -2.670300
C -10.955200 0.046500 -5.089800
C -10.740800 -0.340400 -6.399800
H -10.611800 -1.134400 -11.286900
N -10.532000 -0.142900 -2.737800
C -10.502100 0.154400 -0.342600
O -10.286600 -1.370200 -10.549400
H -10.275900 1.104700 -0.416100
C -10.270300 -0.589700 -4.051400
H -10.077000 -0.221700 0.455800
C -10.009000 -0.576600 -1.566100
C -9.832900 -1.354700 -6.701700
N -9.679000 -1.685100 -8.071700
H -9.629400 -2.433800 -12.770600
C -9.383000 -2.352700 -10.749200
C -9.360200 -1.613500 -4.349500
O -9.201700 -1.501600 -1.476700
C -9.156300 -2.816200 -12.041200
C -9.149600 -1.988200 -5.661000
H -8.889000 -2.048900 -3.648100
N -8.823600 -2.592300 -8.317300
C -8.676200 -2.933400 -9.676400
H -8.533400 -2.683300 -5.858100
C -8.241200 -3.833300 -12.267700
H -8.093300 -4.132500 -13.157300
C -7.758700 -3.958100 -9.940000
C -7.527400 -4.434600 -11.217800
H -7.278600 -4.339000 -9.215100
H -7.057500 -6.320900 -11.881000
C -6.572100 -5.572600 -11.476600
H -6.170500 -5.860900 -10.631100
H -5.866500 -5.274100 -12.088300
