27
Fragment
O -21.044300 -14.386500 -26.230200
H -20.301800 -13.798600 -24.489500
N -20.120000 -14.175800 -27.096700
N -19.516300 -13.441300 -24.319700
H -19.312000 -13.195200 -23.499800
C -18.967000 -13.660100 -26.659400
C -18.645000 -13.274000 -25.293800
O -18.110800 -13.629100 -28.883600
C -17.966400 -13.425100 -27.683900
N -17.464100 -12.723000 -24.967300
N -16.767400 -12.923400 -27.208500
C -16.545300 -12.561600 -25.906100
H -16.104300 -12.830500 -27.779900
H -15.800700 -11.928800 -23.594600
N -15.366100 -12.044500 -25.572500
H -15.204600 -10.566600 -24.191800
C -15.123700 -11.553100 -24.209600
H -14.459200 -12.137300 -27.387300
H -14.328800 -10.700000 -26.687000
C -14.308400 -11.676900 -26.524500
C -13.735100 -11.961200 -23.752100
H -13.684500 -12.947700 -23.686100
H -13.557700 -11.584000 -22.854400
C -12.966500 -12.073200 -25.960900
H -12.923100 -13.059700 -25.885200
O -12.740800 -11.491900 -24.674900
H -12.251300 -11.782200 -26.582200
27
Fragment
O -13.779100 -8.206200 -26.414000
H -13.077200 -8.020600 -24.102000
H -13.055200 -8.086100 -22.213900
H -12.782800 -8.165000 -19.856800
C -12.672200 -8.483200 -25.977800
H -12.480800 -9.583900 -20.533800
N -12.436500 -8.353600 -24.607000
C -12.157900 -8.651900 -20.451000
C -12.156600 -8.005100 -21.805000
H -11.946000 -7.042200 -21.713200
N -11.724800 -9.007000 -28.072500
C -11.529300 -8.941400 -26.746900
C -11.261700 -8.718200 -24.009100
N -11.166300 -8.643800 -22.668500
O -10.850200 -8.656300 -19.862400
O -10.724200 -9.396000 -28.780000
C -10.315900 -9.265600 -26.021100
H -10.310300 -10.350000 -20.775000
N -10.208100 -9.148500 -24.692000
C -9.962800 -9.427700 -20.685200
C -9.837500 -8.803700 -22.042900
H -9.402700 -7.918200 -21.961100
H -9.268500 -9.807100 -27.530400
H -9.268500 -9.373900 -22.618100
N -9.250800 -9.711300 -26.656000
H -9.070900 -9.474800 -20.257700
H -8.521300 -9.912400 -26.206200
54
Fragment
O -21.044300 -14.386500 -26.230200
H -20.301800 -13.798600 -24.489500
N -20.120000 -14.175800 -27.096700
N -19.516300 -13.441300 -24.319700
H -19.312000 -13.195200 -23.499800
C -18.967000 -13.660100 -26.659400
C -18.645000 -13.274000 -25.293800
O -18.110800 -13.629100 -28.883600
C -17.966400 -13.425100 -27.683900
N -17.464100 -12.723000 -24.967300
N -16.767400 -12.923400 -27.208500
C -16.545300 -12.561600 -25.906100
H -16.104300 -12.830500 -27.779900
H -15.800700 -11.928800 -23.594600
N -15.366100 -12.044500 -25.572500
H -15.204600 -10.566600 -24.191800
C -15.123700 -11.553100 -24.209600
H -14.459200 -12.137300 -27.387300
H -14.328800 -10.700000 -26.687000
C -14.308400 -11.676900 -26.524500
C -13.735100 -11.961200 -23.752100
H -13.684500 -12.947700 -23.686100
H -13.557700 -11.584000 -22.854400
C -12.966500 -12.073200 -25.960900
H -12.923100 -13.059700 -25.885200
O -12.740800 -11.491900 -24.674900
H -12.251300 -11.782200 -26.582200
O -13.779100 -8.206200 -26.414000
H -13.077200 -8.020600 -24.102000
H -13.055200 -8.086100 -22.213900
H -12.782800 -8.165000 -19.856800
C -12.672200 -8.483200 -25.977800
H -12.480800 -9.583900 -20.533800
N -12.436500 -8.353600 -24.607000
C -12.157900 -8.651900 -20.451000
C -12.156600 -8.005100 -21.805000
H -11.946000 -7.042200 -21.713200
N -11.724800 -9.007000 -28.072500
C -11.529300 -8.941400 -26.746900
C -11.261700 -8.718200 -24.009100
N -11.166300 -8.643800 -22.668500
O -10.850200 -8.656300 -19.862400
O -10.724200 -9.396000 -28.780000
C -10.315900 -9.265600 -26.021100
H -10.310300 -10.350000 -20.775000
N -10.208100 -9.148500 -24.692000
C -9.962800 -9.427700 -20.685200
C -9.837500 -8.803700 -22.042900
H -9.402700 -7.918200 -21.961100
H -9.268500 -9.807100 -27.530400
H -9.268500 -9.373900 -22.618100
N -9.250800 -9.711300 -26.656000
H -9.070900 -9.474800 -20.257700
H -8.521300 -9.912400 -26.206200
