27
Fragment
O -21.044300 -14.386500 -26.230200
H -20.301800 -13.798600 -24.489500
N -20.120000 -14.175800 -27.096700
N -19.516300 -13.441300 -24.319700
H -19.312000 -13.195200 -23.499800
C -18.967000 -13.660100 -26.659400
C -18.645000 -13.274000 -25.293800
O -18.110800 -13.629100 -28.883600
C -17.966400 -13.425100 -27.683900
N -17.464100 -12.723000 -24.967300
N -16.767400 -12.923400 -27.208500
C -16.545300 -12.561600 -25.906100
H -16.104300 -12.830500 -27.779900
H -15.800700 -11.928800 -23.594600
N -15.366100 -12.044500 -25.572500
H -15.204600 -10.566600 -24.191800
C -15.123700 -11.553100 -24.209600
H -14.459200 -12.137300 -27.387300
H -14.328800 -10.700000 -26.687000
C -14.308400 -11.676900 -26.524500
C -13.735100 -11.961200 -23.752100
H -13.684500 -12.947700 -23.686100
H -13.557700 -11.584000 -22.854400
C -12.966500 -12.073200 -25.960900
H -12.923100 -13.059700 -25.885200
O -12.740800 -11.491900 -24.674900
H -12.251300 -11.782200 -26.582200
3
Fragment
H -15.329000 -14.205200 -21.152600
O -14.926600 -14.070400 -20.372600
H -14.260300 -13.123000 -20.660200
30
Fragment
O -21.044300 -14.386500 -26.230200
H -20.301800 -13.798600 -24.489500
N -20.120000 -14.175800 -27.096700
N -19.516300 -13.441300 -24.319700
H -19.312000 -13.195200 -23.499800
C -18.967000 -13.660100 -26.659400
C -18.645000 -13.274000 -25.293800
O -18.110800 -13.629100 -28.883600
C -17.966400 -13.425100 -27.683900
N -17.464100 -12.723000 -24.967300
N -16.767400 -12.923400 -27.208500
C -16.545300 -12.561600 -25.906100
H -16.104300 -12.830500 -27.779900
H -15.800700 -11.928800 -23.594600
N -15.366100 -12.044500 -25.572500
H -15.204600 -10.566600 -24.191800
C -15.123700 -11.553100 -24.209600
H -14.459200 -12.137300 -27.387300
H -14.328800 -10.700000 -26.687000
C -14.308400 -11.676900 -26.524500
C -13.735100 -11.961200 -23.752100
H -13.684500 -12.947700 -23.686100
H -13.557700 -11.584000 -22.854400
C -12.966500 -12.073200 -25.960900
H -12.923100 -13.059700 -25.885200
O -12.740800 -11.491900 -24.674900
H -12.251300 -11.782200 -26.582200
H -15.329000 -14.205200 -21.152600
O -14.926600 -14.070400 -20.372600
H -14.260300 -13.123000 -20.660200
