27
Fragment
O -21.044300 -14.386500 -26.230200
H -20.301800 -13.798600 -24.489500
N -20.120000 -14.175800 -27.096700
N -19.516300 -13.441300 -24.319700
H -19.312000 -13.195200 -23.499800
C -18.967000 -13.660100 -26.659400
C -18.645000 -13.274000 -25.293800
O -18.110800 -13.629100 -28.883600
C -17.966400 -13.425100 -27.683900
N -17.464100 -12.723000 -24.967300
N -16.767400 -12.923400 -27.208500
C -16.545300 -12.561600 -25.906100
H -16.104300 -12.830500 -27.779900
H -15.800700 -11.928800 -23.594600
N -15.366100 -12.044500 -25.572500
H -15.204600 -10.566600 -24.191800
C -15.123700 -11.553100 -24.209600
H -14.459200 -12.137300 -27.387300
H -14.328800 -10.700000 -26.687000
C -14.308400 -11.676900 -26.524500
C -13.735100 -11.961200 -23.752100
H -13.684500 -12.947700 -23.686100
H -13.557700 -11.584000 -22.854400
C -12.966500 -12.073200 -25.960900
H -12.923100 -13.059700 -25.885200
O -12.740800 -11.491900 -24.674900
H -12.251300 -11.782200 -26.582200
27
Fragment
O -15.030400 -11.398400 -17.912900
H -14.287900 -11.986300 -16.172200
N -14.106100 -11.609100 -18.779400
N -13.502400 -12.343600 -16.002400
H -13.298100 -12.589600 -15.182500
C -12.953100 -12.124800 -18.342000
C -12.631100 -12.510800 -16.976500
O -12.096900 -12.155700 -20.566300
C -11.952500 -12.359800 -19.366600
N -11.450200 -13.061900 -16.650000
N -10.753500 -12.861500 -18.891100
C -10.531400 -13.223200 -17.588800
H -10.090400 -12.954300 -19.462500
H -9.786800 -13.856000 -15.277300
N -9.352200 -13.740400 -17.255100
H -9.190700 -15.218200 -15.874500
C -9.109800 -14.231800 -15.892300
H -8.445300 -13.647600 -19.070000
H -8.314900 -15.084900 -18.369700
C -8.294500 -14.108000 -18.207100
C -7.721200 -13.823600 -15.434800
H -7.670600 -12.837200 -15.368800
H -7.543800 -14.200800 -14.537000
C -6.952600 -13.711600 -17.643500
H -6.909200 -12.725200 -17.567900
O -6.726900 -14.292900 -16.357500
H -6.237400 -14.002600 -18.264900
54
Fragment
O -21.044300 -14.386500 -26.230200
H -20.301800 -13.798600 -24.489500
N -20.120000 -14.175800 -27.096700
N -19.516300 -13.441300 -24.319700
H -19.312000 -13.195200 -23.499800
C -18.967000 -13.660100 -26.659400
C -18.645000 -13.274000 -25.293800
O -18.110800 -13.629100 -28.883600
C -17.966400 -13.425100 -27.683900
N -17.464100 -12.723000 -24.967300
N -16.767400 -12.923400 -27.208500
C -16.545300 -12.561600 -25.906100
H -16.104300 -12.830500 -27.779900
H -15.800700 -11.928800 -23.594600
N -15.366100 -12.044500 -25.572500
H -15.204600 -10.566600 -24.191800
C -15.123700 -11.553100 -24.209600
H -14.459200 -12.137300 -27.387300
H -14.328800 -10.700000 -26.687000
C -14.308400 -11.676900 -26.524500
C -13.735100 -11.961200 -23.752100
H -13.684500 -12.947700 -23.686100
H -13.557700 -11.584000 -22.854400
C -12.966500 -12.073200 -25.960900
H -12.923100 -13.059700 -25.885200
O -12.740800 -11.491900 -24.674900
H -12.251300 -11.782200 -26.582200
O -15.030400 -11.398400 -17.912900
H -14.287900 -11.986300 -16.172200
N -14.106100 -11.609100 -18.779400
N -13.502400 -12.343600 -16.002400
H -13.298100 -12.589600 -15.182500
C -12.953100 -12.124800 -18.342000
C -12.631100 -12.510800 -16.976500
O -12.096900 -12.155700 -20.566300
C -11.952500 -12.359800 -19.366600
N -11.450200 -13.061900 -16.650000
N -10.753500 -12.861500 -18.891100
C -10.531400 -13.223200 -17.588800
H -10.090400 -12.954300 -19.462500
H -9.786800 -13.856000 -15.277300
N -9.352200 -13.740400 -17.255100
H -9.190700 -15.218200 -15.874500
C -9.109800 -14.231800 -15.892300
H -8.445300 -13.647600 -19.070000
H -8.314900 -15.084900 -18.369700
C -8.294500 -14.108000 -18.207100
C -7.721200 -13.823600 -15.434800
H -7.670600 -12.837200 -15.368800
H -7.543800 -14.200800 -14.537000
C -6.952600 -13.711600 -17.643500
H -6.909200 -12.725200 -17.567900
O -6.726900 -14.292900 -16.357500
H -6.237400 -14.002600 -18.264900
