27
Fragment
O -21.044300 -14.386500 -26.230200
H -20.301800 -13.798600 -24.489500
N -20.120000 -14.175800 -27.096700
N -19.516300 -13.441300 -24.319700
H -19.312000 -13.195200 -23.499800
C -18.967000 -13.660100 -26.659400
C -18.645000 -13.274000 -25.293800
O -18.110800 -13.629100 -28.883600
C -17.966400 -13.425100 -27.683900
N -17.464100 -12.723000 -24.967300
N -16.767400 -12.923400 -27.208500
C -16.545300 -12.561600 -25.906100
H -16.104300 -12.830500 -27.779900
H -15.800700 -11.928800 -23.594600
N -15.366100 -12.044500 -25.572500
H -15.204600 -10.566600 -24.191800
C -15.123700 -11.553100 -24.209600
H -14.459200 -12.137300 -27.387300
H -14.328800 -10.700000 -26.687000
C -14.308400 -11.676900 -26.524500
C -13.735100 -11.961200 -23.752100
H -13.684500 -12.947700 -23.686100
H -13.557700 -11.584000 -22.854400
C -12.966500 -12.073200 -25.960900
H -12.923100 -13.059700 -25.885200
O -12.740800 -11.491900 -24.674900
H -12.251300 -11.782200 -26.582200
27
Fragment
H -27.562100 -12.188900 -23.697700
H -27.012500 -12.626500 -29.646300
N -26.832600 -12.390000 -23.247900
H -26.814900 -12.727400 -27.285800
H -26.814900 -12.294200 -22.373600
H -26.680700 -14.183100 -27.942900
C -26.245800 -13.297600 -27.861100
C -26.120600 -12.673600 -29.218800
N -25.875300 -12.952800 -25.212000
H -25.773100 -11.751300 -29.128900
C -25.767500 -12.835700 -23.882900
O -25.359100 -12.705300 -21.124000
O -25.233200 -13.445000 -30.041500
N -24.917100 -13.457500 -27.235400
C -24.821700 -13.383100 -25.894800
C -24.554100 -13.159900 -23.157100
N -24.358600 -13.094300 -21.831500
H -24.137300 -15.059100 -28.190800
C -23.926800 -14.096200 -28.098900
C -23.925500 -13.449400 -29.453000
N -23.646900 -13.747700 -25.297000
H -23.602500 -12.517400 -29.370100
C -23.411200 -13.618100 -23.926100
H -23.300600 -13.936300 -30.047200
H -23.028200 -14.015200 -27.690000
H -23.006200 -14.080700 -25.802000
O -22.304300 -13.895100 -23.490000
54
Fragment
O -21.044300 -14.386500 -26.230200
H -20.301800 -13.798600 -24.489500
N -20.120000 -14.175800 -27.096700
N -19.516300 -13.441300 -24.319700
H -19.312000 -13.195200 -23.499800
C -18.967000 -13.660100 -26.659400
C -18.645000 -13.274000 -25.293800
O -18.110800 -13.629100 -28.883600
C -17.966400 -13.425100 -27.683900
N -17.464100 -12.723000 -24.967300
N -16.767400 -12.923400 -27.208500
C -16.545300 -12.561600 -25.906100
H -16.104300 -12.830500 -27.779900
H -15.800700 -11.928800 -23.594600
N -15.366100 -12.044500 -25.572500
H -15.204600 -10.566600 -24.191800
C -15.123700 -11.553100 -24.209600
H -14.459200 -12.137300 -27.387300
H -14.328800 -10.700000 -26.687000
C -14.308400 -11.676900 -26.524500
C -13.735100 -11.961200 -23.752100
H -13.684500 -12.947700 -23.686100
H -13.557700 -11.584000 -22.854400
C -12.966500 -12.073200 -25.960900
H -12.923100 -13.059700 -25.885200
O -12.740800 -11.491900 -24.674900
H -12.251300 -11.782200 -26.582200
H -27.562100 -12.188900 -23.697700
H -27.012500 -12.626500 -29.646300
N -26.832600 -12.390000 -23.247900
H -26.814900 -12.727400 -27.285800
H -26.814900 -12.294200 -22.373600
H -26.680700 -14.183100 -27.942900
C -26.245800 -13.297600 -27.861100
C -26.120600 -12.673600 -29.218800
N -25.875300 -12.952800 -25.212000
H -25.773100 -11.751300 -29.128900
C -25.767500 -12.835700 -23.882900
O -25.359100 -12.705300 -21.124000
O -25.233200 -13.445000 -30.041500
N -24.917100 -13.457500 -27.235400
C -24.821700 -13.383100 -25.894800
C -24.554100 -13.159900 -23.157100
N -24.358600 -13.094300 -21.831500
H -24.137300 -15.059100 -28.190800
C -23.926800 -14.096200 -28.098900
C -23.925500 -13.449400 -29.453000
N -23.646900 -13.747700 -25.297000
H -23.602500 -12.517400 -29.370100
C -23.411200 -13.618100 -23.926100
H -23.300600 -13.936300 -30.047200
H -23.028200 -14.015200 -27.690000
H -23.006200 -14.080700 -25.802000
O -22.304300 -13.895100 -23.490000
