27
Fragment
O -21.044300 -14.386500 -26.230200
H -20.301800 -13.798600 -24.489500
N -20.120000 -14.175800 -27.096700
N -19.516300 -13.441300 -24.319700
H -19.312000 -13.195200 -23.499800
C -18.967000 -13.660100 -26.659400
C -18.645000 -13.274000 -25.293800
O -18.110800 -13.629100 -28.883600
C -17.966400 -13.425100 -27.683900
N -17.464100 -12.723000 -24.967300
N -16.767400 -12.923400 -27.208500
C -16.545300 -12.561600 -25.906100
H -16.104300 -12.830500 -27.779900
H -15.800700 -11.928800 -23.594600
N -15.366100 -12.044500 -25.572500
H -15.204600 -10.566600 -24.191800
C -15.123700 -11.553100 -24.209600
H -14.459200 -12.137300 -27.387300
H -14.328800 -10.700000 -26.687000
C -14.308400 -11.676900 -26.524500
C -13.735100 -11.961200 -23.752100
H -13.684500 -12.947700 -23.686100
H -13.557700 -11.584000 -22.854400
C -12.966500 -12.073200 -25.960900
H -12.923100 -13.059700 -25.885200
O -12.740800 -11.491900 -24.674900
H -12.251300 -11.782200 -26.582200
27
Fragment
O -27.058200 -11.398400 -34.547500
H -26.315700 -11.986300 -32.806900
N -26.133900 -11.609100 -35.414000
N -25.530200 -12.343600 -32.637000
H -25.325900 -12.589600 -31.817100
C -24.980900 -12.124800 -34.976700
C -24.658900 -12.510800 -33.611200
O -24.124700 -12.155700 -37.200900
C -23.980300 -12.359800 -36.001200
N -23.478000 -13.061900 -33.284600
N -22.781300 -12.861500 -35.525800
C -22.559200 -13.223200 -34.223500
H -22.118200 -12.954300 -36.097200
H -21.814600 -13.856000 -31.911900
N -21.380000 -13.740400 -33.889800
H -21.218500 -15.218200 -32.509100
C -21.137600 -14.231800 -32.526900
H -20.473100 -13.647600 -35.704600
H -20.342700 -15.084900 -35.004300
C -20.322300 -14.108000 -34.841800
C -19.749000 -13.823600 -32.069500
H -19.698400 -12.837200 -32.003400
H -19.571600 -14.200800 -31.171700
C -18.980400 -13.711600 -34.278200
H -18.937000 -12.725200 -34.202500
O -18.754700 -14.292900 -32.992200
H -18.265200 -14.002600 -34.899500
54
Fragment
O -21.044300 -14.386500 -26.230200
H -20.301800 -13.798600 -24.489500
N -20.120000 -14.175800 -27.096700
N -19.516300 -13.441300 -24.319700
H -19.312000 -13.195200 -23.499800
C -18.967000 -13.660100 -26.659400
C -18.645000 -13.274000 -25.293800
O -18.110800 -13.629100 -28.883600
C -17.966400 -13.425100 -27.683900
N -17.464100 -12.723000 -24.967300
N -16.767400 -12.923400 -27.208500
C -16.545300 -12.561600 -25.906100
H -16.104300 -12.830500 -27.779900
H -15.800700 -11.928800 -23.594600
N -15.366100 -12.044500 -25.572500
H -15.204600 -10.566600 -24.191800
C -15.123700 -11.553100 -24.209600
H -14.459200 -12.137300 -27.387300
H -14.328800 -10.700000 -26.687000
C -14.308400 -11.676900 -26.524500
C -13.735100 -11.961200 -23.752100
H -13.684500 -12.947700 -23.686100
H -13.557700 -11.584000 -22.854400
C -12.966500 -12.073200 -25.960900
H -12.923100 -13.059700 -25.885200
O -12.740800 -11.491900 -24.674900
H -12.251300 -11.782200 -26.582200
O -27.058200 -11.398400 -34.547500
H -26.315700 -11.986300 -32.806900
N -26.133900 -11.609100 -35.414000
N -25.530200 -12.343600 -32.637000
H -25.325900 -12.589600 -31.817100
C -24.980900 -12.124800 -34.976700
C -24.658900 -12.510800 -33.611200
O -24.124700 -12.155700 -37.200900
C -23.980300 -12.359800 -36.001200
N -23.478000 -13.061900 -33.284600
N -22.781300 -12.861500 -35.525800
C -22.559200 -13.223200 -34.223500
H -22.118200 -12.954300 -36.097200
H -21.814600 -13.856000 -31.911900
N -21.380000 -13.740400 -33.889800
H -21.218500 -15.218200 -32.509100
C -21.137600 -14.231800 -32.526900
H -20.473100 -13.647600 -35.704600
H -20.342700 -15.084900 -35.004300
C -20.322300 -14.108000 -34.841800
C -19.749000 -13.823600 -32.069500
H -19.698400 -12.837200 -32.003400
H -19.571600 -14.200800 -31.171700
C -18.980400 -13.711600 -34.278200
H -18.937000 -12.725200 -34.202500
O -18.754700 -14.292900 -32.992200
H -18.265200 -14.002600 -34.899500
