6
Fragment
N -23.468600 -23.415800 -16.572800
C -22.663800 -23.316300 -17.371700
H -22.034800 -23.496400 -19.255400
C -21.655300 -23.218200 -18.395600
H -21.344500 -22.291400 -18.459900
H -20.901800 -23.801100 -18.168400
44
Fragment
H -21.344000 -27.473000 -8.398900
C -20.574300 -27.136100 -8.840800
H -20.443900 -28.630900 -10.191900
H -20.353900 -25.497800 -7.659700
F -20.190700 -25.294400 -14.906900
C -20.046000 -27.816600 -9.906100
C -19.991900 -25.961500 -8.405800
F -19.773000 -23.206600 -14.922400
C -19.200400 -24.418100 -15.007200
C -18.943400 -27.324500 -10.561500
C -18.881200 -25.462900 -9.058900
F -18.699600 -24.499200 -16.237500
H -18.589500 -27.793000 -11.307600
H -18.488300 -24.648700 -8.765100
N -18.470100 -25.130400 -12.790600
C -18.337800 -26.136400 -10.134500
C -18.139000 -24.618200 -13.985600
N -17.275900 -25.120000 -12.128300
C -17.132400 -25.613500 -10.819800
C -16.805100 -24.278700 -14.109500
H -16.369600 -23.895800 -14.861400
C -16.243600 -24.626300 -12.882500
H -16.065700 -24.363700 -7.919100
C -15.885700 -25.560300 -10.264200
C -15.773000 -25.258900 -7.792800
C -15.640100 -26.092700 -8.882200
H -15.590800 -25.135400 -5.764600
C -15.484800 -25.714600 -6.510700
C -15.206600 -27.383900 -8.691600
H -15.107400 -27.967700 -9.434300
C -15.049300 -26.992500 -6.325900
C -14.928400 -24.537300 -12.308500
C -14.910800 -27.833600 -7.400300
H -14.840200 -27.301000 -5.451200
C -14.764000 -25.016000 -10.993100
H -14.614600 -28.726400 -7.267100
H -13.976800 -23.725700 -13.915500
C -13.853900 -24.026000 -13.022500
C -13.470800 -24.925300 -10.422600
H -13.330100 -25.225800 -9.533000
C -12.608500 -23.955700 -12.433600
C -12.428600 -24.414000 -11.130800
H -11.874800 -23.593800 -12.916900
H -11.567100 -24.369600 -10.732500
50
Fragment
N -23.468600 -23.415800 -16.572800
C -22.663800 -23.316300 -17.371700
H -22.034800 -23.496400 -19.255400
C -21.655300 -23.218200 -18.395600
H -21.344500 -22.291400 -18.459900
H -20.901800 -23.801100 -18.168400
H -21.344000 -27.473000 -8.398900
C -20.574300 -27.136100 -8.840800
H -20.443900 -28.630900 -10.191900
H -20.353900 -25.497800 -7.659700
F -20.190700 -25.294400 -14.906900
C -20.046000 -27.816600 -9.906100
C -19.991900 -25.961500 -8.405800
F -19.773000 -23.206600 -14.922400
C -19.200400 -24.418100 -15.007200
C -18.943400 -27.324500 -10.561500
C -18.881200 -25.462900 -9.058900
F -18.699600 -24.499200 -16.237500
H -18.589500 -27.793000 -11.307600
H -18.488300 -24.648700 -8.765100
N -18.470100 -25.130400 -12.790600
C -18.337800 -26.136400 -10.134500
C -18.139000 -24.618200 -13.985600
N -17.275900 -25.120000 -12.128300
C -17.132400 -25.613500 -10.819800
C -16.805100 -24.278700 -14.109500
H -16.369600 -23.895800 -14.861400
C -16.243600 -24.626300 -12.882500
H -16.065700 -24.363700 -7.919100
C -15.885700 -25.560300 -10.264200
C -15.773000 -25.258900 -7.792800
C -15.640100 -26.092700 -8.882200
H -15.590800 -25.135400 -5.764600
C -15.484800 -25.714600 -6.510700
C -15.206600 -27.383900 -8.691600
H -15.107400 -27.967700 -9.434300
C -15.049300 -26.992500 -6.325900
C -14.928400 -24.537300 -12.308500
C -14.910800 -27.833600 -7.400300
H -14.840200 -27.301000 -5.451200
C -14.764000 -25.016000 -10.993100
H -14.614600 -28.726400 -7.267100
H -13.976800 -23.725700 -13.915500
C -13.853900 -24.026000 -13.022500
C -13.470800 -24.925300 -10.422600
H -13.330100 -25.225800 -9.533000
C -12.608500 -23.955700 -12.433600
C -12.428600 -24.414000 -11.130800
H -11.874800 -23.593800 -12.916900
H -11.567100 -24.369600 -10.732500
