6
Fragment
N -23.468600 -23.415800 -16.572800
C -22.663800 -23.316300 -17.371700
H -22.034800 -23.496400 -19.255400
C -21.655300 -23.218200 -18.395600
H -21.344500 -22.291400 -18.459900
H -20.901800 -23.801100 -18.168400
44
Fragment
H -30.870500 -27.473000 -8.398900
C -30.100800 -27.136100 -8.840800
H -29.970400 -28.630900 -10.191900
H -29.880400 -25.497800 -7.659700
F -29.717200 -25.294400 -14.906900
C -29.572500 -27.816600 -9.906100
C -29.518400 -25.961500 -8.405800
F -29.299500 -23.206600 -14.922400
C -28.726900 -24.418100 -15.007200
C -28.469900 -27.324500 -10.561500
C -28.407700 -25.462900 -9.058900
F -28.226100 -24.499200 -16.237500
H -28.116000 -27.793000 -11.307600
H -28.014800 -24.648700 -8.765100
N -27.996600 -25.130400 -12.790600
C -27.864300 -26.136400 -10.134500
C -27.665500 -24.618200 -13.985600
N -26.802400 -25.120000 -12.128300
C -26.658900 -25.613500 -10.819800
C -26.331600 -24.278700 -14.109500
H -25.896100 -23.895800 -14.861400
C -25.770100 -24.626300 -12.882500
H -25.592200 -24.363700 -7.919100
C -25.412200 -25.560300 -10.264200
C -25.299500 -25.258900 -7.792800
C -25.166600 -26.092700 -8.882200
H -25.117300 -25.135400 -5.764600
C -25.011300 -25.714600 -6.510700
C -24.733100 -27.383900 -8.691600
H -24.633900 -27.967700 -9.434300
C -24.575800 -26.992500 -6.325900
C -24.454900 -24.537300 -12.308500
C -24.437300 -27.833600 -7.400300
H -24.366700 -27.301000 -5.451200
C -24.290500 -25.016000 -10.993100
H -24.141100 -28.726400 -7.267100
H -23.503300 -23.725700 -13.915500
C -23.380400 -24.026000 -13.022500
C -22.997300 -24.925300 -10.422600
H -22.856600 -25.225800 -9.533000
C -22.135000 -23.955700 -12.433600
C -21.955100 -24.414000 -11.130800
H -21.401300 -23.593800 -12.916900
H -21.093600 -24.369600 -10.732500
50
Fragment
N -23.468600 -23.415800 -16.572800
C -22.663800 -23.316300 -17.371700
H -22.034800 -23.496400 -19.255400
C -21.655300 -23.218200 -18.395600
H -21.344500 -22.291400 -18.459900
H -20.901800 -23.801100 -18.168400
H -30.870500 -27.473000 -8.398900
C -30.100800 -27.136100 -8.840800
H -29.970400 -28.630900 -10.191900
H -29.880400 -25.497800 -7.659700
F -29.717200 -25.294400 -14.906900
C -29.572500 -27.816600 -9.906100
C -29.518400 -25.961500 -8.405800
F -29.299500 -23.206600 -14.922400
C -28.726900 -24.418100 -15.007200
C -28.469900 -27.324500 -10.561500
C -28.407700 -25.462900 -9.058900
F -28.226100 -24.499200 -16.237500
H -28.116000 -27.793000 -11.307600
H -28.014800 -24.648700 -8.765100
N -27.996600 -25.130400 -12.790600
C -27.864300 -26.136400 -10.134500
C -27.665500 -24.618200 -13.985600
N -26.802400 -25.120000 -12.128300
C -26.658900 -25.613500 -10.819800
C -26.331600 -24.278700 -14.109500
H -25.896100 -23.895800 -14.861400
C -25.770100 -24.626300 -12.882500
H -25.592200 -24.363700 -7.919100
C -25.412200 -25.560300 -10.264200
C -25.299500 -25.258900 -7.792800
C -25.166600 -26.092700 -8.882200
H -25.117300 -25.135400 -5.764600
C -25.011300 -25.714600 -6.510700
C -24.733100 -27.383900 -8.691600
H -24.633900 -27.967700 -9.434300
C -24.575800 -26.992500 -6.325900
C -24.454900 -24.537300 -12.308500
C -24.437300 -27.833600 -7.400300
H -24.366700 -27.301000 -5.451200
C -24.290500 -25.016000 -10.993100
H -24.141100 -28.726400 -7.267100
H -23.503300 -23.725700 -13.915500
C -23.380400 -24.026000 -13.022500
C -22.997300 -24.925300 -10.422600
H -22.856600 -25.225800 -9.533000
C -22.135000 -23.955700 -12.433600
C -21.955100 -24.414000 -11.130800
H -21.401300 -23.593800 -12.916900
H -21.093600 -24.369600 -10.732500
