6
Fragment
N -23.468600 -23.415800 -16.572800
C -22.663800 -23.316300 -17.371700
H -22.034800 -23.496400 -19.255400
C -21.655300 -23.218200 -18.395600
H -21.344500 -22.291400 -18.459900
H -20.901800 -23.801100 -18.168400
44
Fragment
H -23.852100 -25.563500 -23.703400
H -23.544400 -26.339300 -21.519000
C -22.990600 -25.519200 -23.305000
C -22.810700 -25.977400 -22.002200
H -22.089100 -24.707300 -24.902900
C -21.948400 -25.007800 -24.013300
C -21.565300 -25.907100 -21.413400
H -21.442400 -26.207400 -20.520300
H -20.804600 -21.206700 -27.168800
C -20.655200 -24.917100 -23.442800
H -20.579100 -22.632100 -28.984700
C -20.508400 -22.099500 -27.035600
C -20.490800 -25.395900 -22.127300
C -20.370000 -22.940600 -28.110000
H -20.311800 -21.965500 -25.001600
C -20.212600 -22.549200 -25.744300
C -19.934400 -24.218500 -27.925200
H -19.828400 -24.797700 -28.671300
C -19.779100 -23.840500 -25.553700
C -19.646200 -24.674300 -26.643000
C -19.533500 -24.372800 -24.171700
H -19.353500 -25.569400 -26.516800
C -19.175600 -25.306800 -21.553400
H -19.049600 -26.037300 -19.574500
C -18.614100 -25.654400 -20.326300
C -18.286900 -24.319600 -23.616100
N -18.143300 -24.813100 -22.307600
C -17.280200 -25.314900 -20.450300
C -17.081400 -23.796700 -24.301400
N -16.949200 -24.802700 -21.645200
H -16.931000 -25.284400 -25.670800
H -16.829700 -22.140200 -23.128300
F -16.719600 -25.433900 -18.198300
C -16.538000 -24.470200 -25.376900
C -16.475800 -22.608600 -23.874400
C -16.218800 -25.515000 -19.428700
F -15.646300 -26.726500 -19.513400
C -15.427300 -23.971600 -26.030100
C -15.373200 -22.116500 -24.529800
F -15.228600 -24.638700 -19.528900
H -15.065300 -24.435300 -26.776200
H -14.975400 -21.302200 -24.244000
C -14.844900 -22.797000 -25.595000
H -14.075200 -22.460100 -26.037000
50
Fragment
N -23.468600 -23.415800 -16.572800
C -22.663800 -23.316300 -17.371700
H -22.034800 -23.496400 -19.255400
C -21.655300 -23.218200 -18.395600
H -21.344500 -22.291400 -18.459900
H -20.901800 -23.801100 -18.168400
H -23.852100 -25.563500 -23.703400
H -23.544400 -26.339300 -21.519000
C -22.990600 -25.519200 -23.305000
C -22.810700 -25.977400 -22.002200
H -22.089100 -24.707300 -24.902900
C -21.948400 -25.007800 -24.013300
C -21.565300 -25.907100 -21.413400
H -21.442400 -26.207400 -20.520300
H -20.804600 -21.206700 -27.168800
C -20.655200 -24.917100 -23.442800
H -20.579100 -22.632100 -28.984700
C -20.508400 -22.099500 -27.035600
C -20.490800 -25.395900 -22.127300
C -20.370000 -22.940600 -28.110000
H -20.311800 -21.965500 -25.001600
C -20.212600 -22.549200 -25.744300
C -19.934400 -24.218500 -27.925200
H -19.828400 -24.797700 -28.671300
C -19.779100 -23.840500 -25.553700
C -19.646200 -24.674300 -26.643000
C -19.533500 -24.372800 -24.171700
H -19.353500 -25.569400 -26.516800
C -19.175600 -25.306800 -21.553400
H -19.049600 -26.037300 -19.574500
C -18.614100 -25.654400 -20.326300
C -18.286900 -24.319600 -23.616100
N -18.143300 -24.813100 -22.307600
C -17.280200 -25.314900 -20.450300
C -17.081400 -23.796700 -24.301400
N -16.949200 -24.802700 -21.645200
H -16.931000 -25.284400 -25.670800
H -16.829700 -22.140200 -23.128300
F -16.719600 -25.433900 -18.198300
C -16.538000 -24.470200 -25.376900
C -16.475800 -22.608600 -23.874400
C -16.218800 -25.515000 -19.428700
F -15.646300 -26.726500 -19.513400
C -15.427300 -23.971600 -26.030100
C -15.373200 -22.116500 -24.529800
F -15.228600 -24.638700 -19.528900
H -15.065300 -24.435300 -26.776200
H -14.975400 -21.302200 -24.244000
C -14.844900 -22.797000 -25.595000
H -14.075200 -22.460100 -26.037000
