6
Fragment
N -23.468600 -23.415800 -16.572800
C -22.663800 -23.316300 -17.371700
H -22.034800 -23.496400 -19.255400
C -21.655300 -23.218200 -18.395600
H -21.344500 -22.291400 -18.459900
H -20.901800 -23.801100 -18.168400
6
Fragment
H -24.043900 -26.132000 -16.267500
H -23.601200 -27.641700 -15.975900
C -23.290400 -26.714900 -16.040200
H -22.910900 -26.436700 -15.180500
C -22.281900 -26.616800 -17.064100
N -21.477100 -26.517300 -17.863000
12
Fragment
N -23.468600 -23.415800 -16.572800
C -22.663800 -23.316300 -17.371700
H -22.034800 -23.496400 -19.255400
C -21.655300 -23.218200 -18.395600
H -21.344500 -22.291400 -18.459900
H -20.901800 -23.801100 -18.168400
H -24.043900 -26.132000 -16.267500
H -23.601200 -27.641700 -15.975900
C -23.290400 -26.714900 -16.040200
H -22.910900 -26.436700 -15.180500
C -22.281900 -26.616800 -17.064100
N -21.477100 -26.517300 -17.863000
