18
Fragment
O -11.079900 -12.319200 -18.914100
N -10.521200 -12.899500 -17.983800
O -10.473300 -14.123500 -17.910000
H -10.469900 -10.367200 -17.770600
O -10.254300 -8.010800 -17.156200
C -10.012700 -10.721400 -17.082100
C -9.893300 -12.100500 -16.959300
N -9.559500 -8.472100 -16.264400
C -9.419000 -9.917200 -16.156000
H -9.388100 -14.530400 -16.263000
C -9.186000 -12.697500 -15.877000
N -9.033200 -14.008200 -15.685700
O -8.977600 -7.773400 -15.444000
C -8.687200 -10.449500 -15.099400
C -8.586000 -11.790200 -14.962400
H -8.539400 -14.268200 -14.970000
H -8.280500 -9.904400 -14.471800
H -8.076000 -12.129900 -14.187100
22
Fragment
O -14.836400 -1.171900 -24.993800
H -14.617500 -3.640200 -24.578300
H -14.414400 -6.000700 -23.998200
C -14.337200 -1.756600 -24.067000
C -14.241900 -3.177400 -23.886100
H -14.011100 -8.143200 -23.297200
C -13.913300 -6.132700 -23.170900
H -13.904100 -1.251100 -23.356500
C -13.687900 -7.424300 -22.781900
C -13.617100 -3.676600 -22.828000
C -13.398600 -5.054400 -22.451800
H -13.300400 -3.015800 -22.182100
C -12.928200 -7.693700 -21.646200
O -12.762800 -9.007300 -21.347800
C -12.651500 -5.347200 -21.312400
C -12.410900 -6.643000 -20.907800
H -12.323500 -4.606100 -20.810900
H -12.294900 -9.002600 -19.406400
C -11.967800 -9.342100 -20.214200
H -11.966500 -10.202500 -20.153700
H -11.907300 -6.758100 -20.081400
H -11.006200 -8.995600 -20.343500
40
Fragment
O -11.079900 -12.319200 -18.914100
N -10.521200 -12.899500 -17.983800
O -10.473300 -14.123500 -17.910000
H -10.469900 -10.367200 -17.770600
O -10.254300 -8.010800 -17.156200
C -10.012700 -10.721400 -17.082100
C -9.893300 -12.100500 -16.959300
N -9.559500 -8.472100 -16.264400
C -9.419000 -9.917200 -16.156000
H -9.388100 -14.530400 -16.263000
C -9.186000 -12.697500 -15.877000
N -9.033200 -14.008200 -15.685700
O -8.977600 -7.773400 -15.444000
C -8.687200 -10.449500 -15.099400
C -8.586000 -11.790200 -14.962400
H -8.539400 -14.268200 -14.970000
H -8.280500 -9.904400 -14.471800
H -8.076000 -12.129900 -14.187100
O -14.836400 -1.171900 -24.993800
H -14.617500 -3.640200 -24.578300
H -14.414400 -6.000700 -23.998200
C -14.337200 -1.756600 -24.067000
C -14.241900 -3.177400 -23.886100
H -14.011100 -8.143200 -23.297200
C -13.913300 -6.132700 -23.170900
H -13.904100 -1.251100 -23.356500
C -13.687900 -7.424300 -22.781900
C -13.617100 -3.676600 -22.828000
C -13.398600 -5.054400 -22.451800
H -13.300400 -3.015800 -22.182100
C -12.928200 -7.693700 -21.646200
O -12.762800 -9.007300 -21.347800
C -12.651500 -5.347200 -21.312400
C -12.410900 -6.643000 -20.907800
H -12.323500 -4.606100 -20.810900
H -12.294900 -9.002600 -19.406400
C -11.967800 -9.342100 -20.214200
H -11.966500 -10.202500 -20.153700
H -11.907300 -6.758100 -20.081400
H -11.006200 -8.995600 -20.343500
