18
Fragment
O -11.079900 -12.319200 -18.914100
N -10.521200 -12.899500 -17.983800
O -10.473300 -14.123500 -17.910000
H -10.469900 -10.367200 -17.770600
O -10.254300 -8.010800 -17.156200
C -10.012700 -10.721400 -17.082100
C -9.893300 -12.100500 -16.959300
N -9.559500 -8.472100 -16.264400
C -9.419000 -9.917200 -16.156000
H -9.388100 -14.530400 -16.263000
C -9.186000 -12.697500 -15.877000
N -9.033200 -14.008200 -15.685700
O -8.977600 -7.773400 -15.444000
C -8.687200 -10.449500 -15.099400
C -8.586000 -11.790200 -14.962400
H -8.539400 -14.268200 -14.970000
H -8.280500 -9.904400 -14.471800
H -8.076000 -12.129900 -14.187100
18
Fragment
O -10.370100 -21.543900 -18.914100
N -9.811400 -22.124200 -17.983800
O -9.763500 -23.348200 -17.910000
H -9.760100 -19.591900 -17.770600
O -9.544500 -17.235500 -17.156200
C -9.302900 -19.946100 -17.082100
C -9.183500 -21.325200 -16.959300
N -8.849700 -17.696900 -16.264400
C -8.709200 -19.142000 -16.156000
H -8.678300 -23.755100 -16.263000
C -8.476200 -21.922200 -15.877000
N -8.323400 -23.232900 -15.685700
O -8.267800 -16.998100 -15.444000
C -7.977400 -19.674200 -15.099400
C -7.876200 -21.014900 -14.962400
H -7.829600 -23.492900 -14.970000
H -7.570700 -19.129100 -14.471800
H -7.366200 -21.354700 -14.187100
36
Fragment
O -11.079900 -12.319200 -18.914100
N -10.521200 -12.899500 -17.983800
O -10.473300 -14.123500 -17.910000
H -10.469900 -10.367200 -17.770600
O -10.254300 -8.010800 -17.156200
C -10.012700 -10.721400 -17.082100
C -9.893300 -12.100500 -16.959300
N -9.559500 -8.472100 -16.264400
C -9.419000 -9.917200 -16.156000
H -9.388100 -14.530400 -16.263000
C -9.186000 -12.697500 -15.877000
N -9.033200 -14.008200 -15.685700
O -8.977600 -7.773400 -15.444000
C -8.687200 -10.449500 -15.099400
C -8.586000 -11.790200 -14.962400
H -8.539400 -14.268200 -14.970000
H -8.280500 -9.904400 -14.471800
H -8.076000 -12.129900 -14.187100
O -10.370100 -21.543900 -18.914100
N -9.811400 -22.124200 -17.983800
O -9.763500 -23.348200 -17.910000
H -9.760100 -19.591900 -17.770600
O -9.544500 -17.235500 -17.156200
C -9.302900 -19.946100 -17.082100
C -9.183500 -21.325200 -16.959300
N -8.849700 -17.696900 -16.264400
C -8.709200 -19.142000 -16.156000
H -8.678300 -23.755100 -16.263000
C -8.476200 -21.922200 -15.877000
N -8.323400 -23.232900 -15.685700
O -8.267800 -16.998100 -15.444000
C -7.977400 -19.674200 -15.099400
C -7.876200 -21.014900 -14.962400
H -7.829600 -23.492900 -14.970000
H -7.570700 -19.129100 -14.471800
H -7.366200 -21.354700 -14.187100
