18
Fragment
O -11.079900 -12.319200 -18.914100
N -10.521200 -12.899500 -17.983800
O -10.473300 -14.123500 -17.910000
H -10.469900 -10.367200 -17.770600
O -10.254300 -8.010800 -17.156200
C -10.012700 -10.721400 -17.082100
C -9.893300 -12.100500 -16.959300
N -9.559500 -8.472100 -16.264400
C -9.419000 -9.917200 -16.156000
H -9.388100 -14.530400 -16.263000
C -9.186000 -12.697500 -15.877000
N -9.033200 -14.008200 -15.685700
O -8.977600 -7.773400 -15.444000
C -8.687200 -10.449500 -15.099400
C -8.586000 -11.790200 -14.962400
H -8.539400 -14.268200 -14.970000
H -8.280500 -9.904400 -14.471800
H -8.076000 -12.129900 -14.187100
18
Fragment
H -8.851300 -12.943500 -21.399200
H -8.646800 -15.169000 -21.114600
H -8.387900 -10.805200 -20.616300
C -8.341300 -13.283200 -20.623900
C -8.240100 -14.623900 -20.486900
O -7.949700 -17.300000 -20.142300
N -7.894100 -11.065200 -19.900600
C -7.741300 -12.375900 -19.709400
H -7.539200 -10.543000 -19.323400
C -7.508300 -15.156200 -19.430400
N -7.367900 -16.601300 -19.322000
C -7.034000 -12.973000 -18.627100
C -6.914600 -14.352000 -18.504200
O -6.673000 -17.062700 -18.430200
H -6.457500 -14.706300 -17.815700
O -6.454000 -10.950000 -17.676300
N -6.406100 -12.174000 -17.602500
O -5.847400 -12.754200 -16.672200
36
Fragment
O -11.079900 -12.319200 -18.914100
N -10.521200 -12.899500 -17.983800
O -10.473300 -14.123500 -17.910000
H -10.469900 -10.367200 -17.770600
O -10.254300 -8.010800 -17.156200
C -10.012700 -10.721400 -17.082100
C -9.893300 -12.100500 -16.959300
N -9.559500 -8.472100 -16.264400
C -9.419000 -9.917200 -16.156000
H -9.388100 -14.530400 -16.263000
C -9.186000 -12.697500 -15.877000
N -9.033200 -14.008200 -15.685700
O -8.977600 -7.773400 -15.444000
C -8.687200 -10.449500 -15.099400
C -8.586000 -11.790200 -14.962400
H -8.539400 -14.268200 -14.970000
H -8.280500 -9.904400 -14.471800
H -8.076000 -12.129900 -14.187100
H -8.851300 -12.943500 -21.399200
H -8.646800 -15.169000 -21.114600
H -8.387900 -10.805200 -20.616300
C -8.341300 -13.283200 -20.623900
C -8.240100 -14.623900 -20.486900
O -7.949700 -17.300000 -20.142300
N -7.894100 -11.065200 -19.900600
C -7.741300 -12.375900 -19.709400
H -7.539200 -10.543000 -19.323400
C -7.508300 -15.156200 -19.430400
N -7.367900 -16.601300 -19.322000
C -7.034000 -12.973000 -18.627100
C -6.914600 -14.352000 -18.504200
O -6.673000 -17.062700 -18.430200
H -6.457500 -14.706300 -17.815700
O -6.454000 -10.950000 -17.676300
N -6.406100 -12.174000 -17.602500
O -5.847400 -12.754200 -16.672200
