18
Fragment
O -11.079900 -12.319200 -18.914100
N -10.521200 -12.899500 -17.983800
O -10.473300 -14.123500 -17.910000
H -10.469900 -10.367200 -17.770600
O -10.254300 -8.010800 -17.156200
C -10.012700 -10.721400 -17.082100
C -9.893300 -12.100500 -16.959300
N -9.559500 -8.472100 -16.264400
C -9.419000 -9.917200 -16.156000
H -9.388100 -14.530400 -16.263000
C -9.186000 -12.697500 -15.877000
N -9.033200 -14.008200 -15.685700
O -8.977600 -7.773400 -15.444000
C -8.687200 -10.449500 -15.099400
C -8.586000 -11.790200 -14.962400
H -8.539400 -14.268200 -14.970000
H -8.280500 -9.904400 -14.471800
H -8.076000 -12.129900 -14.187100
22
Fragment
O -8.247500 -5.113800 -13.131700
H -8.028700 -7.582000 -12.716200
H -7.825600 -9.942600 -12.136100
C -7.748400 -5.698500 -12.204900
C -7.653100 -7.119200 -12.024000
H -7.422300 -12.085100 -11.435100
C -7.324500 -10.074500 -11.308700
H -7.315200 -5.192900 -11.494400
C -7.099000 -11.366100 -10.919800
C -7.028300 -7.618400 -10.965900
C -6.809800 -8.996200 -10.589700
H -6.711500 -6.957700 -10.320000
C -6.339400 -11.635600 -9.784100
O -6.173900 -12.949100 -9.485700
C -6.062600 -9.289000 -9.450300
C -5.822100 -10.584900 -9.045700
H -5.734700 -8.548000 -8.948800
H -5.706000 -12.944400 -7.544300
C -5.378900 -13.283900 -8.352100
H -5.377700 -14.144400 -8.291600
H -5.318500 -10.699900 -8.219300
H -4.417300 -12.937400 -8.481400
40
Fragment
O -11.079900 -12.319200 -18.914100
N -10.521200 -12.899500 -17.983800
O -10.473300 -14.123500 -17.910000
H -10.469900 -10.367200 -17.770600
O -10.254300 -8.010800 -17.156200
C -10.012700 -10.721400 -17.082100
C -9.893300 -12.100500 -16.959300
N -9.559500 -8.472100 -16.264400
C -9.419000 -9.917200 -16.156000
H -9.388100 -14.530400 -16.263000
C -9.186000 -12.697500 -15.877000
N -9.033200 -14.008200 -15.685700
O -8.977600 -7.773400 -15.444000
C -8.687200 -10.449500 -15.099400
C -8.586000 -11.790200 -14.962400
H -8.539400 -14.268200 -14.970000
H -8.280500 -9.904400 -14.471800
H -8.076000 -12.129900 -14.187100
O -8.247500 -5.113800 -13.131700
H -8.028700 -7.582000 -12.716200
H -7.825600 -9.942600 -12.136100
C -7.748400 -5.698500 -12.204900
C -7.653100 -7.119200 -12.024000
H -7.422300 -12.085100 -11.435100
C -7.324500 -10.074500 -11.308700
H -7.315200 -5.192900 -11.494400
C -7.099000 -11.366100 -10.919800
C -7.028300 -7.618400 -10.965900
C -6.809800 -8.996200 -10.589700
H -6.711500 -6.957700 -10.320000
C -6.339400 -11.635600 -9.784100
O -6.173900 -12.949100 -9.485700
C -6.062600 -9.289000 -9.450300
C -5.822100 -10.584900 -9.045700
H -5.734700 -8.548000 -8.948800
H -5.706000 -12.944400 -7.544300
C -5.378900 -13.283900 -8.352100
H -5.377700 -14.144400 -8.291600
H -5.318500 -10.699900 -8.219300
H -4.417300 -12.937400 -8.481400
