18
Fragment
O -11.079900 -12.319200 -18.914100
N -10.521200 -12.899500 -17.983800
O -10.473300 -14.123500 -17.910000
H -10.469900 -10.367200 -17.770600
O -10.254300 -8.010800 -17.156200
C -10.012700 -10.721400 -17.082100
C -9.893300 -12.100500 -16.959300
N -9.559500 -8.472100 -16.264400
C -9.419000 -9.917200 -16.156000
H -9.388100 -14.530400 -16.263000
C -9.186000 -12.697500 -15.877000
N -9.033200 -14.008200 -15.685700
O -8.977600 -7.773400 -15.444000
C -8.687200 -10.449500 -15.099400
C -8.586000 -11.790200 -14.962400
H -8.539400 -14.268200 -14.970000
H -8.280500 -9.904400 -14.471800
H -8.076000 -12.129900 -14.187100
18
Fragment
O -11.789700 -3.094500 -18.914100
N -11.231000 -3.674700 -17.983800
O -11.183100 -4.898700 -17.910000
H -11.179700 -1.142400 -17.770600
O -10.964100 1.214000 -17.156200
C -10.722500 -1.496700 -17.082100
C -10.603200 -2.875700 -16.959300
N -10.269300 0.752600 -16.264400
C -10.128800 -0.692500 -16.156000
H -10.097900 -5.305700 -16.263000
C -9.895800 -3.472700 -15.877000
N -9.743000 -4.783500 -15.685700
O -9.687400 1.451300 -15.444000
C -9.397000 -1.224800 -15.099400
C -9.295800 -2.565500 -14.962400
H -9.249300 -5.043500 -14.970000
H -8.990300 -0.679700 -14.471800
H -8.785800 -2.905200 -14.187100
36
Fragment
O -11.079900 -12.319200 -18.914100
N -10.521200 -12.899500 -17.983800
O -10.473300 -14.123500 -17.910000
H -10.469900 -10.367200 -17.770600
O -10.254300 -8.010800 -17.156200
C -10.012700 -10.721400 -17.082100
C -9.893300 -12.100500 -16.959300
N -9.559500 -8.472100 -16.264400
C -9.419000 -9.917200 -16.156000
H -9.388100 -14.530400 -16.263000
C -9.186000 -12.697500 -15.877000
N -9.033200 -14.008200 -15.685700
O -8.977600 -7.773400 -15.444000
C -8.687200 -10.449500 -15.099400
C -8.586000 -11.790200 -14.962400
H -8.539400 -14.268200 -14.970000
H -8.280500 -9.904400 -14.471800
H -8.076000 -12.129900 -14.187100
O -11.789700 -3.094500 -18.914100
N -11.231000 -3.674700 -17.983800
O -11.183100 -4.898700 -17.910000
H -11.179700 -1.142400 -17.770600
O -10.964100 1.214000 -17.156200
C -10.722500 -1.496700 -17.082100
C -10.603200 -2.875700 -16.959300
N -10.269300 0.752600 -16.264400
C -10.128800 -0.692500 -16.156000
H -10.097900 -5.305700 -16.263000
C -9.895800 -3.472700 -15.877000
N -9.743000 -4.783500 -15.685700
O -9.687400 1.451300 -15.444000
C -9.397000 -1.224800 -15.099400
C -9.295800 -2.565500 -14.962400
H -9.249300 -5.043500 -14.970000
H -8.990300 -0.679700 -14.471800
H -8.785800 -2.905200 -14.187100
