19
Fragment
O -8.789400 -13.023500 -36.020200
H -8.505700 -15.266100 -35.425300
C -8.275100 -13.502100 -35.014800
H -8.145600 -10.979900 -34.725400
O -8.132500 -14.807200 -34.812300
H -7.818800 -8.737000 -33.972500
C -7.809200 -11.352800 -33.941600
C -7.770500 -12.690900 -33.893300
C -7.476800 -9.031900 -33.160100
H -7.420900 -13.112900 -33.142300
C -7.382900 -10.407800 -32.904300
H -7.134700 -7.191300 -32.384500
C -7.062100 -8.100900 -32.206600
C -6.875400 -10.829700 -31.659500
H -6.824100 -11.738800 -31.467400
C -6.537700 -8.532800 -30.985200
C -6.449600 -9.901600 -30.711600
H -6.248100 -7.911900 -30.357300
H -6.106900 -10.192200 -29.896300
21
Fragment
H -5.323400 -15.338400 -34.447900
O -4.980800 -18.259800 -35.886200
H -4.771800 -15.964900 -35.775200
C -4.560200 -15.746400 -34.864900
H -4.471100 -21.104100 -34.969200
C -4.464800 -18.202400 -34.750500
N -4.202200 -16.971600 -34.138300
N -4.192000 -20.668100 -34.122100
C -4.077200 -19.300800 -33.943300
H -3.820400 -15.135300 -34.846100
C -3.772700 -21.237000 -32.970900
H -3.745100 -22.156700 -32.835800
C -3.713100 -16.782900 -32.828500
C -3.601100 -19.146300 -32.653800
O -3.571600 -15.647000 -32.373900
N -3.415300 -17.908800 -32.095100
N -3.398400 -20.340900 -32.037200
H -3.343000 -16.976500 -30.323500
H -3.277800 -18.537100 -30.198000
C -2.975200 -17.778300 -30.702200
H -2.016500 -17.736300 -30.671000
40
Fragment
O -8.789400 -13.023500 -36.020200
H -8.505700 -15.266100 -35.425300
C -8.275100 -13.502100 -35.014800
H -8.145600 -10.979900 -34.725400
O -8.132500 -14.807200 -34.812300
H -7.818800 -8.737000 -33.972500
C -7.809200 -11.352800 -33.941600
C -7.770500 -12.690900 -33.893300
C -7.476800 -9.031900 -33.160100
H -7.420900 -13.112900 -33.142300
C -7.382900 -10.407800 -32.904300
H -7.134700 -7.191300 -32.384500
C -7.062100 -8.100900 -32.206600
C -6.875400 -10.829700 -31.659500
H -6.824100 -11.738800 -31.467400
C -6.537700 -8.532800 -30.985200
C -6.449600 -9.901600 -30.711600
H -6.248100 -7.911900 -30.357300
H -6.106900 -10.192200 -29.896300
H -5.323400 -15.338400 -34.447900
O -4.980800 -18.259800 -35.886200
H -4.771800 -15.964900 -35.775200
C -4.560200 -15.746400 -34.864900
H -4.471100 -21.104100 -34.969200
C -4.464800 -18.202400 -34.750500
N -4.202200 -16.971600 -34.138300
N -4.192000 -20.668100 -34.122100
C -4.077200 -19.300800 -33.943300
H -3.820400 -15.135300 -34.846100
C -3.772700 -21.237000 -32.970900
H -3.745100 -22.156700 -32.835800
C -3.713100 -16.782900 -32.828500
C -3.601100 -19.146300 -32.653800
O -3.571600 -15.647000 -32.373900
N -3.415300 -17.908800 -32.095100
N -3.398400 -20.340900 -32.037200
H -3.343000 -16.976500 -30.323500
H -3.277800 -18.537100 -30.198000
C -2.975200 -17.778300 -30.702200
H -2.016500 -17.736300 -30.671000
