19
Fragment
O -8.789400 -13.023500 -36.020200
H -8.505700 -15.266100 -35.425300
C -8.275100 -13.502100 -35.014800
H -8.145600 -10.979900 -34.725400
O -8.132500 -14.807200 -34.812300
H -7.818800 -8.737000 -33.972500
C -7.809200 -11.352800 -33.941600
C -7.770500 -12.690900 -33.893300
C -7.476800 -9.031900 -33.160100
H -7.420900 -13.112900 -33.142300
C -7.382900 -10.407800 -32.904300
H -7.134700 -7.191300 -32.384500
C -7.062100 -8.100900 -32.206600
C -6.875400 -10.829700 -31.659500
H -6.824100 -11.738800 -31.467400
C -6.537700 -8.532800 -30.985200
C -6.449600 -9.901600 -30.711600
H -6.248100 -7.911900 -30.357300
H -6.106900 -10.192200 -29.896300
19
Fragment
H -9.253100 -14.548900 -30.436900
H -9.111900 -12.268600 -29.976000
C -8.910400 -14.258300 -29.621700
C -8.822400 -12.889500 -29.348000
H -8.535900 -16.095600 -28.865800
C -8.484600 -15.186500 -28.673700
C -8.297900 -12.457600 -28.126600
H -8.225300 -11.548000 -27.948800
C -7.977100 -14.764600 -27.429000
H -7.939100 -17.469700 -27.191000
C -7.883200 -13.388600 -27.173100
C -7.589500 -17.047600 -26.440000
C -7.550900 -15.709600 -26.391700
H -7.541200 -13.093800 -26.360800
O -7.227500 -19.163900 -25.521000
H -7.214400 -15.336600 -25.607900
C -7.084900 -17.858800 -25.318500
H -6.854300 -19.622800 -24.908000
O -6.570600 -17.380200 -24.313100
38
Fragment
O -8.789400 -13.023500 -36.020200
H -8.505700 -15.266100 -35.425300
C -8.275100 -13.502100 -35.014800
H -8.145600 -10.979900 -34.725400
O -8.132500 -14.807200 -34.812300
H -7.818800 -8.737000 -33.972500
C -7.809200 -11.352800 -33.941600
C -7.770500 -12.690900 -33.893300
C -7.476800 -9.031900 -33.160100
H -7.420900 -13.112900 -33.142300
C -7.382900 -10.407800 -32.904300
H -7.134700 -7.191300 -32.384500
C -7.062100 -8.100900 -32.206600
C -6.875400 -10.829700 -31.659500
H -6.824100 -11.738800 -31.467400
C -6.537700 -8.532800 -30.985200
C -6.449600 -9.901600 -30.711600
H -6.248100 -7.911900 -30.357300
H -6.106900 -10.192200 -29.896300
H -9.253100 -14.548900 -30.436900
H -9.111900 -12.268600 -29.976000
C -8.910400 -14.258300 -29.621700
C -8.822400 -12.889500 -29.348000
H -8.535900 -16.095600 -28.865800
C -8.484600 -15.186500 -28.673700
C -8.297900 -12.457600 -28.126600
H -8.225300 -11.548000 -27.948800
C -7.977100 -14.764600 -27.429000
H -7.939100 -17.469700 -27.191000
C -7.883200 -13.388600 -27.173100
C -7.589500 -17.047600 -26.440000
C -7.550900 -15.709600 -26.391700
H -7.541200 -13.093800 -26.360800
O -7.227500 -19.163900 -25.521000
H -7.214400 -15.336600 -25.607900
C -7.084900 -17.858800 -25.318500
H -6.854300 -19.622800 -24.908000
O -6.570600 -17.380200 -24.313100
