21
Fragment
H -16.593900 -10.927800 -17.444100
H -16.541800 -12.099500 -18.483200
C -16.037500 -11.607300 -17.832200
O -15.593900 -14.279900 -18.200100
N -15.575100 -12.517400 -16.783300
N -15.450000 -10.798400 -15.056900
C -15.336400 -13.833800 -17.084500
C -15.282400 -12.060700 -15.524600
H -15.280300 -11.197100 -18.256300
H -15.278900 -16.505000 -16.650700
C -14.994000 -10.862500 -13.800600
H -14.978300 -10.133200 -13.223800
N -14.790100 -14.642800 -16.091500
C -14.745400 -12.876400 -14.563200
N -14.563500 -12.080100 -13.460200
C -14.467200 -16.024600 -16.471300
C -14.453400 -14.243500 -14.791800
H -14.115800 -12.258900 -12.648500
H -13.994000 -16.451200 -15.753200
O -13.967500 -15.037800 -13.987800
H -13.918300 -16.020400 -17.258600
17
Fragment
H -12.395300 -13.162400 -18.513300
O -12.371900 -12.390800 -18.032200
H -12.112500 -10.826200 -16.084100
C -11.879800 -12.701400 -16.801500
C -11.829800 -11.683800 -15.861500
H -11.446300 -14.659300 -17.129500
C -11.430500 -13.984300 -16.490200
C -11.354300 -11.953300 -14.582100
O -11.329900 -10.931100 -13.684800
C -10.958300 -14.235500 -15.206900
H -10.951800 -11.145200 -12.872800
C -10.927300 -13.230300 -14.245300
H -10.623600 -13.412100 -13.385500
O -10.561600 -16.493800 -15.769600
C -10.443900 -15.580500 -14.829600
H -10.117400 -17.272500 -15.459900
O -9.934700 -15.812100 -13.748900
38
Fragment
H -16.593900 -10.927800 -17.444100
H -16.541800 -12.099500 -18.483200
C -16.037500 -11.607300 -17.832200
O -15.593900 -14.279900 -18.200100
N -15.575100 -12.517400 -16.783300
N -15.450000 -10.798400 -15.056900
C -15.336400 -13.833800 -17.084500
C -15.282400 -12.060700 -15.524600
H -15.280300 -11.197100 -18.256300
H -15.278900 -16.505000 -16.650700
C -14.994000 -10.862500 -13.800600
H -14.978300 -10.133200 -13.223800
N -14.790100 -14.642800 -16.091500
C -14.745400 -12.876400 -14.563200
N -14.563500 -12.080100 -13.460200
C -14.467200 -16.024600 -16.471300
C -14.453400 -14.243500 -14.791800
H -14.115800 -12.258900 -12.648500
H -13.994000 -16.451200 -15.753200
O -13.967500 -15.037800 -13.987800
H -13.918300 -16.020400 -17.258600
H -12.395300 -13.162400 -18.513300
O -12.371900 -12.390800 -18.032200
H -12.112500 -10.826200 -16.084100
C -11.879800 -12.701400 -16.801500
C -11.829800 -11.683800 -15.861500
H -11.446300 -14.659300 -17.129500
C -11.430500 -13.984300 -16.490200
C -11.354300 -11.953300 -14.582100
O -11.329900 -10.931100 -13.684800
C -10.958300 -14.235500 -15.206900
H -10.951800 -11.145200 -12.872800
C -10.927300 -13.230300 -14.245300
H -10.623600 -13.412100 -13.385500
O -10.561600 -16.493800 -15.769600
C -10.443900 -15.580500 -14.829600
H -10.117400 -17.272500 -15.459900
O -9.934700 -15.812100 -13.748900
