17
Fragment
H -4.951000 -13.121100 -11.768400
O -4.646700 -12.494800 -12.376400
H -4.231700 -10.996200 -14.323700
H -4.160100 -9.612400 -16.246500
C -3.940400 -11.590400 -11.717400
C -3.783200 -10.311200 -13.882000
O -3.648200 -11.713400 -10.522400
O -3.598700 -8.974100 -15.912800
C -3.508800 -10.418800 -12.511200
C -3.379400 -9.172900 -14.581500
C -2.823900 -9.396300 -11.850100
C -2.670800 -8.158200 -13.907000
H -2.647300 -9.469600 -10.939600
C -2.406000 -8.269300 -12.548000
H -2.394600 -7.099900 -15.408200
O -2.264600 -7.031300 -14.542400
H -1.949400 -7.590300 -12.105800
17
Fragment
H -7.240500 -18.449800 -9.117600
O -6.925200 -19.008800 -6.681000
H -6.795300 -18.940200 -5.815200
C -6.783900 -17.770800 -8.675400
H -6.542600 -16.570500 -10.283800
C -6.519100 -17.881900 -7.316300
C -6.366000 -16.643800 -9.373300
C -5.810400 -16.867200 -6.641900
C -5.681100 -15.621300 -8.712200
O -5.591100 -17.066000 -5.310600
O -5.541700 -14.326600 -10.700900
C -5.406700 -15.728900 -7.341400
C -5.249500 -14.449700 -9.505900
H -5.029800 -16.427600 -4.976900
H -4.958200 -15.043900 -6.899700
O -4.543200 -13.545300 -8.847000
H -4.238900 -12.919000 -9.455000
34
Fragment
H -4.951000 -13.121100 -11.768400
O -4.646700 -12.494800 -12.376400
H -4.231700 -10.996200 -14.323700
H -4.160100 -9.612400 -16.246500
C -3.940400 -11.590400 -11.717400
C -3.783200 -10.311200 -13.882000
O -3.648200 -11.713400 -10.522400
O -3.598700 -8.974100 -15.912800
C -3.508800 -10.418800 -12.511200
C -3.379400 -9.172900 -14.581500
C -2.823900 -9.396300 -11.850100
C -2.670800 -8.158200 -13.907000
H -2.647300 -9.469600 -10.939600
C -2.406000 -8.269300 -12.548000
H -2.394600 -7.099900 -15.408200
O -2.264600 -7.031300 -14.542400
H -1.949400 -7.590300 -12.105800
H -7.240500 -18.449800 -9.117600
O -6.925200 -19.008800 -6.681000
H -6.795300 -18.940200 -5.815200
C -6.783900 -17.770800 -8.675400
H -6.542600 -16.570500 -10.283800
C -6.519100 -17.881900 -7.316300
C -6.366000 -16.643800 -9.373300
C -5.810400 -16.867200 -6.641900
C -5.681100 -15.621300 -8.712200
O -5.591100 -17.066000 -5.310600
O -5.541700 -14.326600 -10.700900
C -5.406700 -15.728900 -7.341400
C -5.249500 -14.449700 -9.505900
H -5.029800 -16.427600 -4.976900
H -4.958200 -15.043900 -6.899700
O -4.543200 -13.545300 -8.847000
H -4.238900 -12.919000 -9.455000
