19
Fragment
O -8.789400 -13.023500 -36.020200
H -8.505700 -15.266100 -35.425300
C -8.275100 -13.502100 -35.014800
H -8.145600 -10.979900 -34.725400
O -8.132500 -14.807200 -34.812300
H -7.818800 -8.737000 -33.972500
C -7.809200 -11.352800 -33.941600
C -7.770500 -12.690900 -33.893300
C -7.476800 -9.031900 -33.160100
H -7.420900 -13.112900 -33.142300
C -7.382900 -10.407800 -32.904300
H -7.134700 -7.191300 -32.384500
C -7.062100 -8.100900 -32.206600
C -6.875400 -10.829700 -31.659500
H -6.824100 -11.738800 -31.467400
C -6.537700 -8.532800 -30.985200
C -6.449600 -9.901600 -30.711600
H -6.248100 -7.911900 -30.357300
H -6.106900 -10.192200 -29.896300
19
Fragment
O -8.789400 -4.310000 -36.020200
H -8.505700 -6.552600 -35.425300
C -8.275100 -4.788600 -35.014800
H -8.145600 -2.266400 -34.725400
O -8.132500 -6.093700 -34.812300
H -7.818800 -0.023500 -33.972500
C -7.809200 -2.639300 -33.941600
C -7.770500 -3.977400 -33.893300
C -7.476800 -0.318400 -33.160100
H -7.420900 -4.399400 -33.142300
C -7.382900 -1.694300 -32.904300
H -7.134700 1.522200 -32.384500
C -7.062100 0.612600 -32.206600
C -6.875400 -2.116200 -31.659500
H -6.824100 -3.025300 -31.467400
C -6.537700 0.180700 -30.985200
C -6.449600 -1.188100 -30.711600
H -6.248100 0.801600 -30.357300
H -6.106900 -1.478700 -29.896300
38
Fragment
O -8.789400 -13.023500 -36.020200
H -8.505700 -15.266100 -35.425300
C -8.275100 -13.502100 -35.014800
H -8.145600 -10.979900 -34.725400
O -8.132500 -14.807200 -34.812300
H -7.818800 -8.737000 -33.972500
C -7.809200 -11.352800 -33.941600
C -7.770500 -12.690900 -33.893300
C -7.476800 -9.031900 -33.160100
H -7.420900 -13.112900 -33.142300
C -7.382900 -10.407800 -32.904300
H -7.134700 -7.191300 -32.384500
C -7.062100 -8.100900 -32.206600
C -6.875400 -10.829700 -31.659500
H -6.824100 -11.738800 -31.467400
C -6.537700 -8.532800 -30.985200
C -6.449600 -9.901600 -30.711600
H -6.248100 -7.911900 -30.357300
H -6.106900 -10.192200 -29.896300
O -8.789400 -4.310000 -36.020200
H -8.505700 -6.552600 -35.425300
C -8.275100 -4.788600 -35.014800
H -8.145600 -2.266400 -34.725400
O -8.132500 -6.093700 -34.812300
H -7.818800 -0.023500 -33.972500
C -7.809200 -2.639300 -33.941600
C -7.770500 -3.977400 -33.893300
C -7.476800 -0.318400 -33.160100
H -7.420900 -4.399400 -33.142300
C -7.382900 -1.694300 -32.904300
H -7.134700 1.522200 -32.384500
C -7.062100 0.612600 -32.206600
C -6.875400 -2.116200 -31.659500
H -6.824100 -3.025300 -31.467400
C -6.537700 0.180700 -30.985200
C -6.449600 -1.188100 -30.711600
H -6.248100 0.801600 -30.357300
H -6.106900 -1.478700 -29.896300
