17
Fragment
H -4.951000 -13.121100 -11.768400
O -4.646700 -12.494800 -12.376400
H -4.231700 -10.996200 -14.323700
H -4.160100 -9.612400 -16.246500
C -3.940400 -11.590400 -11.717400
C -3.783200 -10.311200 -13.882000
O -3.648200 -11.713400 -10.522400
O -3.598700 -8.974100 -15.912800
C -3.508800 -10.418800 -12.511200
C -3.379400 -9.172900 -14.581500
C -2.823900 -9.396300 -11.850100
C -2.670800 -8.158200 -13.907000
H -2.647300 -9.469600 -10.939600
C -2.406000 -8.269300 -12.548000
H -2.394600 -7.099900 -15.408200
O -2.264600 -7.031300 -14.542400
H -1.949400 -7.590300 -12.105800
21
Fragment
H -8.955800 -16.041600 -18.279700
H -8.710000 -14.640900 -20.211000
C -8.450400 -15.261200 -18.285400
N -8.336400 -14.468200 -19.358400
N -7.769400 -14.822500 -17.223900
C -7.526300 -13.415400 -18.983500
O -7.446400 -11.891300 -20.810900
C -7.197400 -13.664500 -17.670400
C -7.149800 -12.217400 -19.658300
H -6.560100 -9.827600 -20.112300
N -6.400700 -12.807500 -16.947500
N -6.376800 -11.378500 -18.845200
H -6.359800 -12.482100 -14.975200
H -6.249900 -14.000000 -15.350900
C -5.972800 -11.635900 -17.531900
C -5.968500 -13.112500 -15.584400
C -5.948700 -10.088400 -19.419000
H -5.941200 -9.419000 -18.730700
O -5.280700 -10.839700 -16.904500
H -5.067000 -10.178100 -19.786500
H -5.011600 -13.057000 -15.532300
38
Fragment
H -4.951000 -13.121100 -11.768400
O -4.646700 -12.494800 -12.376400
H -4.231700 -10.996200 -14.323700
H -4.160100 -9.612400 -16.246500
C -3.940400 -11.590400 -11.717400
C -3.783200 -10.311200 -13.882000
O -3.648200 -11.713400 -10.522400
O -3.598700 -8.974100 -15.912800
C -3.508800 -10.418800 -12.511200
C -3.379400 -9.172900 -14.581500
C -2.823900 -9.396300 -11.850100
C -2.670800 -8.158200 -13.907000
H -2.647300 -9.469600 -10.939600
C -2.406000 -8.269300 -12.548000
H -2.394600 -7.099900 -15.408200
O -2.264600 -7.031300 -14.542400
H -1.949400 -7.590300 -12.105800
H -8.955800 -16.041600 -18.279700
H -8.710000 -14.640900 -20.211000
C -8.450400 -15.261200 -18.285400
N -8.336400 -14.468200 -19.358400
N -7.769400 -14.822500 -17.223900
C -7.526300 -13.415400 -18.983500
O -7.446400 -11.891300 -20.810900
C -7.197400 -13.664500 -17.670400
C -7.149800 -12.217400 -19.658300
H -6.560100 -9.827600 -20.112300
N -6.400700 -12.807500 -16.947500
N -6.376800 -11.378500 -18.845200
H -6.359800 -12.482100 -14.975200
H -6.249900 -14.000000 -15.350900
C -5.972800 -11.635900 -17.531900
C -5.968500 -13.112500 -15.584400
C -5.948700 -10.088400 -19.419000
H -5.941200 -9.419000 -18.730700
O -5.280700 -10.839700 -16.904500
H -5.067000 -10.178100 -19.786500
H -5.011600 -13.057000 -15.532300
