21
Fragment
H -16.593900 -10.927800 -17.444100
H -16.541800 -12.099500 -18.483200
C -16.037500 -11.607300 -17.832200
O -15.593900 -14.279900 -18.200100
N -15.575100 -12.517400 -16.783300
N -15.450000 -10.798400 -15.056900
C -15.336400 -13.833800 -17.084500
C -15.282400 -12.060700 -15.524600
H -15.280300 -11.197100 -18.256300
H -15.278900 -16.505000 -16.650700
C -14.994000 -10.862500 -13.800600
H -14.978300 -10.133200 -13.223800
N -14.790100 -14.642800 -16.091500
C -14.745400 -12.876400 -14.563200
N -14.563500 -12.080100 -13.460200
C -14.467200 -16.024600 -16.471300
C -14.453400 -14.243500 -14.791800
H -14.115800 -12.258900 -12.648500
H -13.994000 -16.451200 -15.753200
O -13.967500 -15.037800 -13.987800
H -13.918300 -16.020400 -17.258600
17
Fragment
O -17.139400 -5.266600 -23.854300
H -16.956700 -3.806200 -22.143300
C -16.630200 -5.498100 -22.773600
O -16.512500 -4.584800 -21.833500
H -16.450500 -7.666500 -24.217700
C -16.146800 -7.848400 -23.357800
H -16.122300 -9.933400 -24.730400
C -16.115800 -6.843200 -22.396300
O -15.744200 -10.147600 -23.918400
C -15.719800 -9.125300 -23.021000
C -15.643600 -7.094300 -21.112900
H -15.627800 -6.419400 -20.473700
C -15.244300 -9.394800 -21.741700
C -15.194300 -8.377200 -20.801700
H -14.961600 -10.252400 -21.519000
O -14.702200 -8.687900 -19.571000
H -14.678800 -7.916200 -19.089900
38
Fragment
H -16.593900 -10.927800 -17.444100
H -16.541800 -12.099500 -18.483200
C -16.037500 -11.607300 -17.832200
O -15.593900 -14.279900 -18.200100
N -15.575100 -12.517400 -16.783300
N -15.450000 -10.798400 -15.056900
C -15.336400 -13.833800 -17.084500
C -15.282400 -12.060700 -15.524600
H -15.280300 -11.197100 -18.256300
H -15.278900 -16.505000 -16.650700
C -14.994000 -10.862500 -13.800600
H -14.978300 -10.133200 -13.223800
N -14.790100 -14.642800 -16.091500
C -14.745400 -12.876400 -14.563200
N -14.563500 -12.080100 -13.460200
C -14.467200 -16.024600 -16.471300
C -14.453400 -14.243500 -14.791800
H -14.115800 -12.258900 -12.648500
H -13.994000 -16.451200 -15.753200
O -13.967500 -15.037800 -13.987800
H -13.918300 -16.020400 -17.258600
O -17.139400 -5.266600 -23.854300
H -16.956700 -3.806200 -22.143300
C -16.630200 -5.498100 -22.773600
O -16.512500 -4.584800 -21.833500
H -16.450500 -7.666500 -24.217700
C -16.146800 -7.848400 -23.357800
H -16.122300 -9.933400 -24.730400
C -16.115800 -6.843200 -22.396300
O -15.744200 -10.147600 -23.918400
C -15.719800 -9.125300 -23.021000
C -15.643600 -7.094300 -21.112900
H -15.627800 -6.419400 -20.473700
C -15.244300 -9.394800 -21.741700
C -15.194300 -8.377200 -20.801700
H -14.961600 -10.252400 -21.519000
O -14.702200 -8.687900 -19.571000
H -14.678800 -7.916200 -19.089900
