17
Fragment
H -4.951000 -13.121100 -11.768400
O -4.646700 -12.494800 -12.376400
H -4.231700 -10.996200 -14.323700
H -4.160100 -9.612400 -16.246500
C -3.940400 -11.590400 -11.717400
C -3.783200 -10.311200 -13.882000
O -3.648200 -11.713400 -10.522400
O -3.598700 -8.974100 -15.912800
C -3.508800 -10.418800 -12.511200
C -3.379400 -9.172900 -14.581500
C -2.823900 -9.396300 -11.850100
C -2.670800 -8.158200 -13.907000
H -2.647300 -9.469600 -10.939600
C -2.406000 -8.269300 -12.548000
H -2.394600 -7.099900 -15.408200
O -2.264600 -7.031300 -14.542400
H -1.949400 -7.590300 -12.105800
17
Fragment
H -6.507500 -6.599400 -19.729200
O -6.192300 -7.158400 -17.292700
H -6.062400 -7.089700 -16.426900
C -6.050900 -5.920400 -19.287100
H -5.809600 -4.720000 -20.895500
C -5.786100 -6.031500 -17.928000
C -5.633000 -4.793400 -19.985000
C -5.077500 -5.016700 -17.253500
C -4.948200 -3.770800 -19.323900
O -4.858200 -5.215600 -15.922300
O -4.808800 -2.476200 -21.312600
C -4.673800 -3.878400 -17.953100
C -4.516600 -2.599200 -20.117600
H -4.296900 -4.577200 -15.588600
H -4.225200 -3.193400 -17.511400
O -3.810200 -1.694900 -19.458600
H -3.505900 -1.068600 -20.066700
34
Fragment
H -4.951000 -13.121100 -11.768400
O -4.646700 -12.494800 -12.376400
H -4.231700 -10.996200 -14.323700
H -4.160100 -9.612400 -16.246500
C -3.940400 -11.590400 -11.717400
C -3.783200 -10.311200 -13.882000
O -3.648200 -11.713400 -10.522400
O -3.598700 -8.974100 -15.912800
C -3.508800 -10.418800 -12.511200
C -3.379400 -9.172900 -14.581500
C -2.823900 -9.396300 -11.850100
C -2.670800 -8.158200 -13.907000
H -2.647300 -9.469600 -10.939600
C -2.406000 -8.269300 -12.548000
H -2.394600 -7.099900 -15.408200
O -2.264600 -7.031300 -14.542400
H -1.949400 -7.590300 -12.105800
H -6.507500 -6.599400 -19.729200
O -6.192300 -7.158400 -17.292700
H -6.062400 -7.089700 -16.426900
C -6.050900 -5.920400 -19.287100
H -5.809600 -4.720000 -20.895500
C -5.786100 -6.031500 -17.928000
C -5.633000 -4.793400 -19.985000
C -5.077500 -5.016700 -17.253500
C -4.948200 -3.770800 -19.323900
O -4.858200 -5.215600 -15.922300
O -4.808800 -2.476200 -21.312600
C -4.673800 -3.878400 -17.953100
C -4.516600 -2.599200 -20.117600
H -4.296900 -4.577200 -15.588600
H -4.225200 -3.193400 -17.511400
O -3.810200 -1.694900 -19.458600
H -3.505900 -1.068600 -20.066700
