19
Fragment
O -8.789400 -13.023500 -36.020200
H -8.505700 -15.266100 -35.425300
C -8.275100 -13.502100 -35.014800
H -8.145600 -10.979900 -34.725400
O -8.132500 -14.807200 -34.812300
H -7.818800 -8.737000 -33.972500
C -7.809200 -11.352800 -33.941600
C -7.770500 -12.690900 -33.893300
C -7.476800 -9.031900 -33.160100
H -7.420900 -13.112900 -33.142300
C -7.382900 -10.407800 -32.904300
H -7.134700 -7.191300 -32.384500
C -7.062100 -8.100900 -32.206600
C -6.875400 -10.829700 -31.659500
H -6.824100 -11.738800 -31.467400
C -6.537700 -8.532800 -30.985200
C -6.449600 -9.901600 -30.711600
H -6.248100 -7.911900 -30.357300
H -6.106900 -10.192200 -29.896300
21
Fragment
H -12.602600 -6.624900 -34.447900
O -12.260000 -9.546300 -35.886200
H -12.051000 -7.251400 -35.775200
C -11.839400 -7.032900 -34.864900
H -11.750300 -12.390600 -34.969200
C -11.744000 -9.488900 -34.750500
N -11.481400 -8.258100 -34.138300
N -11.471200 -11.954600 -34.122100
C -11.356400 -10.587300 -33.943300
H -11.099600 -6.421800 -34.846100
C -11.051900 -12.523500 -32.970900
H -11.024300 -13.443200 -32.835800
C -10.992300 -8.069400 -32.828500
C -10.880300 -10.432800 -32.653800
O -10.850800 -6.933500 -32.373900
N -10.694500 -9.195300 -32.095100
N -10.677600 -11.627400 -32.037200
H -10.622200 -8.263000 -30.323500
H -10.557000 -9.823600 -30.198000
C -10.254400 -9.064800 -30.702200
H -9.295700 -9.022800 -30.671000
40
Fragment
O -8.789400 -13.023500 -36.020200
H -8.505700 -15.266100 -35.425300
C -8.275100 -13.502100 -35.014800
H -8.145600 -10.979900 -34.725400
O -8.132500 -14.807200 -34.812300
H -7.818800 -8.737000 -33.972500
C -7.809200 -11.352800 -33.941600
C -7.770500 -12.690900 -33.893300
C -7.476800 -9.031900 -33.160100
H -7.420900 -13.112900 -33.142300
C -7.382900 -10.407800 -32.904300
H -7.134700 -7.191300 -32.384500
C -7.062100 -8.100900 -32.206600
C -6.875400 -10.829700 -31.659500
H -6.824100 -11.738800 -31.467400
C -6.537700 -8.532800 -30.985200
C -6.449600 -9.901600 -30.711600
H -6.248100 -7.911900 -30.357300
H -6.106900 -10.192200 -29.896300
H -12.602600 -6.624900 -34.447900
O -12.260000 -9.546300 -35.886200
H -12.051000 -7.251400 -35.775200
C -11.839400 -7.032900 -34.864900
H -11.750300 -12.390600 -34.969200
C -11.744000 -9.488900 -34.750500
N -11.481400 -8.258100 -34.138300
N -11.471200 -11.954600 -34.122100
C -11.356400 -10.587300 -33.943300
H -11.099600 -6.421800 -34.846100
C -11.051900 -12.523500 -32.970900
H -11.024300 -13.443200 -32.835800
C -10.992300 -8.069400 -32.828500
C -10.880300 -10.432800 -32.653800
O -10.850800 -6.933500 -32.373900
N -10.694500 -9.195300 -32.095100
N -10.677600 -11.627400 -32.037200
H -10.622200 -8.263000 -30.323500
H -10.557000 -9.823600 -30.198000
C -10.254400 -9.064800 -30.702200
H -9.295700 -9.022800 -30.671000
