17
Fragment
H -4.951000 -13.121100 -11.768400
O -4.646700 -12.494800 -12.376400
H -4.231700 -10.996200 -14.323700
H -4.160100 -9.612400 -16.246500
C -3.940400 -11.590400 -11.717400
C -3.783200 -10.311200 -13.882000
O -3.648200 -11.713400 -10.522400
O -3.598700 -8.974100 -15.912800
C -3.508800 -10.418800 -12.511200
C -3.379400 -9.172900 -14.581500
C -2.823900 -9.396300 -11.850100
C -2.670800 -8.158200 -13.907000
H -2.647300 -9.469600 -10.939600
C -2.406000 -8.269300 -12.548000
H -2.394600 -7.099900 -15.408200
O -2.264600 -7.031300 -14.542400
H -1.949400 -7.590300 -12.105800
17
Fragment
H -1.417500 -10.159700 -9.117600
O -1.102300 -10.718700 -6.681000
H -0.972300 -10.650000 -5.815200
C -0.960900 -9.480700 -8.675400
H -0.719600 -8.280300 -10.283800
C -0.696100 -9.591800 -7.316300
C -0.543000 -8.353700 -9.373300
C 0.012500 -8.577000 -6.641900
C 0.141900 -7.331100 -8.712200
O 0.231800 -8.775900 -5.310600
O 0.281200 -6.036500 -10.700900
C 0.416300 -7.438700 -7.341400
C 0.573400 -6.159500 -9.505900
H 0.793200 -8.137500 -4.976900
H 0.864800 -6.753700 -6.899700
O 1.279800 -5.255100 -8.847000
H 1.584100 -4.628800 -9.455000
34
Fragment
H -4.951000 -13.121100 -11.768400
O -4.646700 -12.494800 -12.376400
H -4.231700 -10.996200 -14.323700
H -4.160100 -9.612400 -16.246500
C -3.940400 -11.590400 -11.717400
C -3.783200 -10.311200 -13.882000
O -3.648200 -11.713400 -10.522400
O -3.598700 -8.974100 -15.912800
C -3.508800 -10.418800 -12.511200
C -3.379400 -9.172900 -14.581500
C -2.823900 -9.396300 -11.850100
C -2.670800 -8.158200 -13.907000
H -2.647300 -9.469600 -10.939600
C -2.406000 -8.269300 -12.548000
H -2.394600 -7.099900 -15.408200
O -2.264600 -7.031300 -14.542400
H -1.949400 -7.590300 -12.105800
H -1.417500 -10.159700 -9.117600
O -1.102300 -10.718700 -6.681000
H -0.972300 -10.650000 -5.815200
C -0.960900 -9.480700 -8.675400
H -0.719600 -8.280300 -10.283800
C -0.696100 -9.591800 -7.316300
C -0.543000 -8.353700 -9.373300
C 0.012500 -8.577000 -6.641900
C 0.141900 -7.331100 -8.712200
O 0.231800 -8.775900 -5.310600
O 0.281200 -6.036500 -10.700900
C 0.416300 -7.438700 -7.341400
C 0.573400 -6.159500 -9.505900
H 0.793200 -8.137500 -4.976900
H 0.864800 -6.753700 -6.899700
O 1.279800 -5.255100 -8.847000
H 1.584100 -4.628800 -9.455000
