21
Fragment
H -16.593900 -10.927800 -17.444100
H -16.541800 -12.099500 -18.483200
C -16.037500 -11.607300 -17.832200
O -15.593900 -14.279900 -18.200100
N -15.575100 -12.517400 -16.783300
N -15.450000 -10.798400 -15.056900
C -15.336400 -13.833800 -17.084500
C -15.282400 -12.060700 -15.524600
H -15.280300 -11.197100 -18.256300
H -15.278900 -16.505000 -16.650700
C -14.994000 -10.862500 -13.800600
H -14.978300 -10.133200 -13.223800
N -14.790100 -14.642800 -16.091500
C -14.745400 -12.876400 -14.563200
N -14.563500 -12.080100 -13.460200
C -14.467200 -16.024600 -16.471300
C -14.453400 -14.243500 -14.791800
H -14.115800 -12.258900 -12.648500
H -13.994000 -16.451200 -15.753200
O -13.967500 -15.037800 -13.987800
H -13.918300 -16.020400 -17.258600
17
Fragment
O -18.234400 -13.215300 -23.854300
H -18.051800 -11.754900 -22.143300
C -17.725200 -13.446800 -22.773600
O -17.607600 -12.533500 -21.833500
H -17.545600 -15.615300 -24.217700
C -17.241800 -15.797100 -23.357800
H -17.217300 -17.882100 -24.730400
C -17.210900 -14.791900 -22.396300
O -16.839300 -18.096300 -23.918400
C -16.814900 -17.074100 -23.021000
C -16.738700 -15.043000 -21.112900
H -16.722900 -14.368100 -20.473700
C -16.339400 -17.343500 -21.741700
C -16.289400 -16.325900 -20.801700
H -16.056700 -18.201100 -21.519000
O -15.797300 -16.636600 -19.571000
H -15.773900 -15.864900 -19.089900
38
Fragment
H -16.593900 -10.927800 -17.444100
H -16.541800 -12.099500 -18.483200
C -16.037500 -11.607300 -17.832200
O -15.593900 -14.279900 -18.200100
N -15.575100 -12.517400 -16.783300
N -15.450000 -10.798400 -15.056900
C -15.336400 -13.833800 -17.084500
C -15.282400 -12.060700 -15.524600
H -15.280300 -11.197100 -18.256300
H -15.278900 -16.505000 -16.650700
C -14.994000 -10.862500 -13.800600
H -14.978300 -10.133200 -13.223800
N -14.790100 -14.642800 -16.091500
C -14.745400 -12.876400 -14.563200
N -14.563500 -12.080100 -13.460200
C -14.467200 -16.024600 -16.471300
C -14.453400 -14.243500 -14.791800
H -14.115800 -12.258900 -12.648500
H -13.994000 -16.451200 -15.753200
O -13.967500 -15.037800 -13.987800
H -13.918300 -16.020400 -17.258600
O -18.234400 -13.215300 -23.854300
H -18.051800 -11.754900 -22.143300
C -17.725200 -13.446800 -22.773600
O -17.607600 -12.533500 -21.833500
H -17.545600 -15.615300 -24.217700
C -17.241800 -15.797100 -23.357800
H -17.217300 -17.882100 -24.730400
C -17.210900 -14.791900 -22.396300
O -16.839300 -18.096300 -23.918400
C -16.814900 -17.074100 -23.021000
C -16.738700 -15.043000 -21.112900
H -16.722900 -14.368100 -20.473700
C -16.339400 -17.343500 -21.741700
C -16.289400 -16.325900 -20.801700
H -16.056700 -18.201100 -21.519000
O -15.797300 -16.636600 -19.571000
H -15.773900 -15.864900 -19.089900
