21
Fragment
H -16.593900 -10.927800 -17.444100
H -16.541800 -12.099500 -18.483200
C -16.037500 -11.607300 -17.832200
O -15.593900 -14.279900 -18.200100
N -15.575100 -12.517400 -16.783300
N -15.450000 -10.798400 -15.056900
C -15.336400 -13.833800 -17.084500
C -15.282400 -12.060700 -15.524600
H -15.280300 -11.197100 -18.256300
H -15.278900 -16.505000 -16.650700
C -14.994000 -10.862500 -13.800600
H -14.978300 -10.133200 -13.223800
N -14.790100 -14.642800 -16.091500
C -14.745400 -12.876400 -14.563200
N -14.563500 -12.080100 -13.460200
C -14.467200 -16.024600 -16.471300
C -14.453400 -14.243500 -14.791800
H -14.115800 -12.258900 -12.648500
H -13.994000 -16.451200 -15.753200
O -13.967500 -15.037800 -13.987800
H -13.918300 -16.020400 -17.258600
17
Fragment
H -13.490300 -21.111100 -18.513300
O -13.466900 -20.339500 -18.032200
H -13.207500 -18.774900 -16.084100
C -12.974800 -20.650200 -16.801500
C -12.924800 -19.632500 -15.861500
H -12.541300 -22.608000 -17.129500
C -12.525600 -21.933100 -16.490200
C -12.449400 -19.902000 -14.582100
O -12.424900 -18.879800 -13.684800
C -12.053300 -22.184200 -15.206900
H -12.046900 -19.094000 -12.872800
C -12.022400 -21.179000 -14.245300
H -11.718600 -21.360800 -13.385500
O -11.656600 -24.442500 -15.769600
C -11.539000 -23.529300 -14.829600
H -11.212500 -25.221200 -15.459900
O -11.029800 -23.760800 -13.748900
38
Fragment
H -16.593900 -10.927800 -17.444100
H -16.541800 -12.099500 -18.483200
C -16.037500 -11.607300 -17.832200
O -15.593900 -14.279900 -18.200100
N -15.575100 -12.517400 -16.783300
N -15.450000 -10.798400 -15.056900
C -15.336400 -13.833800 -17.084500
C -15.282400 -12.060700 -15.524600
H -15.280300 -11.197100 -18.256300
H -15.278900 -16.505000 -16.650700
C -14.994000 -10.862500 -13.800600
H -14.978300 -10.133200 -13.223800
N -14.790100 -14.642800 -16.091500
C -14.745400 -12.876400 -14.563200
N -14.563500 -12.080100 -13.460200
C -14.467200 -16.024600 -16.471300
C -14.453400 -14.243500 -14.791800
H -14.115800 -12.258900 -12.648500
H -13.994000 -16.451200 -15.753200
O -13.967500 -15.037800 -13.987800
H -13.918300 -16.020400 -17.258600
H -13.490300 -21.111100 -18.513300
O -13.466900 -20.339500 -18.032200
H -13.207500 -18.774900 -16.084100
C -12.974800 -20.650200 -16.801500
C -12.924800 -19.632500 -15.861500
H -12.541300 -22.608000 -17.129500
C -12.525600 -21.933100 -16.490200
C -12.449400 -19.902000 -14.582100
O -12.424900 -18.879800 -13.684800
C -12.053300 -22.184200 -15.206900
H -12.046900 -19.094000 -12.872800
C -12.022400 -21.179000 -14.245300
H -11.718600 -21.360800 -13.385500
O -11.656600 -24.442500 -15.769600
C -11.539000 -23.529300 -14.829600
H -11.212500 -25.221200 -15.459900
O -11.029800 -23.760800 -13.748900
