21
Fragment
H -16.593900 -10.927800 -17.444100
H -16.541800 -12.099500 -18.483200
C -16.037500 -11.607300 -17.832200
O -15.593900 -14.279900 -18.200100
N -15.575100 -12.517400 -16.783300
N -15.450000 -10.798400 -15.056900
C -15.336400 -13.833800 -17.084500
C -15.282400 -12.060700 -15.524600
H -15.280300 -11.197100 -18.256300
H -15.278900 -16.505000 -16.650700
C -14.994000 -10.862500 -13.800600
H -14.978300 -10.133200 -13.223800
N -14.790100 -14.642800 -16.091500
C -14.745400 -12.876400 -14.563200
N -14.563500 -12.080100 -13.460200
C -14.467200 -16.024600 -16.471300
C -14.453400 -14.243500 -14.791800
H -14.115800 -12.258900 -12.648500
H -13.994000 -16.451200 -15.753200
O -13.967500 -15.037800 -13.987800
H -13.918300 -16.020400 -17.258600
21
Fragment
H -17.689000 -18.876500 -17.444100
H -17.636800 -20.048200 -18.483200
C -17.132500 -19.556000 -17.832200
O -16.689000 -22.228600 -18.200100
N -16.670200 -20.466100 -16.783300
N -16.545100 -18.747200 -15.056900
C -16.431500 -21.782500 -17.084500
C -16.377400 -20.009500 -15.524600
H -16.375400 -19.145800 -18.256300
H -16.374000 -24.453700 -16.650700
C -16.089100 -18.811200 -13.800600
H -16.073400 -18.082000 -13.223800
N -15.885100 -22.591500 -16.091500
C -15.840500 -20.825100 -14.563200
N -15.658600 -20.028800 -13.460200
C -15.562200 -23.973300 -16.471300
C -15.548500 -22.192200 -14.791800
H -15.210800 -20.207700 -12.648500
H -15.089100 -24.400000 -15.753200
O -15.062600 -22.986500 -13.987800
H -15.013300 -23.969100 -17.258600
42
Fragment
H -16.593900 -10.927800 -17.444100
H -16.541800 -12.099500 -18.483200
C -16.037500 -11.607300 -17.832200
O -15.593900 -14.279900 -18.200100
N -15.575100 -12.517400 -16.783300
N -15.450000 -10.798400 -15.056900
C -15.336400 -13.833800 -17.084500
C -15.282400 -12.060700 -15.524600
H -15.280300 -11.197100 -18.256300
H -15.278900 -16.505000 -16.650700
C -14.994000 -10.862500 -13.800600
H -14.978300 -10.133200 -13.223800
N -14.790100 -14.642800 -16.091500
C -14.745400 -12.876400 -14.563200
N -14.563500 -12.080100 -13.460200
C -14.467200 -16.024600 -16.471300
C -14.453400 -14.243500 -14.791800
H -14.115800 -12.258900 -12.648500
H -13.994000 -16.451200 -15.753200
O -13.967500 -15.037800 -13.987800
H -13.918300 -16.020400 -17.258600
H -17.689000 -18.876500 -17.444100
H -17.636800 -20.048200 -18.483200
C -17.132500 -19.556000 -17.832200
O -16.689000 -22.228600 -18.200100
N -16.670200 -20.466100 -16.783300
N -16.545100 -18.747200 -15.056900
C -16.431500 -21.782500 -17.084500
C -16.377400 -20.009500 -15.524600
H -16.375400 -19.145800 -18.256300
H -16.374000 -24.453700 -16.650700
C -16.089100 -18.811200 -13.800600
H -16.073400 -18.082000 -13.223800
N -15.885100 -22.591500 -16.091500
C -15.840500 -20.825100 -14.563200
N -15.658600 -20.028800 -13.460200
C -15.562200 -23.973300 -16.471300
C -15.548500 -22.192200 -14.791800
H -15.210800 -20.207700 -12.648500
H -15.089100 -24.400000 -15.753200
O -15.062600 -22.986500 -13.987800
H -15.013300 -23.969100 -17.258600
