21
Fragment
H -16.593900 -10.927800 -17.444100
H -16.541800 -12.099500 -18.483200
C -16.037500 -11.607300 -17.832200
O -15.593900 -14.279900 -18.200100
N -15.575100 -12.517400 -16.783300
N -15.450000 -10.798400 -15.056900
C -15.336400 -13.833800 -17.084500
C -15.282400 -12.060700 -15.524600
H -15.280300 -11.197100 -18.256300
H -15.278900 -16.505000 -16.650700
C -14.994000 -10.862500 -13.800600
H -14.978300 -10.133200 -13.223800
N -14.790100 -14.642800 -16.091500
C -14.745400 -12.876400 -14.563200
N -14.563500 -12.080100 -13.460200
C -14.467200 -16.024600 -16.471300
C -14.453400 -14.243500 -14.791800
H -14.115800 -12.258900 -12.648500
H -13.994000 -16.451200 -15.753200
O -13.967500 -15.037800 -13.987800
H -13.918300 -16.020400 -17.258600
17
Fragment
O -17.261100 -11.488200 -11.319900
H -17.078400 -10.027800 -9.608900
C -16.751900 -11.719800 -10.239200
O -16.634200 -10.806500 -9.299100
H -16.572200 -13.888200 -11.683300
C -16.268500 -14.070000 -10.823400
H -16.244000 -16.155100 -12.196000
C -16.237500 -13.064800 -9.861900
O -15.865900 -16.369200 -11.384000
C -15.841500 -15.347000 -10.486600
C -15.765300 -13.316000 -8.578500
H -15.749500 -12.641000 -7.939300
C -15.366000 -15.616500 -9.207300
C -15.316000 -14.598900 -8.267300
H -15.083300 -16.474100 -8.984700
O -14.823900 -14.909500 -7.036600
H -14.800500 -14.137900 -6.555500
38
Fragment
H -16.593900 -10.927800 -17.444100
H -16.541800 -12.099500 -18.483200
C -16.037500 -11.607300 -17.832200
O -15.593900 -14.279900 -18.200100
N -15.575100 -12.517400 -16.783300
N -15.450000 -10.798400 -15.056900
C -15.336400 -13.833800 -17.084500
C -15.282400 -12.060700 -15.524600
H -15.280300 -11.197100 -18.256300
H -15.278900 -16.505000 -16.650700
C -14.994000 -10.862500 -13.800600
H -14.978300 -10.133200 -13.223800
N -14.790100 -14.642800 -16.091500
C -14.745400 -12.876400 -14.563200
N -14.563500 -12.080100 -13.460200
C -14.467200 -16.024600 -16.471300
C -14.453400 -14.243500 -14.791800
H -14.115800 -12.258900 -12.648500
H -13.994000 -16.451200 -15.753200
O -13.967500 -15.037800 -13.987800
H -13.918300 -16.020400 -17.258600
O -17.261100 -11.488200 -11.319900
H -17.078400 -10.027800 -9.608900
C -16.751900 -11.719800 -10.239200
O -16.634200 -10.806500 -9.299100
H -16.572200 -13.888200 -11.683300
C -16.268500 -14.070000 -10.823400
H -16.244000 -16.155100 -12.196000
C -16.237500 -13.064800 -9.861900
O -15.865900 -16.369200 -11.384000
C -15.841500 -15.347000 -10.486600
C -15.765300 -13.316000 -8.578500
H -15.749500 -12.641000 -7.939300
C -15.366000 -15.616500 -9.207300
C -15.316000 -14.598900 -8.267300
H -15.083300 -16.474100 -8.984700
O -14.823900 -14.909500 -7.036600
H -14.800500 -14.137900 -6.555500
