19
Fragment
O -8.789400 -13.023500 -36.020200
H -8.505700 -15.266100 -35.425300
C -8.275100 -13.502100 -35.014800
H -8.145600 -10.979900 -34.725400
O -8.132500 -14.807200 -34.812300
H -7.818800 -8.737000 -33.972500
C -7.809200 -11.352800 -33.941600
C -7.770500 -12.690900 -33.893300
C -7.476800 -9.031900 -33.160100
H -7.420900 -13.112900 -33.142300
C -7.382900 -10.407800 -32.904300
H -7.134700 -7.191300 -32.384500
C -7.062100 -8.100900 -32.206600
C -6.875400 -10.829700 -31.659500
H -6.824100 -11.738800 -31.467400
C -6.537700 -8.532800 -30.985200
C -6.449600 -9.901600 -30.711600
H -6.248100 -7.911900 -30.357300
H -6.106900 -10.192200 -29.896300
21
Fragment
H -12.048000 -17.117700 -41.728900
C -11.089300 -17.075700 -41.697800
H -10.786700 -16.316900 -42.201900
H -10.721500 -17.877500 -42.076400
N -10.666100 -14.513100 -40.362700
N -10.649200 -16.945200 -40.304800
O -10.492900 -19.207000 -40.026100
C -10.463400 -15.707700 -39.746100
C -10.351400 -18.071100 -39.571400
H -10.319400 -12.697300 -39.564100
C -10.291800 -13.617000 -39.429000
H -10.244100 -19.718700 -37.553800
C -9.987300 -15.553200 -38.456700
N -9.872500 -14.185900 -38.277800
N -9.862300 -17.882400 -38.261700
C -9.599700 -16.651600 -37.649400
H -9.593400 -13.749900 -37.430800
C -9.504300 -19.107600 -37.535000
H -9.292700 -18.889100 -36.624700
O -9.083700 -16.594200 -36.513700
H -8.741100 -19.515600 -37.952000
40
Fragment
O -8.789400 -13.023500 -36.020200
H -8.505700 -15.266100 -35.425300
C -8.275100 -13.502100 -35.014800
H -8.145600 -10.979900 -34.725400
O -8.132500 -14.807200 -34.812300
H -7.818800 -8.737000 -33.972500
C -7.809200 -11.352800 -33.941600
C -7.770500 -12.690900 -33.893300
C -7.476800 -9.031900 -33.160100
H -7.420900 -13.112900 -33.142300
C -7.382900 -10.407800 -32.904300
H -7.134700 -7.191300 -32.384500
C -7.062100 -8.100900 -32.206600
C -6.875400 -10.829700 -31.659500
H -6.824100 -11.738800 -31.467400
C -6.537700 -8.532800 -30.985200
C -6.449600 -9.901600 -30.711600
H -6.248100 -7.911900 -30.357300
H -6.106900 -10.192200 -29.896300
H -12.048000 -17.117700 -41.728900
C -11.089300 -17.075700 -41.697800
H -10.786700 -16.316900 -42.201900
H -10.721500 -17.877500 -42.076400
N -10.666100 -14.513100 -40.362700
N -10.649200 -16.945200 -40.304800
O -10.492900 -19.207000 -40.026100
C -10.463400 -15.707700 -39.746100
C -10.351400 -18.071100 -39.571400
H -10.319400 -12.697300 -39.564100
C -10.291800 -13.617000 -39.429000
H -10.244100 -19.718700 -37.553800
C -9.987300 -15.553200 -38.456700
N -9.872500 -14.185900 -38.277800
N -9.862300 -17.882400 -38.261700
C -9.599700 -16.651600 -37.649400
H -9.593400 -13.749900 -37.430800
C -9.504300 -19.107600 -37.535000
H -9.292700 -18.889100 -36.624700
O -9.083700 -16.594200 -36.513700
H -8.741100 -19.515600 -37.952000
