29
Fragment
H -15.495900 -20.704900 -20.957600
H -15.161300 -17.652900 -20.550300
O -15.066900 -20.089300 -20.772100
H -14.757400 -17.176400 -19.112200
C -14.481700 -17.216700 -20.031100
H -14.345300 -16.326500 -20.363700
C -13.821800 -20.386900 -20.833600
O -13.361900 -21.482400 -21.154400
C -13.218100 -17.979900 -20.132800
O -13.028200 -12.099000 -15.240100
H -13.002900 -14.484200 -14.723000
C -12.924500 -19.287100 -20.463300
N -12.841800 -12.462500 -16.378600
O -12.808500 -11.715600 -17.341400
C -12.784900 -14.785200 -15.575000
H -12.695700 -16.752700 -15.140200
C -12.644500 -13.909700 -16.614600
C -12.594000 -16.134700 -15.828600
C -12.313100 -14.316200 -17.884800
C -12.251200 -16.568900 -17.097600
H -12.229700 -13.694000 -18.572000
H -12.119900 -17.475900 -17.255700
C -12.103800 -15.668200 -18.129600
H -12.064600 -15.462200 -20.159500
N -12.004500 -17.443100 -19.883700
C -11.659600 -16.066300 -19.517300
N -11.578800 -19.471300 -20.394100
N -11.013900 -18.357600 -20.034000
H -10.697500 -15.959300 -19.578700
29
Fragment
H -13.689100 -28.993400 -24.334600
N -13.372600 -26.595200 -23.879300
N -12.807800 -25.481500 -23.519200
C -12.726900 -28.886500 -24.396000
N -12.382100 -27.509600 -24.029600
H -12.322000 -29.490500 -23.753800
C -12.282800 -29.284600 -25.783700
H -12.266700 -27.476900 -26.657600
H -12.156900 -31.258800 -25.341300
C -12.135400 -28.383800 -26.815700
C -12.073500 -30.636600 -26.028500
C -11.792600 -28.818100 -28.084800
C -11.742100 -31.043000 -27.298700
H -11.690900 -28.200100 -28.773100
C -11.601700 -30.167600 -28.338400
O -11.578100 -33.237200 -26.571900
N -11.544800 -32.490300 -27.534700
C -11.462100 -25.665700 -23.450000
H -11.383600 -30.468600 -29.190300
O -11.358400 -32.853800 -28.673200
C -11.168500 -26.972900 -23.780500
O -11.024700 -23.470400 -22.758900
C -10.564800 -24.565800 -23.079700
H -10.041300 -28.626200 -23.549600
C -9.904900 -27.736100 -23.882300
H -9.629200 -27.776300 -24.801100
O -9.319700 -24.863500 -23.141200
H -9.225300 -27.299900 -23.363000
H -8.890700 -24.247800 -22.955700
58
Fragment
H -15.495900 -20.704900 -20.957600
H -15.161300 -17.652900 -20.550300
O -15.066900 -20.089300 -20.772100
H -14.757400 -17.176400 -19.112200
C -14.481700 -17.216700 -20.031100
H -14.345300 -16.326500 -20.363700
C -13.821800 -20.386900 -20.833600
O -13.361900 -21.482400 -21.154400
C -13.218100 -17.979900 -20.132800
O -13.028200 -12.099000 -15.240100
H -13.002900 -14.484200 -14.723000
C -12.924500 -19.287100 -20.463300
N -12.841800 -12.462500 -16.378600
O -12.808500 -11.715600 -17.341400
C -12.784900 -14.785200 -15.575000
H -12.695700 -16.752700 -15.140200
C -12.644500 -13.909700 -16.614600
C -12.594000 -16.134700 -15.828600
C -12.313100 -14.316200 -17.884800
C -12.251200 -16.568900 -17.097600
H -12.229700 -13.694000 -18.572000
H -12.119900 -17.475900 -17.255700
C -12.103800 -15.668200 -18.129600
H -12.064600 -15.462200 -20.159500
N -12.004500 -17.443100 -19.883700
C -11.659600 -16.066300 -19.517300
N -11.578800 -19.471300 -20.394100
N -11.013900 -18.357600 -20.034000
H -10.697500 -15.959300 -19.578700
H -13.689100 -28.993400 -24.334600
N -13.372600 -26.595200 -23.879300
N -12.807800 -25.481500 -23.519200
C -12.726900 -28.886500 -24.396000
N -12.382100 -27.509600 -24.029600
H -12.322000 -29.490500 -23.753800
C -12.282800 -29.284600 -25.783700
H -12.266700 -27.476900 -26.657600
H -12.156900 -31.258800 -25.341300
C -12.135400 -28.383800 -26.815700
C -12.073500 -30.636600 -26.028500
C -11.792600 -28.818100 -28.084800
C -11.742100 -31.043000 -27.298700
H -11.690900 -28.200100 -28.773100
C -11.601700 -30.167600 -28.338400
O -11.578100 -33.237200 -26.571900
N -11.544800 -32.490300 -27.534700
C -11.462100 -25.665700 -23.450000
H -11.383600 -30.468600 -29.190300
O -11.358400 -32.853800 -28.673200
C -11.168500 -26.972900 -23.780500
O -11.024700 -23.470400 -22.758900
C -10.564800 -24.565800 -23.079700
H -10.041300 -28.626200 -23.549600
C -9.904900 -27.736100 -23.882300
H -9.629200 -27.776300 -24.801100
O -9.319700 -24.863500 -23.141200
H -9.225300 -27.299900 -23.363000
H -8.890700 -24.247800 -22.955700
