29
Fragment
H -15.495900 -20.704900 -20.957600
H -15.161300 -17.652900 -20.550300
O -15.066900 -20.089300 -20.772100
H -14.757400 -17.176400 -19.112200
C -14.481700 -17.216700 -20.031100
H -14.345300 -16.326500 -20.363700
C -13.821800 -20.386900 -20.833600
O -13.361900 -21.482400 -21.154400
C -13.218100 -17.979900 -20.132800
O -13.028200 -12.099000 -15.240100
H -13.002900 -14.484200 -14.723000
C -12.924500 -19.287100 -20.463300
N -12.841800 -12.462500 -16.378600
O -12.808500 -11.715600 -17.341400
C -12.784900 -14.785200 -15.575000
H -12.695700 -16.752700 -15.140200
C -12.644500 -13.909700 -16.614600
C -12.594000 -16.134700 -15.828600
C -12.313100 -14.316200 -17.884800
C -12.251200 -16.568900 -17.097600
H -12.229700 -13.694000 -18.572000
H -12.119900 -17.475900 -17.255700
C -12.103800 -15.668200 -18.129600
H -12.064600 -15.462200 -20.159500
N -12.004500 -17.443100 -19.883700
C -11.659600 -16.066300 -19.517300
N -11.578800 -19.471300 -20.394100
N -11.013900 -18.357600 -20.034000
H -10.697500 -15.959300 -19.578700
29
Fragment
H -20.765200 -20.787500 -24.334600
N -20.448700 -18.389300 -23.879300
N -19.883900 -17.275600 -23.519200
C -19.803000 -20.680600 -24.396000
N -19.458200 -19.303700 -24.029600
H -19.398100 -21.284600 -23.753800
C -19.358900 -21.078600 -25.783700
H -19.342800 -19.271000 -26.657600
H -19.233000 -23.052800 -25.341300
C -19.211500 -20.177900 -26.815700
C -19.149600 -22.430700 -26.028500
C -18.868700 -20.612100 -28.084800
C -18.818200 -22.837100 -27.298700
H -18.767000 -19.994200 -28.773100
C -18.677800 -21.961700 -28.338400
O -18.654200 -25.031300 -26.571900
N -18.620900 -24.284400 -27.534700
C -18.538200 -17.459800 -23.450000
H -18.459700 -22.262600 -29.190300
O -18.434500 -24.647900 -28.673200
C -18.244600 -18.766900 -23.780500
O -18.100800 -15.264500 -22.758900
C -17.640900 -16.359900 -23.079700
H -17.117400 -20.420300 -23.549600
C -16.981000 -19.530200 -23.882300
H -16.705300 -19.570400 -24.801100
O -16.395800 -16.657500 -23.141200
H -16.301400 -19.094000 -23.363000
H -15.966800 -16.041900 -22.955700
58
Fragment
H -15.495900 -20.704900 -20.957600
H -15.161300 -17.652900 -20.550300
O -15.066900 -20.089300 -20.772100
H -14.757400 -17.176400 -19.112200
C -14.481700 -17.216700 -20.031100
H -14.345300 -16.326500 -20.363700
C -13.821800 -20.386900 -20.833600
O -13.361900 -21.482400 -21.154400
C -13.218100 -17.979900 -20.132800
O -13.028200 -12.099000 -15.240100
H -13.002900 -14.484200 -14.723000
C -12.924500 -19.287100 -20.463300
N -12.841800 -12.462500 -16.378600
O -12.808500 -11.715600 -17.341400
C -12.784900 -14.785200 -15.575000
H -12.695700 -16.752700 -15.140200
C -12.644500 -13.909700 -16.614600
C -12.594000 -16.134700 -15.828600
C -12.313100 -14.316200 -17.884800
C -12.251200 -16.568900 -17.097600
H -12.229700 -13.694000 -18.572000
H -12.119900 -17.475900 -17.255700
C -12.103800 -15.668200 -18.129600
H -12.064600 -15.462200 -20.159500
N -12.004500 -17.443100 -19.883700
C -11.659600 -16.066300 -19.517300
N -11.578800 -19.471300 -20.394100
N -11.013900 -18.357600 -20.034000
H -10.697500 -15.959300 -19.578700
H -20.765200 -20.787500 -24.334600
N -20.448700 -18.389300 -23.879300
N -19.883900 -17.275600 -23.519200
C -19.803000 -20.680600 -24.396000
N -19.458200 -19.303700 -24.029600
H -19.398100 -21.284600 -23.753800
C -19.358900 -21.078600 -25.783700
H -19.342800 -19.271000 -26.657600
H -19.233000 -23.052800 -25.341300
C -19.211500 -20.177900 -26.815700
C -19.149600 -22.430700 -26.028500
C -18.868700 -20.612100 -28.084800
C -18.818200 -22.837100 -27.298700
H -18.767000 -19.994200 -28.773100
C -18.677800 -21.961700 -28.338400
O -18.654200 -25.031300 -26.571900
N -18.620900 -24.284400 -27.534700
C -18.538200 -17.459800 -23.450000
H -18.459700 -22.262600 -29.190300
O -18.434500 -24.647900 -28.673200
C -18.244600 -18.766900 -23.780500
O -18.100800 -15.264500 -22.758900
C -17.640900 -16.359900 -23.079700
H -17.117400 -20.420300 -23.549600
C -16.981000 -19.530200 -23.882300
H -16.705300 -19.570400 -24.801100
O -16.395800 -16.657500 -23.141200
H -16.301400 -19.094000 -23.363000
H -15.966800 -16.041900 -22.955700
