29
Fragment
H -15.495900 -20.704900 -20.957600
H -15.161300 -17.652900 -20.550300
O -15.066900 -20.089300 -20.772100
H -14.757400 -17.176400 -19.112200
C -14.481700 -17.216700 -20.031100
H -14.345300 -16.326500 -20.363700
C -13.821800 -20.386900 -20.833600
O -13.361900 -21.482400 -21.154400
C -13.218100 -17.979900 -20.132800
O -13.028200 -12.099000 -15.240100
H -13.002900 -14.484200 -14.723000
C -12.924500 -19.287100 -20.463300
N -12.841800 -12.462500 -16.378600
O -12.808500 -11.715600 -17.341400
C -12.784900 -14.785200 -15.575000
H -12.695700 -16.752700 -15.140200
C -12.644500 -13.909700 -16.614600
C -12.594000 -16.134700 -15.828600
C -12.313100 -14.316200 -17.884800
C -12.251200 -16.568900 -17.097600
H -12.229700 -13.694000 -18.572000
H -12.119900 -17.475900 -17.255700
C -12.103800 -15.668200 -18.129600
H -12.064600 -15.462200 -20.159500
N -12.004500 -17.443100 -19.883700
C -11.659600 -16.066300 -19.517300
N -11.578800 -19.471300 -20.394100
N -11.013900 -18.357600 -20.034000
H -10.697500 -15.959300 -19.578700
29
Fragment
H -18.273200 -11.600800 -13.356200
N -17.956800 -9.202600 -12.901000
N -17.391900 -8.088900 -12.540900
C -17.311000 -11.493900 -13.417700
N -16.966200 -10.117000 -13.051300
H -16.906100 -12.097900 -12.775500
C -16.866900 -11.891900 -14.805400
H -16.850800 -10.084300 -15.679200
H -16.741000 -13.866100 -14.362900
C -16.719500 -10.991200 -15.837300
C -16.657600 -13.244000 -15.050200
C -16.376700 -11.425400 -17.106400
C -16.326200 -13.650400 -16.320400
H -16.275000 -10.807500 -17.794800
C -16.185800 -12.775000 -17.360000
O -16.162200 -15.844600 -15.593600
N -16.128900 -15.097700 -16.556400
C -16.046200 -8.273100 -12.471700
H -15.967700 -13.075900 -18.211900
O -15.942500 -15.461200 -17.694900
C -15.752600 -9.580200 -12.802200
O -15.608800 -6.077800 -11.780600
C -15.148900 -7.173200 -12.101400
H -14.625400 -11.233600 -12.571300
C -14.489000 -10.343500 -12.903900
H -14.213300 -10.383700 -13.822800
O -13.903800 -7.470800 -12.162900
H -13.809400 -9.907300 -12.384700
H -13.474800 -6.855200 -11.977400
58
Fragment
H -15.495900 -20.704900 -20.957600
H -15.161300 -17.652900 -20.550300
O -15.066900 -20.089300 -20.772100
H -14.757400 -17.176400 -19.112200
C -14.481700 -17.216700 -20.031100
H -14.345300 -16.326500 -20.363700
C -13.821800 -20.386900 -20.833600
O -13.361900 -21.482400 -21.154400
C -13.218100 -17.979900 -20.132800
O -13.028200 -12.099000 -15.240100
H -13.002900 -14.484200 -14.723000
C -12.924500 -19.287100 -20.463300
N -12.841800 -12.462500 -16.378600
O -12.808500 -11.715600 -17.341400
C -12.784900 -14.785200 -15.575000
H -12.695700 -16.752700 -15.140200
C -12.644500 -13.909700 -16.614600
C -12.594000 -16.134700 -15.828600
C -12.313100 -14.316200 -17.884800
C -12.251200 -16.568900 -17.097600
H -12.229700 -13.694000 -18.572000
H -12.119900 -17.475900 -17.255700
C -12.103800 -15.668200 -18.129600
H -12.064600 -15.462200 -20.159500
N -12.004500 -17.443100 -19.883700
C -11.659600 -16.066300 -19.517300
N -11.578800 -19.471300 -20.394100
N -11.013900 -18.357600 -20.034000
H -10.697500 -15.959300 -19.578700
H -18.273200 -11.600800 -13.356200
N -17.956800 -9.202600 -12.901000
N -17.391900 -8.088900 -12.540900
C -17.311000 -11.493900 -13.417700
N -16.966200 -10.117000 -13.051300
H -16.906100 -12.097900 -12.775500
C -16.866900 -11.891900 -14.805400
H -16.850800 -10.084300 -15.679200
H -16.741000 -13.866100 -14.362900
C -16.719500 -10.991200 -15.837300
C -16.657600 -13.244000 -15.050200
C -16.376700 -11.425400 -17.106400
C -16.326200 -13.650400 -16.320400
H -16.275000 -10.807500 -17.794800
C -16.185800 -12.775000 -17.360000
O -16.162200 -15.844600 -15.593600
N -16.128900 -15.097700 -16.556400
C -16.046200 -8.273100 -12.471700
H -15.967700 -13.075900 -18.211900
O -15.942500 -15.461200 -17.694900
C -15.752600 -9.580200 -12.802200
O -15.608800 -6.077800 -11.780600
C -15.148900 -7.173200 -12.101400
H -14.625400 -11.233600 -12.571300
C -14.489000 -10.343500 -12.903900
H -14.213300 -10.383700 -13.822800
O -13.903800 -7.470800 -12.162900
H -13.809400 -9.907300 -12.384700
H -13.474800 -6.855200 -11.977400
