29
Fragment
H -15.495900 -20.704900 -20.957600
H -15.161300 -17.652900 -20.550300
O -15.066900 -20.089300 -20.772100
H -14.757400 -17.176400 -19.112200
C -14.481700 -17.216700 -20.031100
H -14.345300 -16.326500 -20.363700
C -13.821800 -20.386900 -20.833600
O -13.361900 -21.482400 -21.154400
C -13.218100 -17.979900 -20.132800
O -13.028200 -12.099000 -15.240100
H -13.002900 -14.484200 -14.723000
C -12.924500 -19.287100 -20.463300
N -12.841800 -12.462500 -16.378600
O -12.808500 -11.715600 -17.341400
C -12.784900 -14.785200 -15.575000
H -12.695700 -16.752700 -15.140200
C -12.644500 -13.909700 -16.614600
C -12.594000 -16.134700 -15.828600
C -12.313100 -14.316200 -17.884800
C -12.251200 -16.568900 -17.097600
H -12.229700 -13.694000 -18.572000
H -12.119900 -17.475900 -17.255700
C -12.103800 -15.668200 -18.129600
H -12.064600 -15.462200 -20.159500
N -12.004500 -17.443100 -19.883700
C -11.659600 -16.066300 -19.517300
N -11.578800 -19.471300 -20.394100
N -11.013900 -18.357600 -20.034000
H -10.697500 -15.959300 -19.578700
29
Fragment
H -22.660800 -20.704900 -20.957600
H -22.326200 -17.652900 -20.550300
O -22.231800 -20.089300 -20.772100
H -21.922300 -17.176400 -19.112200
C -21.646600 -17.216700 -20.031100
H -21.510200 -16.326500 -20.363700
C -20.986700 -20.386900 -20.833600
O -20.526800 -21.482400 -21.154400
C -20.383000 -17.979900 -20.132800
O -20.193100 -12.099000 -15.240100
H -20.167800 -14.484200 -14.723000
C -20.089400 -19.287100 -20.463300
N -20.006700 -12.462500 -16.378600
O -19.973400 -11.715600 -17.341400
C -19.949800 -14.785200 -15.575000
H -19.860600 -16.752700 -15.140200
C -19.809400 -13.909700 -16.614600
C -19.758900 -16.134700 -15.828600
C -19.478000 -14.316200 -17.884800
C -19.416100 -16.568900 -17.097600
H -19.394600 -13.694000 -18.572000
H -19.284800 -17.475900 -17.255700
C -19.268700 -15.668200 -18.129600
H -19.229500 -15.462200 -20.159500
N -19.169400 -17.443100 -19.883700
C -18.824500 -16.066300 -19.517300
N -18.743700 -19.471300 -20.394100
N -18.178800 -18.357600 -20.034000
H -17.862400 -15.959300 -19.578700
58
Fragment
H -15.495900 -20.704900 -20.957600
H -15.161300 -17.652900 -20.550300
O -15.066900 -20.089300 -20.772100
H -14.757400 -17.176400 -19.112200
C -14.481700 -17.216700 -20.031100
H -14.345300 -16.326500 -20.363700
C -13.821800 -20.386900 -20.833600
O -13.361900 -21.482400 -21.154400
C -13.218100 -17.979900 -20.132800
O -13.028200 -12.099000 -15.240100
H -13.002900 -14.484200 -14.723000
C -12.924500 -19.287100 -20.463300
N -12.841800 -12.462500 -16.378600
O -12.808500 -11.715600 -17.341400
C -12.784900 -14.785200 -15.575000
H -12.695700 -16.752700 -15.140200
C -12.644500 -13.909700 -16.614600
C -12.594000 -16.134700 -15.828600
C -12.313100 -14.316200 -17.884800
C -12.251200 -16.568900 -17.097600
H -12.229700 -13.694000 -18.572000
H -12.119900 -17.475900 -17.255700
C -12.103800 -15.668200 -18.129600
H -12.064600 -15.462200 -20.159500
N -12.004500 -17.443100 -19.883700
C -11.659600 -16.066300 -19.517300
N -11.578800 -19.471300 -20.394100
N -11.013900 -18.357600 -20.034000
H -10.697500 -15.959300 -19.578700
H -22.660800 -20.704900 -20.957600
H -22.326200 -17.652900 -20.550300
O -22.231800 -20.089300 -20.772100
H -21.922300 -17.176400 -19.112200
C -21.646600 -17.216700 -20.031100
H -21.510200 -16.326500 -20.363700
C -20.986700 -20.386900 -20.833600
O -20.526800 -21.482400 -21.154400
C -20.383000 -17.979900 -20.132800
O -20.193100 -12.099000 -15.240100
H -20.167800 -14.484200 -14.723000
C -20.089400 -19.287100 -20.463300
N -20.006700 -12.462500 -16.378600
O -19.973400 -11.715600 -17.341400
C -19.949800 -14.785200 -15.575000
H -19.860600 -16.752700 -15.140200
C -19.809400 -13.909700 -16.614600
C -19.758900 -16.134700 -15.828600
C -19.478000 -14.316200 -17.884800
C -19.416100 -16.568900 -17.097600
H -19.394600 -13.694000 -18.572000
H -19.284800 -17.475900 -17.255700
C -19.268700 -15.668200 -18.129600
H -19.229500 -15.462200 -20.159500
N -19.169400 -17.443100 -19.883700
C -18.824500 -16.066300 -19.517300
N -18.743700 -19.471300 -20.394100
N -18.178800 -18.357600 -20.034000
H -17.862400 -15.959300 -19.578700
