29
Fragment
H -15.495900 -20.704900 -20.957600
H -15.161300 -17.652900 -20.550300
O -15.066900 -20.089300 -20.772100
H -14.757400 -17.176400 -19.112200
C -14.481700 -17.216700 -20.031100
H -14.345300 -16.326500 -20.363700
C -13.821800 -20.386900 -20.833600
O -13.361900 -21.482400 -21.154400
C -13.218100 -17.979900 -20.132800
O -13.028200 -12.099000 -15.240100
H -13.002900 -14.484200 -14.723000
C -12.924500 -19.287100 -20.463300
N -12.841800 -12.462500 -16.378600
O -12.808500 -11.715600 -17.341400
C -12.784900 -14.785200 -15.575000
H -12.695700 -16.752700 -15.140200
C -12.644500 -13.909700 -16.614600
C -12.594000 -16.134700 -15.828600
C -12.313100 -14.316200 -17.884800
C -12.251200 -16.568900 -17.097600
H -12.229700 -13.694000 -18.572000
H -12.119900 -17.475900 -17.255700
C -12.103800 -15.668200 -18.129600
H -12.064600 -15.462200 -20.159500
N -12.004500 -17.443100 -19.883700
C -11.659600 -16.066300 -19.517300
N -11.578800 -19.471300 -20.394100
N -11.013900 -18.357600 -20.034000
H -10.697500 -15.959300 -19.578700
29
Fragment
H -15.584700 -28.910800 -20.957600
H -15.250100 -25.858800 -20.550300
O -15.155700 -28.295200 -20.772100
H -14.846200 -25.382400 -19.112200
C -14.570500 -25.422600 -20.031100
H -14.434100 -24.532400 -20.363700
C -13.910600 -28.592900 -20.833600
O -13.450700 -29.688300 -21.154400
C -13.306900 -26.185800 -20.132800
O -13.117000 -20.304900 -15.240100
H -13.091700 -22.690100 -14.723000
C -13.013300 -27.493000 -20.463300
N -12.930600 -20.668400 -16.378600
O -12.897300 -19.921500 -17.341400
C -12.873700 -22.991100 -15.575000
H -12.784500 -24.958600 -15.140200
C -12.733300 -22.115700 -16.614600
C -12.682800 -24.340600 -15.828600
C -12.401900 -22.522100 -17.884800
C -12.340000 -24.774900 -17.097600
H -12.318500 -21.899900 -18.572000
H -12.208700 -25.681800 -17.255700
C -12.192600 -23.874100 -18.129600
H -12.153400 -23.668200 -20.159500
N -12.093300 -25.649100 -19.883700
C -11.748400 -24.272200 -19.517300
N -11.667600 -27.677200 -20.394100
N -11.102700 -26.563500 -20.034000
H -10.786300 -24.165300 -19.578700
58
Fragment
H -15.495900 -20.704900 -20.957600
H -15.161300 -17.652900 -20.550300
O -15.066900 -20.089300 -20.772100
H -14.757400 -17.176400 -19.112200
C -14.481700 -17.216700 -20.031100
H -14.345300 -16.326500 -20.363700
C -13.821800 -20.386900 -20.833600
O -13.361900 -21.482400 -21.154400
C -13.218100 -17.979900 -20.132800
O -13.028200 -12.099000 -15.240100
H -13.002900 -14.484200 -14.723000
C -12.924500 -19.287100 -20.463300
N -12.841800 -12.462500 -16.378600
O -12.808500 -11.715600 -17.341400
C -12.784900 -14.785200 -15.575000
H -12.695700 -16.752700 -15.140200
C -12.644500 -13.909700 -16.614600
C -12.594000 -16.134700 -15.828600
C -12.313100 -14.316200 -17.884800
C -12.251200 -16.568900 -17.097600
H -12.229700 -13.694000 -18.572000
H -12.119900 -17.475900 -17.255700
C -12.103800 -15.668200 -18.129600
H -12.064600 -15.462200 -20.159500
N -12.004500 -17.443100 -19.883700
C -11.659600 -16.066300 -19.517300
N -11.578800 -19.471300 -20.394100
N -11.013900 -18.357600 -20.034000
H -10.697500 -15.959300 -19.578700
H -15.584700 -28.910800 -20.957600
H -15.250100 -25.858800 -20.550300
O -15.155700 -28.295200 -20.772100
H -14.846200 -25.382400 -19.112200
C -14.570500 -25.422600 -20.031100
H -14.434100 -24.532400 -20.363700
C -13.910600 -28.592900 -20.833600
O -13.450700 -29.688300 -21.154400
C -13.306900 -26.185800 -20.132800
O -13.117000 -20.304900 -15.240100
H -13.091700 -22.690100 -14.723000
C -13.013300 -27.493000 -20.463300
N -12.930600 -20.668400 -16.378600
O -12.897300 -19.921500 -17.341400
C -12.873700 -22.991100 -15.575000
H -12.784500 -24.958600 -15.140200
C -12.733300 -22.115700 -16.614600
C -12.682800 -24.340600 -15.828600
C -12.401900 -22.522100 -17.884800
C -12.340000 -24.774900 -17.097600
H -12.318500 -21.899900 -18.572000
H -12.208700 -25.681800 -17.255700
C -12.192600 -23.874100 -18.129600
H -12.153400 -23.668200 -20.159500
N -12.093300 -25.649100 -19.883700
C -11.748400 -24.272200 -19.517300
N -11.667600 -27.677200 -20.394100
N -11.102700 -26.563500 -20.034000
H -10.786300 -24.165300 -19.578700
