29
Fragment
H -15.495900 -20.704900 -20.957600
H -15.161300 -17.652900 -20.550300
O -15.066900 -20.089300 -20.772100
H -14.757400 -17.176400 -19.112200
C -14.481700 -17.216700 -20.031100
H -14.345300 -16.326500 -20.363700
C -13.821800 -20.386900 -20.833600
O -13.361900 -21.482400 -21.154400
C -13.218100 -17.979900 -20.132800
O -13.028200 -12.099000 -15.240100
H -13.002900 -14.484200 -14.723000
C -12.924500 -19.287100 -20.463300
N -12.841800 -12.462500 -16.378600
O -12.808500 -11.715600 -17.341400
C -12.784900 -14.785200 -15.575000
H -12.695700 -16.752700 -15.140200
C -12.644500 -13.909700 -16.614600
C -12.594000 -16.134700 -15.828600
C -12.313100 -14.316200 -17.884800
C -12.251200 -16.568900 -17.097600
H -12.229700 -13.694000 -18.572000
H -12.119900 -17.475900 -17.255700
C -12.103800 -15.668200 -18.129600
H -12.064600 -15.462200 -20.159500
N -12.004500 -17.443100 -19.883700
C -11.659600 -16.066300 -19.517300
N -11.578800 -19.471300 -20.394100
N -11.013900 -18.357600 -20.034000
H -10.697500 -15.959300 -19.578700
29
Fragment
H -11.197100 -19.806700 -13.356200
N -10.880700 -17.408500 -12.901000
N -10.315800 -16.294800 -12.540900
C -10.234900 -19.699800 -13.417700
N -9.890100 -18.322900 -13.051300
H -9.830000 -20.303800 -12.775500
C -9.790800 -20.097800 -14.805400
H -9.774700 -18.290200 -15.679200
H -9.664900 -22.072000 -14.362900
C -9.643400 -19.197100 -15.837300
C -9.581500 -21.449900 -15.050200
C -9.300600 -19.631300 -17.106400
C -9.250100 -21.856300 -16.320400
H -9.198900 -19.013400 -17.794800
C -9.109700 -20.980900 -17.360000
O -9.086100 -24.050500 -15.593600
N -9.052800 -23.303600 -16.556400
C -8.970100 -16.479000 -12.471700
H -8.891600 -21.281900 -18.211900
O -8.866400 -23.667100 -17.694900
C -8.676500 -17.786200 -12.802200
O -8.532700 -14.283700 -11.780600
C -8.072800 -15.379100 -12.101400
H -7.549300 -19.439500 -12.571300
C -7.412900 -18.549400 -12.903900
H -7.137200 -18.589600 -13.822800
O -6.827700 -15.676700 -12.162900
H -6.733300 -18.113200 -12.384700
H -6.398700 -15.061100 -11.977400
58
Fragment
H -15.495900 -20.704900 -20.957600
H -15.161300 -17.652900 -20.550300
O -15.066900 -20.089300 -20.772100
H -14.757400 -17.176400 -19.112200
C -14.481700 -17.216700 -20.031100
H -14.345300 -16.326500 -20.363700
C -13.821800 -20.386900 -20.833600
O -13.361900 -21.482400 -21.154400
C -13.218100 -17.979900 -20.132800
O -13.028200 -12.099000 -15.240100
H -13.002900 -14.484200 -14.723000
C -12.924500 -19.287100 -20.463300
N -12.841800 -12.462500 -16.378600
O -12.808500 -11.715600 -17.341400
C -12.784900 -14.785200 -15.575000
H -12.695700 -16.752700 -15.140200
C -12.644500 -13.909700 -16.614600
C -12.594000 -16.134700 -15.828600
C -12.313100 -14.316200 -17.884800
C -12.251200 -16.568900 -17.097600
H -12.229700 -13.694000 -18.572000
H -12.119900 -17.475900 -17.255700
C -12.103800 -15.668200 -18.129600
H -12.064600 -15.462200 -20.159500
N -12.004500 -17.443100 -19.883700
C -11.659600 -16.066300 -19.517300
N -11.578800 -19.471300 -20.394100
N -11.013900 -18.357600 -20.034000
H -10.697500 -15.959300 -19.578700
H -11.197100 -19.806700 -13.356200
N -10.880700 -17.408500 -12.901000
N -10.315800 -16.294800 -12.540900
C -10.234900 -19.699800 -13.417700
N -9.890100 -18.322900 -13.051300
H -9.830000 -20.303800 -12.775500
C -9.790800 -20.097800 -14.805400
H -9.774700 -18.290200 -15.679200
H -9.664900 -22.072000 -14.362900
C -9.643400 -19.197100 -15.837300
C -9.581500 -21.449900 -15.050200
C -9.300600 -19.631300 -17.106400
C -9.250100 -21.856300 -16.320400
H -9.198900 -19.013400 -17.794800
C -9.109700 -20.980900 -17.360000
O -9.086100 -24.050500 -15.593600
N -9.052800 -23.303600 -16.556400
C -8.970100 -16.479000 -12.471700
H -8.891600 -21.281900 -18.211900
O -8.866400 -23.667100 -17.694900
C -8.676500 -17.786200 -12.802200
O -8.532700 -14.283700 -11.780600
C -8.072800 -15.379100 -12.101400
H -7.549300 -19.439500 -12.571300
C -7.412900 -18.549400 -12.903900
H -7.137200 -18.589600 -13.822800
O -6.827700 -15.676700 -12.162900
H -6.733300 -18.113200 -12.384700
H -6.398700 -15.061100 -11.977400
