23
Fragment
H -7.474800 -7.755100 -13.566900
H -7.200900 -10.292600 -16.108100
H -7.087800 -8.237800 -15.007500
H -7.074900 -12.524500 -16.733000
C -6.868000 -10.938200 -15.526200
C -6.789700 -12.270000 -15.885000
C -6.771100 -8.118600 -14.109000
C -6.423200 -10.611200 -14.246100
N -6.353800 -9.408600 -13.564400
C -6.294900 -13.251900 -15.010800
H -6.255700 -14.136500 -15.294900
H -6.024500 -7.515400 -14.110100
C -5.930400 -11.581500 -13.353700
H -5.865400 -5.863800 -10.439900
C -5.861900 -12.928900 -13.735200
N -5.849700 -7.470200 -11.404300
C -5.842400 -9.694700 -12.330400
C -5.601400 -8.724600 -11.266400
N -5.578300 -10.978500 -12.160400
O -5.540200 -6.770200 -10.276700
H -5.539700 -13.580400 -13.154400
C -5.104000 -9.253400 -10.008100
N -4.745600 -9.653000 -8.999900
23
Fragment
H -3.311300 -9.328900 -5.234900
H -3.037400 -11.866400 -7.776200
H -2.924200 -9.811600 -6.675500
H -2.911300 -14.098200 -8.401100
C -2.704500 -12.511900 -7.194300
C -2.626100 -13.843800 -7.553100
C -2.607500 -9.692400 -5.777100
C -2.259700 -12.184900 -5.914200
N -2.190300 -10.982400 -5.232500
C -2.131300 -14.825700 -6.678900
H -2.092100 -15.710300 -6.963000
H -1.861000 -9.089200 -5.778200
C -1.766900 -13.155300 -5.021700
H -1.701800 -7.437600 -2.108000
C -1.698400 -14.502700 -5.403300
N -1.686200 -9.044000 -3.072400
C -1.678800 -11.268500 -3.998500
C -1.437800 -10.298300 -2.934500
N -1.414700 -12.552300 -3.828500
O -1.376600 -8.344000 -1.944800
H -1.376100 -15.154100 -4.822500
C -0.940400 -10.827200 -1.676200
N -0.582000 -11.226800 -0.668000
46
Fragment
H -7.474800 -7.755100 -13.566900
H -7.200900 -10.292600 -16.108100
H -7.087800 -8.237800 -15.007500
H -7.074900 -12.524500 -16.733000
C -6.868000 -10.938200 -15.526200
C -6.789700 -12.270000 -15.885000
C -6.771100 -8.118600 -14.109000
C -6.423200 -10.611200 -14.246100
N -6.353800 -9.408600 -13.564400
C -6.294900 -13.251900 -15.010800
H -6.255700 -14.136500 -15.294900
H -6.024500 -7.515400 -14.110100
C -5.930400 -11.581500 -13.353700
H -5.865400 -5.863800 -10.439900
C -5.861900 -12.928900 -13.735200
N -5.849700 -7.470200 -11.404300
C -5.842400 -9.694700 -12.330400
C -5.601400 -8.724600 -11.266400
N -5.578300 -10.978500 -12.160400
O -5.540200 -6.770200 -10.276700
H -5.539700 -13.580400 -13.154400
C -5.104000 -9.253400 -10.008100
N -4.745600 -9.653000 -8.999900
H -3.311300 -9.328900 -5.234900
H -3.037400 -11.866400 -7.776200
H -2.924200 -9.811600 -6.675500
H -2.911300 -14.098200 -8.401100
C -2.704500 -12.511900 -7.194300
C -2.626100 -13.843800 -7.553100
C -2.607500 -9.692400 -5.777100
C -2.259700 -12.184900 -5.914200
N -2.190300 -10.982400 -5.232500
C -2.131300 -14.825700 -6.678900
H -2.092100 -15.710300 -6.963000
H -1.861000 -9.089200 -5.778200
C -1.766900 -13.155300 -5.021700
H -1.701800 -7.437600 -2.108000
C -1.698400 -14.502700 -5.403300
N -1.686200 -9.044000 -3.072400
C -1.678800 -11.268500 -3.998500
C -1.437800 -10.298300 -2.934500
N -1.414700 -12.552300 -3.828500
O -1.376600 -8.344000 -1.944800
H -1.376100 -15.154100 -4.822500
C -0.940400 -10.827200 -1.676200
N -0.582000 -11.226800 -0.668000
