23
Fragment
H -7.474800 -7.755100 -13.566900
H -7.200900 -10.292600 -16.108100
H -7.087800 -8.237800 -15.007500
H -7.074900 -12.524500 -16.733000
C -6.868000 -10.938200 -15.526200
C -6.789700 -12.270000 -15.885000
C -6.771100 -8.118600 -14.109000
C -6.423200 -10.611200 -14.246100
N -6.353800 -9.408600 -13.564400
C -6.294900 -13.251900 -15.010800
H -6.255700 -14.136500 -15.294900
H -6.024500 -7.515400 -14.110100
C -5.930400 -11.581500 -13.353700
H -5.865400 -5.863800 -10.439900
C -5.861900 -12.928900 -13.735200
N -5.849700 -7.470200 -11.404300
C -5.842400 -9.694700 -12.330400
C -5.601400 -8.724600 -11.266400
N -5.578300 -10.978500 -12.160400
O -5.540200 -6.770200 -10.276700
H -5.539700 -13.580400 -13.154400
C -5.104000 -9.253400 -10.008100
N -4.745600 -9.653000 -8.999900
23
Fragment
H -6.014700 -16.217000 -13.566900
H -5.740800 -18.754600 -16.108100
H -5.627700 -16.699700 -15.007500
H -5.614800 -20.986400 -16.733000
C -5.407900 -19.400100 -15.526200
C -5.329600 -20.732000 -15.885000
C -5.311000 -16.580600 -14.109000
C -4.963100 -19.073100 -14.246100
N -4.893700 -17.870500 -13.564400
C -4.834800 -21.713800 -15.010800
H -4.795600 -22.598400 -15.294900
H -4.564400 -15.977400 -14.110100
C -4.470300 -20.043500 -13.353700
H -4.405300 -14.325800 -10.439900
C -4.401800 -21.390900 -13.735200
N -4.389600 -15.932100 -11.404300
C -4.382300 -18.156700 -12.330400
C -4.141300 -17.186500 -11.266400
N -4.118200 -19.440500 -12.160400
O -4.080100 -15.232200 -10.276700
H -4.079600 -22.042300 -13.154400
C -3.643900 -17.715400 -10.008100
N -3.285500 -18.115000 -8.999900
46
Fragment
H -7.474800 -7.755100 -13.566900
H -7.200900 -10.292600 -16.108100
H -7.087800 -8.237800 -15.007500
H -7.074900 -12.524500 -16.733000
C -6.868000 -10.938200 -15.526200
C -6.789700 -12.270000 -15.885000
C -6.771100 -8.118600 -14.109000
C -6.423200 -10.611200 -14.246100
N -6.353800 -9.408600 -13.564400
C -6.294900 -13.251900 -15.010800
H -6.255700 -14.136500 -15.294900
H -6.024500 -7.515400 -14.110100
C -5.930400 -11.581500 -13.353700
H -5.865400 -5.863800 -10.439900
C -5.861900 -12.928900 -13.735200
N -5.849700 -7.470200 -11.404300
C -5.842400 -9.694700 -12.330400
C -5.601400 -8.724600 -11.266400
N -5.578300 -10.978500 -12.160400
O -5.540200 -6.770200 -10.276700
H -5.539700 -13.580400 -13.154400
C -5.104000 -9.253400 -10.008100
N -4.745600 -9.653000 -8.999900
H -6.014700 -16.217000 -13.566900
H -5.740800 -18.754600 -16.108100
H -5.627700 -16.699700 -15.007500
H -5.614800 -20.986400 -16.733000
C -5.407900 -19.400100 -15.526200
C -5.329600 -20.732000 -15.885000
C -5.311000 -16.580600 -14.109000
C -4.963100 -19.073100 -14.246100
N -4.893700 -17.870500 -13.564400
C -4.834800 -21.713800 -15.010800
H -4.795600 -22.598400 -15.294900
H -4.564400 -15.977400 -14.110100
C -4.470300 -20.043500 -13.353700
H -4.405300 -14.325800 -10.439900
C -4.401800 -21.390900 -13.735200
N -4.389600 -15.932100 -11.404300
C -4.382300 -18.156700 -12.330400
C -4.141300 -17.186500 -11.266400
N -4.118200 -19.440500 -12.160400
O -4.080100 -15.232200 -10.276700
H -4.079600 -22.042300 -13.154400
C -3.643900 -17.715400 -10.008100
N -3.285500 -18.115000 -8.999900
