23
Fragment
H -7.474800 -7.755100 -13.566900
H -7.200900 -10.292600 -16.108100
H -7.087800 -8.237800 -15.007500
H -7.074900 -12.524500 -16.733000
C -6.868000 -10.938200 -15.526200
C -6.789700 -12.270000 -15.885000
C -6.771100 -8.118600 -14.109000
C -6.423200 -10.611200 -14.246100
N -6.353800 -9.408600 -13.564400
C -6.294900 -13.251900 -15.010800
H -6.255700 -14.136500 -15.294900
H -6.024500 -7.515400 -14.110100
C -5.930400 -11.581500 -13.353700
H -5.865400 -5.863800 -10.439900
C -5.861900 -12.928900 -13.735200
N -5.849700 -7.470200 -11.404300
C -5.842400 -9.694700 -12.330400
C -5.601400 -8.724600 -11.266400
N -5.578300 -10.978500 -12.160400
O -5.540200 -6.770200 -10.276700
H -5.539700 -13.580400 -13.154400
C -5.104000 -9.253400 -10.008100
N -4.745600 -9.653000 -8.999900
23
Fragment
N -6.068300 -17.899700 -24.327800
C -5.709900 -18.299300 -23.319500
H -5.274100 -13.972400 -20.173200
O -5.273600 -20.782500 -23.051000
N -5.235600 -16.574200 -21.167200
C -5.212500 -18.828200 -22.061300
C -4.971500 -17.858000 -20.997300
N -4.964100 -20.082600 -21.923400
C -4.951900 -14.623800 -19.592500
H -4.948500 -21.688900 -22.887800
C -4.883400 -15.971200 -19.974000
H -4.789300 -20.037300 -19.217600
H -4.558100 -13.416300 -18.032800
C -4.518900 -14.300900 -18.316900
N -4.460000 -18.144200 -19.763200
C -4.390600 -16.941600 -19.081600
C -4.042800 -19.434100 -19.218700
C -4.024200 -15.282700 -17.442700
C -3.945800 -16.614600 -17.801500
H -3.739000 -15.028300 -16.594700
H -3.726000 -19.314900 -18.320200
H -3.612900 -17.260100 -17.219600
H -3.339000 -19.797600 -19.760800
46
Fragment
H -7.474800 -7.755100 -13.566900
H -7.200900 -10.292600 -16.108100
H -7.087800 -8.237800 -15.007500
H -7.074900 -12.524500 -16.733000
C -6.868000 -10.938200 -15.526200
C -6.789700 -12.270000 -15.885000
C -6.771100 -8.118600 -14.109000
C -6.423200 -10.611200 -14.246100
N -6.353800 -9.408600 -13.564400
C -6.294900 -13.251900 -15.010800
H -6.255700 -14.136500 -15.294900
H -6.024500 -7.515400 -14.110100
C -5.930400 -11.581500 -13.353700
H -5.865400 -5.863800 -10.439900
C -5.861900 -12.928900 -13.735200
N -5.849700 -7.470200 -11.404300
C -5.842400 -9.694700 -12.330400
C -5.601400 -8.724600 -11.266400
N -5.578300 -10.978500 -12.160400
O -5.540200 -6.770200 -10.276700
H -5.539700 -13.580400 -13.154400
C -5.104000 -9.253400 -10.008100
N -4.745600 -9.653000 -8.999900
N -6.068300 -17.899700 -24.327800
C -5.709900 -18.299300 -23.319500
H -5.274100 -13.972400 -20.173200
O -5.273600 -20.782500 -23.051000
N -5.235600 -16.574200 -21.167200
C -5.212500 -18.828200 -22.061300
C -4.971500 -17.858000 -20.997300
N -4.964100 -20.082600 -21.923400
C -4.951900 -14.623800 -19.592500
H -4.948500 -21.688900 -22.887800
C -4.883400 -15.971200 -19.974000
H -4.789300 -20.037300 -19.217600
H -4.558100 -13.416300 -18.032800
C -4.518900 -14.300900 -18.316900
N -4.460000 -18.144200 -19.763200
C -4.390600 -16.941600 -19.081600
C -4.042800 -19.434100 -19.218700
C -4.024200 -15.282700 -17.442700
C -3.945800 -16.614600 -17.801500
H -3.739000 -15.028300 -16.594700
H -3.726000 -19.314900 -18.320200
H -3.612900 -17.260100 -17.219600
H -3.339000 -19.797600 -19.760800
