23
Fragment
H -7.474800 -7.755100 -13.566900
H -7.200900 -10.292600 -16.108100
H -7.087800 -8.237800 -15.007500
H -7.074900 -12.524500 -16.733000
C -6.868000 -10.938200 -15.526200
C -6.789700 -12.270000 -15.885000
C -6.771100 -8.118600 -14.109000
C -6.423200 -10.611200 -14.246100
N -6.353800 -9.408600 -13.564400
C -6.294900 -13.251900 -15.010800
H -6.255700 -14.136500 -15.294900
H -6.024500 -7.515400 -14.110100
C -5.930400 -11.581500 -13.353700
H -5.865400 -5.863800 -10.439900
C -5.861900 -12.928900 -13.735200
N -5.849700 -7.470200 -11.404300
C -5.842400 -9.694700 -12.330400
C -5.601400 -8.724600 -11.266400
N -5.578300 -10.978500 -12.160400
O -5.540200 -6.770200 -10.276700
H -5.539700 -13.580400 -13.154400
C -5.104000 -9.253400 -10.008100
N -4.745600 -9.653000 -8.999900
23
Fragment
H -4.771400 -0.866900 -5.234900
H -4.497500 -3.404400 -7.776200
H -4.384300 -1.349600 -6.675500
H -4.371400 -5.636300 -8.401100
C -4.164600 -4.050000 -7.194300
C -4.086200 -5.381800 -7.553100
C -4.067600 -1.230400 -5.777100
C -3.719800 -3.723000 -5.914200
N -3.650400 -2.520400 -5.232500
C -3.591500 -6.363700 -6.678900
H -3.552200 -7.248300 -6.963000
H -3.321100 -0.627200 -5.778200
C -3.227000 -4.693300 -5.021700
H -3.161900 1.024300 -2.108000
C -3.158500 -6.040700 -5.403300
N -3.146300 -0.582000 -3.072400
C -3.138900 -2.806600 -3.998500
C -2.897900 -1.836400 -2.934500
N -2.874800 -4.090400 -3.828500
O -2.836800 0.118000 -1.944800
H -2.836200 -6.692200 -4.822500
C -2.400500 -2.365200 -1.676200
N -2.042100 -2.764900 -0.668000
46
Fragment
H -7.474800 -7.755100 -13.566900
H -7.200900 -10.292600 -16.108100
H -7.087800 -8.237800 -15.007500
H -7.074900 -12.524500 -16.733000
C -6.868000 -10.938200 -15.526200
C -6.789700 -12.270000 -15.885000
C -6.771100 -8.118600 -14.109000
C -6.423200 -10.611200 -14.246100
N -6.353800 -9.408600 -13.564400
C -6.294900 -13.251900 -15.010800
H -6.255700 -14.136500 -15.294900
H -6.024500 -7.515400 -14.110100
C -5.930400 -11.581500 -13.353700
H -5.865400 -5.863800 -10.439900
C -5.861900 -12.928900 -13.735200
N -5.849700 -7.470200 -11.404300
C -5.842400 -9.694700 -12.330400
C -5.601400 -8.724600 -11.266400
N -5.578300 -10.978500 -12.160400
O -5.540200 -6.770200 -10.276700
H -5.539700 -13.580400 -13.154400
C -5.104000 -9.253400 -10.008100
N -4.745600 -9.653000 -8.999900
H -4.771400 -0.866900 -5.234900
H -4.497500 -3.404400 -7.776200
H -4.384300 -1.349600 -6.675500
H -4.371400 -5.636300 -8.401100
C -4.164600 -4.050000 -7.194300
C -4.086200 -5.381800 -7.553100
C -4.067600 -1.230400 -5.777100
C -3.719800 -3.723000 -5.914200
N -3.650400 -2.520400 -5.232500
C -3.591500 -6.363700 -6.678900
H -3.552200 -7.248300 -6.963000
H -3.321100 -0.627200 -5.778200
C -3.227000 -4.693300 -5.021700
H -3.161900 1.024300 -2.108000
C -3.158500 -6.040700 -5.403300
N -3.146300 -0.582000 -3.072400
C -3.138900 -2.806600 -3.998500
C -2.897900 -1.836400 -2.934500
N -2.874800 -4.090400 -3.828500
O -2.836800 0.118000 -1.944800
H -2.836200 -6.692200 -4.822500
C -2.400500 -2.365200 -1.676200
N -2.042100 -2.764900 -0.668000
