24
Fragment
O -18.446600 -21.162600 -15.781400
H -17.899000 -21.162600 -18.000700
C -17.348800 -21.162600 -16.236400
O -17.103400 -21.162600 -17.525200
H -16.357200 -21.162600 -14.426700
C -16.074300 -21.162600 -15.382400
N -15.822400 -24.607200 -14.504400
N -15.822400 -17.717900 -14.504400
C -15.552400 -23.616600 -15.019700
C -15.552400 -18.708600 -15.019700
C -15.227100 -22.390600 -15.665300
C -15.227100 -19.934500 -15.665300
C -14.179200 -22.358800 -16.525500
C -14.179200 -19.966300 -16.525500
N -13.783900 -21.162600 -17.070900
H -13.704000 -24.386500 -16.573100
H -13.704000 -17.938600 -16.573100
C -13.329300 -23.530700 -16.884800
C -13.329300 -18.794400 -16.884800
H -13.207800 -23.561800 -17.851900
H -13.207800 -18.763300 -17.851900
H -13.093600 -21.162600 -17.606600
H -12.420500 -23.388900 -16.527700
H -12.420500 -18.936300 -16.527700
24
Fragment
O -26.273000 -21.162600 -15.781400
H -25.725400 -21.162600 -18.000700
C -25.175200 -21.162600 -16.236400
O -24.929800 -21.162600 -17.525200
H -24.183600 -21.162600 -14.426700
C -23.900700 -21.162600 -15.382400
N -23.648800 -24.607200 -14.504400
N -23.648800 -17.717900 -14.504400
C -23.378800 -23.616600 -15.019700
C -23.378800 -18.708600 -15.019700
C -23.053500 -22.390600 -15.665300
C -23.053500 -19.934500 -15.665300
C -22.005600 -22.358800 -16.525500
C -22.005600 -19.966300 -16.525500
N -21.610300 -21.162600 -17.070900
H -21.530400 -24.386500 -16.573100
H -21.530400 -17.938600 -16.573100
C -21.155700 -23.530700 -16.884800
C -21.155700 -18.794400 -16.884800
H -21.034200 -23.561800 -17.851900
H -21.034200 -18.763300 -17.851900
H -20.920000 -21.162600 -17.606600
H -20.246900 -23.388900 -16.527700
H -20.246900 -18.936300 -16.527700
48
Fragment
O -18.446600 -21.162600 -15.781400
H -17.899000 -21.162600 -18.000700
C -17.348800 -21.162600 -16.236400
O -17.103400 -21.162600 -17.525200
H -16.357200 -21.162600 -14.426700
C -16.074300 -21.162600 -15.382400
N -15.822400 -24.607200 -14.504400
N -15.822400 -17.717900 -14.504400
C -15.552400 -23.616600 -15.019700
C -15.552400 -18.708600 -15.019700
C -15.227100 -22.390600 -15.665300
C -15.227100 -19.934500 -15.665300
C -14.179200 -22.358800 -16.525500
C -14.179200 -19.966300 -16.525500
N -13.783900 -21.162600 -17.070900
H -13.704000 -24.386500 -16.573100
H -13.704000 -17.938600 -16.573100
C -13.329300 -23.530700 -16.884800
C -13.329300 -18.794400 -16.884800
H -13.207800 -23.561800 -17.851900
H -13.207800 -18.763300 -17.851900
H -13.093600 -21.162600 -17.606600
H -12.420500 -23.388900 -16.527700
H -12.420500 -18.936300 -16.527700
O -26.273000 -21.162600 -15.781400
H -25.725400 -21.162600 -18.000700
C -25.175200 -21.162600 -16.236400
O -24.929800 -21.162600 -17.525200
H -24.183600 -21.162600 -14.426700
C -23.900700 -21.162600 -15.382400
N -23.648800 -24.607200 -14.504400
N -23.648800 -17.717900 -14.504400
C -23.378800 -23.616600 -15.019700
C -23.378800 -18.708600 -15.019700
C -23.053500 -22.390600 -15.665300
C -23.053500 -19.934500 -15.665300
C -22.005600 -22.358800 -16.525500
C -22.005600 -19.966300 -16.525500
N -21.610300 -21.162600 -17.070900
H -21.530400 -24.386500 -16.573100
H -21.530400 -17.938600 -16.573100
C -21.155700 -23.530700 -16.884800
C -21.155700 -18.794400 -16.884800
H -21.034200 -23.561800 -17.851900
H -21.034200 -18.763300 -17.851900
H -20.920000 -21.162600 -17.606600
H -20.246900 -23.388900 -16.527700
H -20.246900 -18.936300 -16.527700
