20
Fragment
H -13.596200 -12.454200 -19.503600
Cl -13.169900 -7.065700 -19.558700
H -13.131700 -9.990100 -19.860700
H -13.072800 -14.640400 -19.914400
H -12.931400 -12.695300 -21.173800
C -12.775600 -12.666000 -20.236600
H -12.481200 -10.226900 -21.249000
C -12.346200 -14.040900 -19.793600
C -12.316700 -10.170400 -20.314500
H -12.113100 -14.006100 -18.873800
H -11.993200 -7.713900 -21.406100
C -11.789600 -11.549600 -19.965400
C -11.760100 -7.679100 -20.486400
H -11.625100 -11.493100 -19.030900
C -11.330700 -9.054000 -20.043300
H -11.174900 -9.024700 -19.106100
H -11.033500 -7.079600 -20.365500
H -10.974600 -11.729900 -20.419300
Cl -10.936400 -14.654300 -20.721200
H -10.510200 -9.265800 -20.776400
8
Fragment
O -16.608400 -4.563400 -17.909800
C -15.485800 -4.580700 -17.315000
H -15.462900 -6.473600 -16.854500
H -15.078100 -2.685700 -17.558000
N -14.991700 -5.709100 -16.799400
N -14.761700 -3.456700 -17.217000
H -14.187400 -5.704800 -16.396600
H -13.959200 -3.471900 -16.810200
28
Fragment
H -13.596200 -12.454200 -19.503600
Cl -13.169900 -7.065700 -19.558700
H -13.131700 -9.990100 -19.860700
H -13.072800 -14.640400 -19.914400
H -12.931400 -12.695300 -21.173800
C -12.775600 -12.666000 -20.236600
H -12.481200 -10.226900 -21.249000
C -12.346200 -14.040900 -19.793600
C -12.316700 -10.170400 -20.314500
H -12.113100 -14.006100 -18.873800
H -11.993200 -7.713900 -21.406100
C -11.789600 -11.549600 -19.965400
C -11.760100 -7.679100 -20.486400
H -11.625100 -11.493100 -19.030900
C -11.330700 -9.054000 -20.043300
H -11.174900 -9.024700 -19.106100
H -11.033500 -7.079600 -20.365500
H -10.974600 -11.729900 -20.419300
Cl -10.936400 -14.654300 -20.721200
H -10.510200 -9.265800 -20.776400
O -16.608400 -4.563400 -17.909800
C -15.485800 -4.580700 -17.315000
H -15.462900 -6.473600 -16.854500
H -15.078100 -2.685700 -17.558000
N -14.991700 -5.709100 -16.799400
N -14.761700 -3.456700 -17.217000
H -14.187400 -5.704800 -16.396600
H -13.959200 -3.471900 -16.810200
