20
Fragment
H -13.596200 -12.454200 -19.503600
Cl -13.169900 -7.065700 -19.558700
H -13.131700 -9.990100 -19.860700
H -13.072800 -14.640400 -19.914400
H -12.931400 -12.695300 -21.173800
C -12.775600 -12.666000 -20.236600
H -12.481200 -10.226900 -21.249000
C -12.346200 -14.040900 -19.793600
C -12.316700 -10.170400 -20.314500
H -12.113100 -14.006100 -18.873800
H -11.993200 -7.713900 -21.406100
C -11.789600 -11.549600 -19.965400
C -11.760100 -7.679100 -20.486400
H -11.625100 -11.493100 -19.030900
C -11.330700 -9.054000 -20.043300
H -11.174900 -9.024700 -19.106100
H -11.033500 -7.079600 -20.365500
H -10.974600 -11.729900 -20.419300
Cl -10.936400 -14.654300 -20.721200
H -10.510200 -9.265800 -20.776400
8
Fragment
H -18.833200 -12.929900 -16.735000
H -18.650500 -10.688400 -16.367100
N -18.038100 -12.936400 -17.156600
N -17.852900 -10.674300 -16.786000
H -17.710700 -13.706400 -17.488200
H -17.400000 -9.901100 -16.863900
C -17.342500 -11.802600 -17.288200
O -16.224400 -11.799400 -17.892400
28
Fragment
H -13.596200 -12.454200 -19.503600
Cl -13.169900 -7.065700 -19.558700
H -13.131700 -9.990100 -19.860700
H -13.072800 -14.640400 -19.914400
H -12.931400 -12.695300 -21.173800
C -12.775600 -12.666000 -20.236600
H -12.481200 -10.226900 -21.249000
C -12.346200 -14.040900 -19.793600
C -12.316700 -10.170400 -20.314500
H -12.113100 -14.006100 -18.873800
H -11.993200 -7.713900 -21.406100
C -11.789600 -11.549600 -19.965400
C -11.760100 -7.679100 -20.486400
H -11.625100 -11.493100 -19.030900
C -11.330700 -9.054000 -20.043300
H -11.174900 -9.024700 -19.106100
H -11.033500 -7.079600 -20.365500
H -10.974600 -11.729900 -20.419300
Cl -10.936400 -14.654300 -20.721200
H -10.510200 -9.265800 -20.776400
H -18.833200 -12.929900 -16.735000
H -18.650500 -10.688400 -16.367100
N -18.038100 -12.936400 -17.156600
N -17.852900 -10.674300 -16.786000
H -17.710700 -13.706400 -17.488200
H -17.400000 -9.901100 -16.863900
C -17.342500 -11.802600 -17.288200
O -16.224400 -11.799400 -17.892400
