20
Fragment
H -13.420600 -14.780700 -19.683700
Br -13.023900 -20.224800 -19.496400
H -12.960900 -12.584400 -19.751800
H -12.924100 -17.229700 -19.804000
H -12.748000 -14.490000 -21.050900
C -12.607600 -14.540100 -20.112700
H -12.258100 -16.946600 -21.176500
C -12.222100 -13.169200 -19.631500
C -12.106400 -17.022800 -20.242300
H -12.005600 -13.219200 -18.708000
H -11.702400 -19.447800 -21.386300
C -11.601700 -15.644200 -19.852100
C -11.486000 -19.497800 -20.462800
H -11.449900 -15.720400 -18.917900
C -11.100400 -18.126900 -19.981700
H -10.960000 -18.177000 -19.043500
H -10.783900 -15.437300 -20.290400
H -10.747100 -20.082600 -20.342600
Br -10.684200 -12.442200 -20.598000
H -10.287400 -17.886300 -20.410700
8
Fragment
H -10.141000 -14.252600 -16.656500
H -9.976900 -16.492500 -16.321100
N -9.341600 -14.246100 -17.069500
N -9.175900 -16.509900 -16.731400
H -9.005800 -13.474000 -17.387600
H -8.730000 -17.286300 -16.816900
C -8.651400 -15.386200 -17.212500
O -7.534900 -15.387200 -17.807300
28
Fragment
H -13.420600 -14.780700 -19.683700
Br -13.023900 -20.224800 -19.496400
H -12.960900 -12.584400 -19.751800
H -12.924100 -17.229700 -19.804000
H -12.748000 -14.490000 -21.050900
C -12.607600 -14.540100 -20.112700
H -12.258100 -16.946600 -21.176500
C -12.222100 -13.169200 -19.631500
C -12.106400 -17.022800 -20.242300
H -12.005600 -13.219200 -18.708000
H -11.702400 -19.447800 -21.386300
C -11.601700 -15.644200 -19.852100
C -11.486000 -19.497800 -20.462800
H -11.449900 -15.720400 -18.917900
C -11.100400 -18.126900 -19.981700
H -10.960000 -18.177000 -19.043500
H -10.783900 -15.437300 -20.290400
H -10.747100 -20.082600 -20.342600
Br -10.684200 -12.442200 -20.598000
H -10.287400 -17.886300 -20.410700
H -10.141000 -14.252600 -16.656500
H -9.976900 -16.492500 -16.321100
N -9.341600 -14.246100 -17.069500
N -9.175900 -16.509900 -16.731400
H -9.005800 -13.474000 -17.387600
H -8.730000 -17.286300 -16.816900
C -8.651400 -15.386200 -17.212500
O -7.534900 -15.387200 -17.807300
