20
Fragment
H -13.420600 -14.780700 -19.683700
Br -13.023900 -20.224800 -19.496400
H -12.960900 -12.584400 -19.751800
H -12.924100 -17.229700 -19.804000
H -12.748000 -14.490000 -21.050900
C -12.607600 -14.540100 -20.112700
H -12.258100 -16.946600 -21.176500
C -12.222100 -13.169200 -19.631500
C -12.106400 -17.022800 -20.242300
H -12.005600 -13.219200 -18.708000
H -11.702400 -19.447800 -21.386300
C -11.601700 -15.644200 -19.852100
C -11.486000 -19.497800 -20.462800
H -11.449900 -15.720400 -18.917900
C -11.100400 -18.126900 -19.981700
H -10.960000 -18.177000 -19.043500
H -10.783900 -15.437300 -20.290400
H -10.747100 -20.082600 -20.342600
Br -10.684200 -12.442200 -20.598000
H -10.287400 -17.886300 -20.410700
20
Fragment
H -13.420600 -3.891700 -19.683700
Br -13.023900 -9.335800 -19.496400
H -12.960900 -1.695400 -19.751800
H -12.924100 -6.340700 -19.804000
H -12.748000 -3.601000 -21.050900
C -12.607600 -3.651100 -20.112700
H -12.258100 -6.057600 -21.176500
C -12.222100 -2.280200 -19.631500
C -12.106400 -6.133800 -20.242300
H -12.005600 -2.330200 -18.708000
H -11.702400 -8.558800 -21.386300
C -11.601700 -4.755200 -19.852100
C -11.486000 -8.608800 -20.462800
H -11.449900 -4.831400 -18.917900
C -11.100400 -7.237900 -19.981700
H -10.960000 -7.288000 -19.043500
H -10.783900 -4.548300 -20.290400
H -10.747100 -9.193600 -20.342600
Br -10.684200 -1.553200 -20.598000
H -10.287400 -6.997300 -20.410700
40
Fragment
H -13.420600 -14.780700 -19.683700
Br -13.023900 -20.224800 -19.496400
H -12.960900 -12.584400 -19.751800
H -12.924100 -17.229700 -19.804000
H -12.748000 -14.490000 -21.050900
C -12.607600 -14.540100 -20.112700
H -12.258100 -16.946600 -21.176500
C -12.222100 -13.169200 -19.631500
C -12.106400 -17.022800 -20.242300
H -12.005600 -13.219200 -18.708000
H -11.702400 -19.447800 -21.386300
C -11.601700 -15.644200 -19.852100
C -11.486000 -19.497800 -20.462800
H -11.449900 -15.720400 -18.917900
C -11.100400 -18.126900 -19.981700
H -10.960000 -18.177000 -19.043500
H -10.783900 -15.437300 -20.290400
H -10.747100 -20.082600 -20.342600
Br -10.684200 -12.442200 -20.598000
H -10.287400 -17.886300 -20.410700
H -13.420600 -3.891700 -19.683700
Br -13.023900 -9.335800 -19.496400
H -12.960900 -1.695400 -19.751800
H -12.924100 -6.340700 -19.804000
H -12.748000 -3.601000 -21.050900
C -12.607600 -3.651100 -20.112700
H -12.258100 -6.057600 -21.176500
C -12.222100 -2.280200 -19.631500
C -12.106400 -6.133800 -20.242300
H -12.005600 -2.330200 -18.708000
H -11.702400 -8.558800 -21.386300
C -11.601700 -4.755200 -19.852100
C -11.486000 -8.608800 -20.462800
H -11.449900 -4.831400 -18.917900
C -11.100400 -7.237900 -19.981700
H -10.960000 -7.288000 -19.043500
H -10.783900 -4.548300 -20.290400
H -10.747100 -9.193600 -20.342600
Br -10.684200 -1.553200 -20.598000
H -10.287400 -6.997300 -20.410700
