3
Fragment
H -16.747800 -13.982200 -33.829800
O -16.608300 -14.292000 -34.629600
H -15.743400 -14.269700 -34.724900
28
Fragment
N -20.216600 -16.429600 -33.279800
N -19.595800 -17.580200 -32.920900
N -19.438500 -15.639600 -33.930800
C -18.354100 -17.439000 -33.421000
N -18.243900 -16.279700 -34.050400
H -17.522400 -15.809800 -34.174900
H -17.501600 -19.036300 -32.687800
N -17.375800 -18.356300 -33.232000
N -16.183400 -18.211800 -33.902100
H -15.643400 -19.994900 -33.327000
C -15.392400 -19.218000 -33.813500
O -15.289600 -21.615700 -34.981400
N -14.372300 -21.291300 -35.697000
C -14.087500 -19.134500 -34.481200
O -14.013700 -21.935700 -36.678200
O -13.979400 -17.398300 -32.145500
N -13.594100 -17.019400 -33.258300
C -13.578000 -20.093500 -35.364300
O -13.416400 -15.838700 -33.579000
C -13.214100 -18.038400 -34.261100
C -12.354600 -19.998300 -35.979400
H -12.042000 -20.675400 -36.568100
C -12.014200 -17.880000 -34.864100
C -11.595600 -18.874400 -35.708900
H -11.481900 -17.108700 -34.707900
N -10.271600 -18.751300 -36.359900
O -9.963300 -19.634300 -37.192700
O -9.563000 -17.802900 -36.058300
31
Fragment
H -16.747800 -13.982200 -33.829800
O -16.608300 -14.292000 -34.629600
H -15.743400 -14.269700 -34.724900
N -20.216600 -16.429600 -33.279800
N -19.595800 -17.580200 -32.920900
N -19.438500 -15.639600 -33.930800
C -18.354100 -17.439000 -33.421000
N -18.243900 -16.279700 -34.050400
H -17.522400 -15.809800 -34.174900
H -17.501600 -19.036300 -32.687800
N -17.375800 -18.356300 -33.232000
N -16.183400 -18.211800 -33.902100
H -15.643400 -19.994900 -33.327000
C -15.392400 -19.218000 -33.813500
O -15.289600 -21.615700 -34.981400
N -14.372300 -21.291300 -35.697000
C -14.087500 -19.134500 -34.481200
O -14.013700 -21.935700 -36.678200
O -13.979400 -17.398300 -32.145500
N -13.594100 -17.019400 -33.258300
C -13.578000 -20.093500 -35.364300
O -13.416400 -15.838700 -33.579000
C -13.214100 -18.038400 -34.261100
C -12.354600 -19.998300 -35.979400
H -12.042000 -20.675400 -36.568100
C -12.014200 -17.880000 -34.864100
C -11.595600 -18.874400 -35.708900
H -11.481900 -17.108700 -34.707900
N -10.271600 -18.751300 -36.359900
O -9.963300 -19.634300 -37.192700
O -9.563000 -17.802900 -36.058300
