3
Fragment
H -16.747800 -13.982200 -33.829800
O -16.608300 -14.292000 -34.629600
H -15.743400 -14.269700 -34.724900
28
Fragment
N -21.824400 -24.790500 -27.947800
H -21.654200 -22.874400 -28.191900
O -21.625300 -18.768400 -27.596000
N -21.184300 -23.595900 -28.067400
N -21.034400 -25.568600 -27.296800
N -20.444600 -18.946100 -27.275300
H -20.355300 -16.833900 -28.724900
O -20.065700 -19.331400 -26.162500
C -20.025000 -23.706100 -27.438000
N -19.883800 -24.947800 -26.937900
O -19.661100 -14.915000 -30.075300
C -19.584000 -17.366200 -28.881100
C -19.425600 -18.566100 -28.278100
N -19.252200 -21.535400 -27.919100
N -19.107700 -22.727800 -27.249000
N -18.712700 -15.623600 -30.376900
C -18.589600 -16.947600 -29.725900
H -18.427700 -22.853600 -26.704800
C -18.329500 -19.439500 -28.498200
C -18.246000 -20.744400 -27.830500
O -17.829700 -15.315300 -31.209700
H -17.469100 -20.995400 -27.344000
C -17.465700 -17.706600 -29.996400
C -17.370500 -18.930000 -29.381300
H -16.788600 -17.394000 -30.585100
N -16.172700 -19.724300 -29.714000
O -15.848300 -20.641600 -28.998400
O -15.528300 -19.365700 -30.695200
31
Fragment
H -16.747800 -13.982200 -33.829800
O -16.608300 -14.292000 -34.629600
H -15.743400 -14.269700 -34.724900
N -21.824400 -24.790500 -27.947800
H -21.654200 -22.874400 -28.191900
O -21.625300 -18.768400 -27.596000
N -21.184300 -23.595900 -28.067400
N -21.034400 -25.568600 -27.296800
N -20.444600 -18.946100 -27.275300
H -20.355300 -16.833900 -28.724900
O -20.065700 -19.331400 -26.162500
C -20.025000 -23.706100 -27.438000
N -19.883800 -24.947800 -26.937900
O -19.661100 -14.915000 -30.075300
C -19.584000 -17.366200 -28.881100
C -19.425600 -18.566100 -28.278100
N -19.252200 -21.535400 -27.919100
N -19.107700 -22.727800 -27.249000
N -18.712700 -15.623600 -30.376900
C -18.589600 -16.947600 -29.725900
H -18.427700 -22.853600 -26.704800
C -18.329500 -19.439500 -28.498200
C -18.246000 -20.744400 -27.830500
O -17.829700 -15.315300 -31.209700
H -17.469100 -20.995400 -27.344000
C -17.465700 -17.706600 -29.996400
C -17.370500 -18.930000 -29.381300
H -16.788600 -17.394000 -30.585100
N -16.172700 -19.724300 -29.714000
O -15.848300 -20.641600 -28.998400
O -15.528300 -19.365700 -30.695200
