3
Fragment
H -16.747800 -13.982200 -33.829800
O -16.608300 -14.292000 -34.629600
H -15.743400 -14.269700 -34.724900
28
Fragment
N -20.216600 -5.725600 -33.279800
N -19.595800 -6.876200 -32.920900
N -19.438500 -4.935600 -33.930800
C -18.354100 -6.735000 -33.421000
N -18.243900 -5.575700 -34.050400
H -17.522400 -5.105800 -34.174900
H -17.501600 -8.332300 -32.687800
N -17.375800 -7.652300 -33.232000
N -16.183400 -7.507800 -33.902100
H -15.643400 -9.290900 -33.327000
C -15.392400 -8.514000 -33.813500
O -15.289600 -10.911700 -34.981400
N -14.372300 -10.587300 -35.697000
C -14.087500 -8.430500 -34.481200
O -14.013700 -11.231700 -36.678200
O -13.979400 -6.694300 -32.145500
N -13.594100 -6.315400 -33.258300
C -13.578000 -9.389500 -35.364300
O -13.416400 -5.134700 -33.579000
C -13.214100 -7.334400 -34.261100
C -12.354600 -9.294300 -35.979400
H -12.042000 -9.971400 -36.568100
C -12.014200 -7.176000 -34.864100
C -11.595600 -8.170400 -35.708900
H -11.481900 -6.404700 -34.707900
N -10.271600 -8.047300 -36.359900
O -9.963300 -8.930300 -37.192700
O -9.563000 -7.098900 -36.058300
31
Fragment
H -16.747800 -13.982200 -33.829800
O -16.608300 -14.292000 -34.629600
H -15.743400 -14.269700 -34.724900
N -20.216600 -5.725600 -33.279800
N -19.595800 -6.876200 -32.920900
N -19.438500 -4.935600 -33.930800
C -18.354100 -6.735000 -33.421000
N -18.243900 -5.575700 -34.050400
H -17.522400 -5.105800 -34.174900
H -17.501600 -8.332300 -32.687800
N -17.375800 -7.652300 -33.232000
N -16.183400 -7.507800 -33.902100
H -15.643400 -9.290900 -33.327000
C -15.392400 -8.514000 -33.813500
O -15.289600 -10.911700 -34.981400
N -14.372300 -10.587300 -35.697000
C -14.087500 -8.430500 -34.481200
O -14.013700 -11.231700 -36.678200
O -13.979400 -6.694300 -32.145500
N -13.594100 -6.315400 -33.258300
C -13.578000 -9.389500 -35.364300
O -13.416400 -5.134700 -33.579000
C -13.214100 -7.334400 -34.261100
C -12.354600 -9.294300 -35.979400
H -12.042000 -9.971400 -36.568100
C -12.014200 -7.176000 -34.864100
C -11.595600 -8.170400 -35.708900
H -11.481900 -6.404700 -34.707900
N -10.271600 -8.047300 -36.359900
O -9.963300 -8.930300 -37.192700
O -9.563000 -7.098900 -36.058300
