3
Fragment
H -16.747800 -13.982200 -33.829800
O -16.608300 -14.292000 -34.629600
H -15.743400 -14.269700 -34.724900
28
Fragment
O -21.935700 -14.013700 -35.117800
O -21.615700 -15.289600 -36.814600
N -21.291300 -14.372300 -36.099000
H -20.675400 -12.042000 -35.227900
C -20.093500 -13.578000 -36.431700
C -19.998300 -12.354600 -35.816600
H -19.994900 -15.643400 -38.469000
O -19.634300 -9.963300 -34.603300
C -19.218000 -15.392400 -37.982500
C -19.134500 -14.087500 -37.314800
H -19.036300 -17.501600 -39.108200
C -18.874400 -11.595600 -36.087100
N -18.751300 -10.271600 -35.436100
N -18.356300 -17.375800 -38.564000
N -18.211800 -16.183400 -37.893900
C -18.038400 -13.214100 -37.534900
C -17.880000 -12.014200 -36.931900
O -17.802900 -9.563000 -35.737700
N -17.580200 -19.595800 -38.875100
C -17.439000 -18.354100 -38.375000
O -17.398300 -13.979400 -39.650500
H -17.108700 -11.481900 -37.088100
N -17.019400 -13.594100 -38.537700
N -16.429600 -20.216600 -38.516200
N -16.279700 -18.243900 -37.745600
O -15.838700 -13.416400 -38.217000
H -15.809800 -17.522400 -37.621100
N -15.639600 -19.438500 -37.865200
31
Fragment
H -16.747800 -13.982200 -33.829800
O -16.608300 -14.292000 -34.629600
H -15.743400 -14.269700 -34.724900
O -21.935700 -14.013700 -35.117800
O -21.615700 -15.289600 -36.814600
N -21.291300 -14.372300 -36.099000
H -20.675400 -12.042000 -35.227900
C -20.093500 -13.578000 -36.431700
C -19.998300 -12.354600 -35.816600
H -19.994900 -15.643400 -38.469000
O -19.634300 -9.963300 -34.603300
C -19.218000 -15.392400 -37.982500
C -19.134500 -14.087500 -37.314800
H -19.036300 -17.501600 -39.108200
C -18.874400 -11.595600 -36.087100
N -18.751300 -10.271600 -35.436100
N -18.356300 -17.375800 -38.564000
N -18.211800 -16.183400 -37.893900
C -18.038400 -13.214100 -37.534900
C -17.880000 -12.014200 -36.931900
O -17.802900 -9.563000 -35.737700
N -17.580200 -19.595800 -38.875100
C -17.439000 -18.354100 -38.375000
O -17.398300 -13.979400 -39.650500
H -17.108700 -11.481900 -37.088100
N -17.019400 -13.594100 -38.537700
N -16.429600 -20.216600 -38.516200
N -16.279700 -18.243900 -37.745600
O -15.838700 -13.416400 -38.217000
H -15.809800 -17.522400 -37.621100
N -15.639600 -19.438500 -37.865200
