3
Fragment
H -16.747800 -13.982200 -33.829800
O -16.608300 -14.292000 -34.629600
H -15.743400 -14.269700 -34.724900
3
Fragment
O -14.127100 -14.127100 -35.898000
H -14.116400 -13.423100 -36.426200
H -13.423100 -14.116400 -35.369800
6
Fragment
H -16.747800 -13.982200 -33.829800
O -16.608300 -14.292000 -34.629600
H -15.743400 -14.269700 -34.724900
O -14.127100 -14.127100 -35.898000
H -14.116400 -13.423100 -36.426200
H -13.423100 -14.116400 -35.369800
