8
Fragment
O -7.568300 -10.838100 -12.526600
H -6.999500 -10.831100 -10.389900
C -6.676800 -11.464100 -11.992200
O -6.441100 -11.341700 -10.685200
H -6.277900 -13.023900 -13.227800
C -5.760000 -12.413400 -12.662700
H -5.272000 -12.929100 -11.987100
H -5.123000 -11.916100 -13.216700
11
Fragment
H -4.612500 -10.549800 -17.895100
N -4.183900 -10.379700 -15.928600
C -4.026400 -10.765900 -17.178700
N -3.142700 -10.914800 -15.251300
O -3.015000 -12.064500 -19.508500
H -3.013800 -10.821400 -14.389300
C -2.877400 -11.534900 -17.292700
N -2.362800 -12.158300 -18.470400
C -2.333400 -11.619700 -16.032400
H -1.545600 -12.084900 -15.775500
O -1.293400 -12.753900 -18.383600
19
Fragment
O -7.568300 -10.838100 -12.526600
H -6.999500 -10.831100 -10.389900
C -6.676800 -11.464100 -11.992200
O -6.441100 -11.341700 -10.685200
H -6.277900 -13.023900 -13.227800
C -5.760000 -12.413400 -12.662700
H -5.272000 -12.929100 -11.987100
H -5.123000 -11.916100 -13.216700
H -4.612500 -10.549800 -17.895100
N -4.183900 -10.379700 -15.928600
C -4.026400 -10.765900 -17.178700
N -3.142700 -10.914800 -15.251300
O -3.015000 -12.064500 -19.508500
H -3.013800 -10.821400 -14.389300
C -2.877400 -11.534900 -17.292700
N -2.362800 -12.158300 -18.470400
C -2.333400 -11.619700 -16.032400
H -1.545600 -12.084900 -15.775500
O -1.293400 -12.753900 -18.383600
