8
Fragment
O -7.568300 -10.838100 -12.526600
H -6.999500 -10.831100 -10.389900
C -6.676800 -11.464100 -11.992200
O -6.441100 -11.341700 -10.685200
H -6.277900 -13.023900 -13.227800
C -5.760000 -12.413400 -12.662700
H -5.272000 -12.929100 -11.987100
H -5.123000 -11.916100 -13.216700
11
Fragment
O -4.947300 -13.847700 -15.653800
H -4.695100 -14.516700 -18.261900
C -3.907300 -14.981900 -18.004900
N -3.877900 -14.443300 -15.567000
C -3.363300 -15.066600 -16.744700
H -3.226900 -15.780200 -19.648100
O -3.225700 -14.537100 -14.528800
N -3.098000 -15.686800 -18.786100
C -2.214300 -15.835700 -16.858700
N -2.056800 -16.221900 -18.108700
H -1.628200 -16.051700 -16.142200
19
Fragment
O -7.568300 -10.838100 -12.526600
H -6.999500 -10.831100 -10.389900
C -6.676800 -11.464100 -11.992200
O -6.441100 -11.341700 -10.685200
H -6.277900 -13.023900 -13.227800
C -5.760000 -12.413400 -12.662700
H -5.272000 -12.929100 -11.987100
H -5.123000 -11.916100 -13.216700
O -4.947300 -13.847700 -15.653800
H -4.695100 -14.516700 -18.261900
C -3.907300 -14.981900 -18.004900
N -3.877900 -14.443300 -15.567000
C -3.363300 -15.066600 -16.744700
H -3.226900 -15.780200 -19.648100
O -3.225700 -14.537100 -14.528800
N -3.098000 -15.686800 -18.786100
C -2.214300 -15.835700 -16.858700
N -2.056800 -16.221900 -18.108700
H -1.628200 -16.051700 -16.142200
