8
Fragment
O -7.568300 -10.838100 -12.526600
H -6.999500 -10.831100 -10.389900
C -6.676800 -11.464100 -11.992200
O -6.441100 -11.341700 -10.685200
H -6.277900 -13.023900 -13.227800
C -5.760000 -12.413400 -12.662700
H -5.272000 -12.929100 -11.987100
H -5.123000 -11.916100 -13.216700
8
Fragment
O -2.451700 -10.838100 -12.526600
H -1.882900 -10.831100 -10.389900
C -1.560200 -11.464100 -11.992200
O -1.324500 -11.341700 -10.685200
H -1.161300 -13.023900 -13.227800
C -0.643400 -12.413400 -12.662700
H -0.155400 -12.929100 -11.987100
H -0.006400 -11.916100 -13.216700
16
Fragment
O -7.568300 -10.838100 -12.526600
H -6.999500 -10.831100 -10.389900
C -6.676800 -11.464100 -11.992200
O -6.441100 -11.341700 -10.685200
H -6.277900 -13.023900 -13.227800
C -5.760000 -12.413400 -12.662700
H -5.272000 -12.929100 -11.987100
H -5.123000 -11.916100 -13.216700
O -2.451700 -10.838100 -12.526600
H -1.882900 -10.831100 -10.389900
C -1.560200 -11.464100 -11.992200
O -1.324500 -11.341700 -10.685200
H -1.161300 -13.023900 -13.227800
C -0.643400 -12.413400 -12.662700
H -0.155400 -12.929100 -11.987100
H -0.006400 -11.916100 -13.216700
