24
Fragment
H -6.499500 -6.601200 -23.668600
O -5.838900 -6.256300 -23.186900
C -4.664000 -6.514300 -23.735300
O -4.563700 -7.222700 -24.721900
H -4.544000 -4.881900 -21.766200
H -4.177800 -1.559200 -18.702600
H -3.901200 -2.708100 -17.672600
H -3.895400 -3.423400 -20.021600
C -3.670600 -5.052800 -22.036400
H -3.624900 -1.216800 -17.276100
C -3.601700 -1.854500 -17.993600
C -3.534400 -5.886400 -23.055800
C -2.996100 -3.524500 -20.234400
H -2.675700 -6.082000 -23.354400
C -2.629000 -4.370000 -21.284900
O -2.272300 -1.971200 -18.480800
C -2.045800 -2.837600 -19.508100
C -1.278200 -4.504000 -21.584400
H -1.013300 -5.062300 -22.279400
C -0.695800 -2.990900 -19.824500
C -0.330500 -3.818800 -20.862900
H -0.141100 -1.883000 -18.474900
O 0.264700 -2.327200 -19.125600
H 0.568700 -3.915900 -21.078400
24
Fragment
H -1.512500 -3.508200 -25.020400
O -1.208500 -5.096800 -26.973200
H -0.802700 -5.541000 -27.623900
C -0.613300 -3.605200 -25.235900
C -0.248000 -4.433100 -26.274300
H 0.069500 -2.361800 -23.819400
C 0.334400 -2.920100 -24.514400
C 1.102000 -4.586500 -26.590700
O 1.328400 -5.452800 -27.617900
C 1.685200 -3.054100 -24.813900
H 1.731900 -1.342000 -22.744400
C 2.052200 -3.899500 -25.864300
C 2.590600 -1.537600 -23.042900
C 2.657900 -5.569500 -28.105200
H 2.681100 -6.207300 -28.822600
C 2.726800 -2.371200 -24.062300
H 2.951600 -4.000600 -26.077200
H 2.957400 -4.715900 -28.426200
H 3.234000 -5.864900 -27.396200
H 3.600200 -2.542200 -24.332600
O 3.619900 -0.201300 -21.376900
C 3.720200 -0.909700 -22.363400
O 4.895100 -1.167700 -22.911900
H 5.555700 -0.822800 -22.430100
48
Fragment
H -6.499500 -6.601200 -23.668600
O -5.838900 -6.256300 -23.186900
C -4.664000 -6.514300 -23.735300
O -4.563700 -7.222700 -24.721900
H -4.544000 -4.881900 -21.766200
H -4.177800 -1.559200 -18.702600
H -3.901200 -2.708100 -17.672600
H -3.895400 -3.423400 -20.021600
C -3.670600 -5.052800 -22.036400
H -3.624900 -1.216800 -17.276100
C -3.601700 -1.854500 -17.993600
C -3.534400 -5.886400 -23.055800
C -2.996100 -3.524500 -20.234400
H -2.675700 -6.082000 -23.354400
C -2.629000 -4.370000 -21.284900
O -2.272300 -1.971200 -18.480800
C -2.045800 -2.837600 -19.508100
C -1.278200 -4.504000 -21.584400
H -1.013300 -5.062300 -22.279400
C -0.695800 -2.990900 -19.824500
C -0.330500 -3.818800 -20.862900
H -0.141100 -1.883000 -18.474900
O 0.264700 -2.327200 -19.125600
H 0.568700 -3.915900 -21.078400
H -1.512500 -3.508200 -25.020400
O -1.208500 -5.096800 -26.973200
H -0.802700 -5.541000 -27.623900
C -0.613300 -3.605200 -25.235900
C -0.248000 -4.433100 -26.274300
H 0.069500 -2.361800 -23.819400
C 0.334400 -2.920100 -24.514400
C 1.102000 -4.586500 -26.590700
O 1.328400 -5.452800 -27.617900
C 1.685200 -3.054100 -24.813900
H 1.731900 -1.342000 -22.744400
C 2.052200 -3.899500 -25.864300
C 2.590600 -1.537600 -23.042900
C 2.657900 -5.569500 -28.105200
H 2.681100 -6.207300 -28.822600
C 2.726800 -2.371200 -24.062300
H 2.951600 -4.000600 -26.077200
H 2.957400 -4.715900 -28.426200
H 3.234000 -5.864900 -27.396200
H 3.600200 -2.542200 -24.332600
O 3.619900 -0.201300 -21.376900
C 3.720200 -0.909700 -22.363400
O 4.895100 -1.167700 -22.911900
H 5.555700 -0.822800 -22.430100
