24
Fragment
H -6.499500 -6.601200 -23.668600
O -5.838900 -6.256300 -23.186900
C -4.664000 -6.514300 -23.735300
O -4.563700 -7.222700 -24.721900
H -4.544000 -4.881900 -21.766200
H -4.177800 -1.559200 -18.702600
H -3.901200 -2.708100 -17.672600
H -3.895400 -3.423400 -20.021600
C -3.670600 -5.052800 -22.036400
H -3.624900 -1.216800 -17.276100
C -3.601700 -1.854500 -17.993600
C -3.534400 -5.886400 -23.055800
C -2.996100 -3.524500 -20.234400
H -2.675700 -6.082000 -23.354400
C -2.629000 -4.370000 -21.284900
O -2.272300 -1.971200 -18.480800
C -2.045800 -2.837600 -19.508100
C -1.278200 -4.504000 -21.584400
H -1.013300 -5.062300 -22.279400
C -0.695800 -2.990900 -19.824500
C -0.330500 -3.818800 -20.862900
H -0.141100 -1.883000 -18.474900
O 0.264700 -2.327200 -19.125600
H 0.568700 -3.915900 -21.078400
24
Fragment
H -13.570300 -6.601200 -23.668600
O -12.909700 -6.256300 -23.186900
C -11.734800 -6.514300 -23.735300
O -11.634500 -7.222700 -24.721900
H -11.614800 -4.881900 -21.766200
H -11.248600 -1.559200 -18.702600
H -10.972000 -2.708100 -17.672600
H -10.966200 -3.423400 -20.021600
C -10.741400 -5.052800 -22.036400
H -10.695700 -1.216800 -17.276100
C -10.672500 -1.854500 -17.993600
C -10.605200 -5.886400 -23.055800
C -10.066900 -3.524500 -20.234400
H -9.746500 -6.082000 -23.354400
C -9.699800 -4.370000 -21.284900
O -9.343100 -1.971200 -18.480800
C -9.116600 -2.837600 -19.508100
C -8.349000 -4.504000 -21.584400
H -8.084100 -5.062300 -22.279400
C -7.766600 -2.990900 -19.824500
C -7.401300 -3.818800 -20.862900
H -7.211900 -1.883000 -18.474900
O -6.806100 -2.327200 -19.125600
H -6.502100 -3.915900 -21.078400
48
Fragment
H -6.499500 -6.601200 -23.668600
O -5.838900 -6.256300 -23.186900
C -4.664000 -6.514300 -23.735300
O -4.563700 -7.222700 -24.721900
H -4.544000 -4.881900 -21.766200
H -4.177800 -1.559200 -18.702600
H -3.901200 -2.708100 -17.672600
H -3.895400 -3.423400 -20.021600
C -3.670600 -5.052800 -22.036400
H -3.624900 -1.216800 -17.276100
C -3.601700 -1.854500 -17.993600
C -3.534400 -5.886400 -23.055800
C -2.996100 -3.524500 -20.234400
H -2.675700 -6.082000 -23.354400
C -2.629000 -4.370000 -21.284900
O -2.272300 -1.971200 -18.480800
C -2.045800 -2.837600 -19.508100
C -1.278200 -4.504000 -21.584400
H -1.013300 -5.062300 -22.279400
C -0.695800 -2.990900 -19.824500
C -0.330500 -3.818800 -20.862900
H -0.141100 -1.883000 -18.474900
O 0.264700 -2.327200 -19.125600
H 0.568700 -3.915900 -21.078400
H -13.570300 -6.601200 -23.668600
O -12.909700 -6.256300 -23.186900
C -11.734800 -6.514300 -23.735300
O -11.634500 -7.222700 -24.721900
H -11.614800 -4.881900 -21.766200
H -11.248600 -1.559200 -18.702600
H -10.972000 -2.708100 -17.672600
H -10.966200 -3.423400 -20.021600
C -10.741400 -5.052800 -22.036400
H -10.695700 -1.216800 -17.276100
C -10.672500 -1.854500 -17.993600
C -10.605200 -5.886400 -23.055800
C -10.066900 -3.524500 -20.234400
H -9.746500 -6.082000 -23.354400
C -9.699800 -4.370000 -21.284900
O -9.343100 -1.971200 -18.480800
C -9.116600 -2.837600 -19.508100
C -8.349000 -4.504000 -21.584400
H -8.084100 -5.062300 -22.279400
C -7.766600 -2.990900 -19.824500
C -7.401300 -3.818800 -20.862900
H -7.211900 -1.883000 -18.474900
O -6.806100 -2.327200 -19.125600
H -6.502100 -3.915900 -21.078400
