24
Fragment
H -6.499500 -6.601200 -23.668600
O -5.838900 -6.256300 -23.186900
C -4.664000 -6.514300 -23.735300
O -4.563700 -7.222700 -24.721900
H -4.544000 -4.881900 -21.766200
H -4.177800 -1.559200 -18.702600
H -3.901200 -2.708100 -17.672600
H -3.895400 -3.423400 -20.021600
C -3.670600 -5.052800 -22.036400
H -3.624900 -1.216800 -17.276100
C -3.601700 -1.854500 -17.993600
C -3.534400 -5.886400 -23.055800
C -2.996100 -3.524500 -20.234400
H -2.675700 -6.082000 -23.354400
C -2.629000 -4.370000 -21.284900
O -2.272300 -1.971200 -18.480800
C -2.045800 -2.837600 -19.508100
C -1.278200 -4.504000 -21.584400
H -1.013300 -5.062300 -22.279400
C -0.695800 -2.990900 -19.824500
C -0.330500 -3.818800 -20.862900
H -0.141100 -1.883000 -18.474900
O 0.264700 -2.327200 -19.125600
H 0.568700 -3.915900 -21.078400
23
Fragment
O -3.129700 -9.522600 -27.631500
H -3.062300 -7.850000 -25.583300
N -2.267200 -8.176800 -25.957900
C -2.201500 -9.095500 -26.997900
C -1.054400 -7.875700 -25.446400
N -0.860300 -9.395200 -27.143100
O -0.858400 -7.140800 -24.495800
O -0.732900 -13.779600 -31.576000
N -0.460800 -10.275200 -28.099700
C -0.021500 -8.613800 -26.244200
O 0.413700 -12.099500 -29.942500
N 0.487700 -13.760800 -31.595600
H 0.523400 -9.184600 -25.679800
H 0.552900 -8.004100 -26.733400
C 0.802500 -10.438600 -28.241000
C 1.182000 -12.869800 -30.741700
O 1.190200 -14.479700 -32.320800
C 1.310300 -11.358600 -29.222000
H 1.393700 -9.959500 -27.706100
C 2.493900 -12.655700 -30.577000
C 2.582000 -11.669000 -29.580500
H 3.195500 -13.070400 -31.025400
H 3.361300 -11.299600 -29.233200
47
Fragment
H -6.499500 -6.601200 -23.668600
O -5.838900 -6.256300 -23.186900
C -4.664000 -6.514300 -23.735300
O -4.563700 -7.222700 -24.721900
H -4.544000 -4.881900 -21.766200
H -4.177800 -1.559200 -18.702600
H -3.901200 -2.708100 -17.672600
H -3.895400 -3.423400 -20.021600
C -3.670600 -5.052800 -22.036400
H -3.624900 -1.216800 -17.276100
C -3.601700 -1.854500 -17.993600
C -3.534400 -5.886400 -23.055800
C -2.996100 -3.524500 -20.234400
H -2.675700 -6.082000 -23.354400
C -2.629000 -4.370000 -21.284900
O -2.272300 -1.971200 -18.480800
C -2.045800 -2.837600 -19.508100
C -1.278200 -4.504000 -21.584400
H -1.013300 -5.062300 -22.279400
C -0.695800 -2.990900 -19.824500
C -0.330500 -3.818800 -20.862900
H -0.141100 -1.883000 -18.474900
O 0.264700 -2.327200 -19.125600
H 0.568700 -3.915900 -21.078400
O -3.129700 -9.522600 -27.631500
H -3.062300 -7.850000 -25.583300
N -2.267200 -8.176800 -25.957900
C -2.201500 -9.095500 -26.997900
C -1.054400 -7.875700 -25.446400
N -0.860300 -9.395200 -27.143100
O -0.858400 -7.140800 -24.495800
O -0.732900 -13.779600 -31.576000
N -0.460800 -10.275200 -28.099700
C -0.021500 -8.613800 -26.244200
O 0.413700 -12.099500 -29.942500
N 0.487700 -13.760800 -31.595600
H 0.523400 -9.184600 -25.679800
H 0.552900 -8.004100 -26.733400
C 0.802500 -10.438600 -28.241000
C 1.182000 -12.869800 -30.741700
O 1.190200 -14.479700 -32.320800
C 1.310300 -11.358600 -29.222000
H 1.393700 -9.959500 -27.706100
C 2.493900 -12.655700 -30.577000
C 2.582000 -11.669000 -29.580500
H 3.195500 -13.070400 -31.025400
H 3.361300 -11.299600 -29.233200
