32
Fragment
H -13.492200 -15.885400 -23.085100
O -13.365300 -13.908100 -22.940400
H -13.031300 -13.216200 -21.124300
C -12.804700 -15.192200 -23.167800
O -12.754100 -11.372500 -23.544100
C -12.590200 -13.194200 -21.973800
C -12.475300 -11.744900 -22.430800
N -12.340900 -15.249800 -24.561100
H -12.336300 -20.126400 -24.724900
O -12.251000 -16.010000 -21.031100
N -12.228300 -17.671200 -24.809500
H -12.139900 -13.278000 -25.119300
C -12.096100 -16.398500 -25.267500
N -12.049300 -19.876700 -25.486700
C -12.048500 -14.197200 -25.412000
H -12.041700 -10.084200 -21.756600
O -12.028100 -10.945500 -21.475000
C -11.940500 -18.567900 -25.746100
H -11.913300 -20.492900 -26.099700
H -11.701800 -15.948200 -20.433000
C -11.678300 -15.982400 -26.514300
C -11.675300 -15.380700 -22.167300
N -11.651200 -14.599100 -26.592600
N -11.514400 -18.242100 -27.008500
H -11.324000 -18.859400 -27.587800
C -11.308200 -16.948000 -27.469600
C -11.249300 -13.931400 -21.890300
H -10.931200 -15.927300 -22.537400
O -10.820200 -16.770700 -28.605500
O -10.662300 -13.743200 -20.626000
H -10.651700 -13.623600 -22.644400
H -9.798100 -13.948200 -20.662900
32
Fragment
H -12.865100 -19.184000 -19.254600
H -12.011500 -18.859400 -17.273100
O -12.000900 -18.979000 -19.291500
O -11.843000 -22.006500 -11.312000
H -11.732000 -21.163100 -17.380100
C -11.413900 -19.167200 -18.027200
C -11.355000 -22.183800 -12.447900
H -11.339200 -24.095200 -12.329700
N -11.148800 -23.477900 -12.909000
N -11.012000 -19.834900 -13.324900
C -10.987900 -20.616500 -17.750200
C -10.984900 -21.218200 -13.403200
H -10.961400 -21.184000 -19.484500
H -10.749900 -25.728700 -13.817800
C -10.722700 -23.803700 -14.171400
O -10.635100 -16.181300 -18.442500
H -10.621500 -15.320000 -18.160900
C -10.614700 -19.433000 -14.505500
N -10.613900 -25.112500 -14.430800
C -10.567100 -21.634300 -14.650000
H -10.523300 -18.513800 -14.798200
N -10.434900 -22.907000 -15.108000
O -10.412200 -21.245800 -18.886400
H -10.326900 -25.362200 -15.192600
N -10.322300 -20.485600 -15.356400
C -10.187900 -16.980700 -17.486700
C -10.073000 -18.430000 -17.943700
O -9.909100 -16.608300 -16.373400
C -9.858500 -20.428000 -16.749700
H -9.631900 -18.452000 -18.793200
O -9.297900 -19.143900 -16.977100
H -9.171000 -21.121200 -16.832400
64
Fragment
H -13.492200 -15.885400 -23.085100
O -13.365300 -13.908100 -22.940400
H -13.031300 -13.216200 -21.124300
C -12.804700 -15.192200 -23.167800
O -12.754100 -11.372500 -23.544100
C -12.590200 -13.194200 -21.973800
C -12.475300 -11.744900 -22.430800
N -12.340900 -15.249800 -24.561100
H -12.336300 -20.126400 -24.724900
O -12.251000 -16.010000 -21.031100
N -12.228300 -17.671200 -24.809500
H -12.139900 -13.278000 -25.119300
C -12.096100 -16.398500 -25.267500
N -12.049300 -19.876700 -25.486700
C -12.048500 -14.197200 -25.412000
H -12.041700 -10.084200 -21.756600
O -12.028100 -10.945500 -21.475000
C -11.940500 -18.567900 -25.746100
H -11.913300 -20.492900 -26.099700
H -11.701800 -15.948200 -20.433000
C -11.678300 -15.982400 -26.514300
C -11.675300 -15.380700 -22.167300
N -11.651200 -14.599100 -26.592600
N -11.514400 -18.242100 -27.008500
H -11.324000 -18.859400 -27.587800
C -11.308200 -16.948000 -27.469600
C -11.249300 -13.931400 -21.890300
H -10.931200 -15.927300 -22.537400
O -10.820200 -16.770700 -28.605500
O -10.662300 -13.743200 -20.626000
H -10.651700 -13.623600 -22.644400
H -9.798100 -13.948200 -20.662900
H -12.865100 -19.184000 -19.254600
H -12.011500 -18.859400 -17.273100
O -12.000900 -18.979000 -19.291500
O -11.843000 -22.006500 -11.312000
H -11.732000 -21.163100 -17.380100
C -11.413900 -19.167200 -18.027200
C -11.355000 -22.183800 -12.447900
H -11.339200 -24.095200 -12.329700
N -11.148800 -23.477900 -12.909000
N -11.012000 -19.834900 -13.324900
C -10.987900 -20.616500 -17.750200
C -10.984900 -21.218200 -13.403200
H -10.961400 -21.184000 -19.484500
H -10.749900 -25.728700 -13.817800
C -10.722700 -23.803700 -14.171400
O -10.635100 -16.181300 -18.442500
H -10.621500 -15.320000 -18.160900
C -10.614700 -19.433000 -14.505500
N -10.613900 -25.112500 -14.430800
C -10.567100 -21.634300 -14.650000
H -10.523300 -18.513800 -14.798200
N -10.434900 -22.907000 -15.108000
O -10.412200 -21.245800 -18.886400
H -10.326900 -25.362200 -15.192600
N -10.322300 -20.485600 -15.356400
C -10.187900 -16.980700 -17.486700
C -10.073000 -18.430000 -17.943700
O -9.909100 -16.608300 -16.373400
C -9.858500 -20.428000 -16.749700
H -9.631900 -18.452000 -18.793200
O -9.297900 -19.143900 -16.977100
H -9.171000 -21.121200 -16.832400
