32
Fragment
H -13.492200 -15.885400 -23.085100
O -13.365300 -13.908100 -22.940400
H -13.031300 -13.216200 -21.124300
C -12.804700 -15.192200 -23.167800
O -12.754100 -11.372500 -23.544100
C -12.590200 -13.194200 -21.973800
C -12.475300 -11.744900 -22.430800
N -12.340900 -15.249800 -24.561100
H -12.336300 -20.126400 -24.724900
O -12.251000 -16.010000 -21.031100
N -12.228300 -17.671200 -24.809500
H -12.139900 -13.278000 -25.119300
C -12.096100 -16.398500 -25.267500
N -12.049300 -19.876700 -25.486700
C -12.048500 -14.197200 -25.412000
H -12.041700 -10.084200 -21.756600
O -12.028100 -10.945500 -21.475000
C -11.940500 -18.567900 -25.746100
H -11.913300 -20.492900 -26.099700
H -11.701800 -15.948200 -20.433000
C -11.678300 -15.982400 -26.514300
C -11.675300 -15.380700 -22.167300
N -11.651200 -14.599100 -26.592600
N -11.514400 -18.242100 -27.008500
H -11.324000 -18.859400 -27.587800
C -11.308200 -16.948000 -27.469600
C -11.249300 -13.931400 -21.890300
H -10.931200 -15.927300 -22.537400
O -10.820200 -16.770700 -28.605500
O -10.662300 -13.743200 -20.626000
H -10.651700 -13.623600 -22.644400
H -9.798100 -13.948200 -20.662900
32
Fragment
H -9.087900 -17.466600 -28.646400
H -8.234300 -17.791200 -30.627900
O -8.223700 -17.671600 -28.609500
O -8.065800 -14.644100 -36.589000
H -7.954800 -15.487500 -30.520900
C -7.636700 -17.483400 -29.873800
C -7.577800 -14.466800 -35.453100
H -7.562000 -12.555400 -35.571300
N -7.371600 -13.172700 -34.992000
N -7.234800 -16.815700 -34.576100
C -7.210700 -16.034100 -30.150800
C -7.207700 -15.432400 -34.497800
H -7.184200 -15.466600 -28.416500
H -6.972700 -10.921900 -34.083200
C -6.945500 -12.846900 -33.729600
O -6.857900 -20.469300 -29.458500
H -6.844300 -21.330600 -29.740100
C -6.837500 -17.217600 -33.395500
N -6.836700 -11.538100 -33.470200
C -6.789900 -15.016300 -33.251000
H -6.746100 -18.136800 -33.102800
N -6.657700 -13.743600 -32.793000
O -6.635000 -15.404800 -29.014600
H -6.549700 -11.288400 -32.708400
N -6.545100 -16.165000 -32.544600
C -6.410700 -19.669900 -30.414300
C -6.295800 -18.220600 -29.957300
O -6.131900 -20.042300 -31.527600
C -6.081300 -16.222600 -31.151300
H -5.854700 -18.198600 -29.107800
O -5.520700 -17.506700 -30.923900
H -5.393800 -15.529400 -31.068600
64
Fragment
H -13.492200 -15.885400 -23.085100
O -13.365300 -13.908100 -22.940400
H -13.031300 -13.216200 -21.124300
C -12.804700 -15.192200 -23.167800
O -12.754100 -11.372500 -23.544100
C -12.590200 -13.194200 -21.973800
C -12.475300 -11.744900 -22.430800
N -12.340900 -15.249800 -24.561100
H -12.336300 -20.126400 -24.724900
O -12.251000 -16.010000 -21.031100
N -12.228300 -17.671200 -24.809500
H -12.139900 -13.278000 -25.119300
C -12.096100 -16.398500 -25.267500
N -12.049300 -19.876700 -25.486700
C -12.048500 -14.197200 -25.412000
H -12.041700 -10.084200 -21.756600
O -12.028100 -10.945500 -21.475000
C -11.940500 -18.567900 -25.746100
H -11.913300 -20.492900 -26.099700
H -11.701800 -15.948200 -20.433000
C -11.678300 -15.982400 -26.514300
C -11.675300 -15.380700 -22.167300
N -11.651200 -14.599100 -26.592600
N -11.514400 -18.242100 -27.008500
H -11.324000 -18.859400 -27.587800
C -11.308200 -16.948000 -27.469600
C -11.249300 -13.931400 -21.890300
H -10.931200 -15.927300 -22.537400
O -10.820200 -16.770700 -28.605500
O -10.662300 -13.743200 -20.626000
H -10.651700 -13.623600 -22.644400
H -9.798100 -13.948200 -20.662900
H -9.087900 -17.466600 -28.646400
H -8.234300 -17.791200 -30.627900
O -8.223700 -17.671600 -28.609500
O -8.065800 -14.644100 -36.589000
H -7.954800 -15.487500 -30.520900
C -7.636700 -17.483400 -29.873800
C -7.577800 -14.466800 -35.453100
H -7.562000 -12.555400 -35.571300
N -7.371600 -13.172700 -34.992000
N -7.234800 -16.815700 -34.576100
C -7.210700 -16.034100 -30.150800
C -7.207700 -15.432400 -34.497800
H -7.184200 -15.466600 -28.416500
H -6.972700 -10.921900 -34.083200
C -6.945500 -12.846900 -33.729600
O -6.857900 -20.469300 -29.458500
H -6.844300 -21.330600 -29.740100
C -6.837500 -17.217600 -33.395500
N -6.836700 -11.538100 -33.470200
C -6.789900 -15.016300 -33.251000
H -6.746100 -18.136800 -33.102800
N -6.657700 -13.743600 -32.793000
O -6.635000 -15.404800 -29.014600
H -6.549700 -11.288400 -32.708400
N -6.545100 -16.165000 -32.544600
C -6.410700 -19.669900 -30.414300
C -6.295800 -18.220600 -29.957300
O -6.131900 -20.042300 -31.527600
C -6.081300 -16.222600 -31.151300
H -5.854700 -18.198600 -29.107800
O -5.520700 -17.506700 -30.923900
H -5.393800 -15.529400 -31.068600
