23
Fragment
H -8.656400 -21.122000 -25.388600
Cl -8.410000 -23.731200 -23.859900
C -8.191600 -21.794200 -25.872700
C -7.923300 -23.090300 -25.378500
N -7.715100 -21.636000 -27.090600
C -7.239000 -23.739100 -26.350500
N -7.120300 -22.837000 -27.379200
H -6.910900 -24.630600 -26.325200
N -6.633200 -22.117300 -29.544600
C -6.508600 -23.058400 -28.609200
H -6.127000 -21.830800 -31.398800
C -6.053600 -22.458900 -30.690400
N -5.871200 -24.218400 -28.725600
N -5.383400 -23.574000 -30.964800
C -5.334500 -24.406000 -29.923600
H -4.776000 -26.560400 -28.235500
N -4.624500 -25.596700 -30.081900
C -4.451000 -26.562100 -29.128600
N -4.030400 -25.906400 -31.274800
C -3.710900 -27.525600 -29.740600
C -3.468000 -27.076000 -31.055600
Cl -3.188700 -29.002800 -29.047500
H -2.962900 -27.556400 -31.700800
23
Fragment
H -6.703500 -37.662200 -36.234100
Cl -6.457100 -35.053000 -37.762800
C -6.238700 -36.990100 -35.750000
C -5.970400 -35.694000 -36.244200
N -5.762200 -37.148300 -34.532100
C -5.286100 -35.045200 -35.272200
N -5.167400 -35.947200 -34.243500
H -4.958000 -34.153600 -35.297500
N -4.680300 -36.666900 -32.078100
C -4.555700 -35.725900 -33.013500
H -4.174100 -36.953500 -30.223900
C -4.100700 -36.325300 -30.932300
N -3.918300 -34.565800 -32.897100
N -3.430500 -35.210300 -30.657900
C -3.381600 -34.378200 -31.699100
H -2.823100 -32.223800 -33.387200
N -2.671600 -33.187600 -31.540800
C -2.498100 -32.222200 -32.494100
N -2.077500 -32.877900 -30.347900
C -1.758000 -31.258600 -31.882100
C -1.515100 -31.708200 -30.567100
Cl -1.235800 -29.781400 -32.575200
H -1.010000 -31.227900 -29.921900
46
Fragment
H -8.656400 -21.122000 -25.388600
Cl -8.410000 -23.731200 -23.859900
C -8.191600 -21.794200 -25.872700
C -7.923300 -23.090300 -25.378500
N -7.715100 -21.636000 -27.090600
C -7.239000 -23.739100 -26.350500
N -7.120300 -22.837000 -27.379200
H -6.910900 -24.630600 -26.325200
N -6.633200 -22.117300 -29.544600
C -6.508600 -23.058400 -28.609200
H -6.127000 -21.830800 -31.398800
C -6.053600 -22.458900 -30.690400
N -5.871200 -24.218400 -28.725600
N -5.383400 -23.574000 -30.964800
C -5.334500 -24.406000 -29.923600
H -4.776000 -26.560400 -28.235500
N -4.624500 -25.596700 -30.081900
C -4.451000 -26.562100 -29.128600
N -4.030400 -25.906400 -31.274800
C -3.710900 -27.525600 -29.740600
C -3.468000 -27.076000 -31.055600
Cl -3.188700 -29.002800 -29.047500
H -2.962900 -27.556400 -31.700800
H -6.703500 -37.662200 -36.234100
Cl -6.457100 -35.053000 -37.762800
C -6.238700 -36.990100 -35.750000
C -5.970400 -35.694000 -36.244200
N -5.762200 -37.148300 -34.532100
C -5.286100 -35.045200 -35.272200
N -5.167400 -35.947200 -34.243500
H -4.958000 -34.153600 -35.297500
N -4.680300 -36.666900 -32.078100
C -4.555700 -35.725900 -33.013500
H -4.174100 -36.953500 -30.223900
C -4.100700 -36.325300 -30.932300
N -3.918300 -34.565800 -32.897100
N -3.430500 -35.210300 -30.657900
C -3.381600 -34.378200 -31.699100
H -2.823100 -32.223800 -33.387200
N -2.671600 -33.187600 -31.540800
C -2.498100 -32.222200 -32.494100
N -2.077500 -32.877900 -30.347900
C -1.758000 -31.258600 -31.882100
C -1.515100 -31.708200 -30.567100
Cl -1.235800 -29.781400 -32.575200
H -1.010000 -31.227900 -29.921900
