23
Fragment
H -8.656400 -21.122000 -25.388600
Cl -8.410000 -23.731200 -23.859900
C -8.191600 -21.794200 -25.872700
C -7.923300 -23.090300 -25.378500
N -7.715100 -21.636000 -27.090600
C -7.239000 -23.739100 -26.350500
N -7.120300 -22.837000 -27.379200
H -6.910900 -24.630600 -26.325200
N -6.633200 -22.117300 -29.544600
C -6.508600 -23.058400 -28.609200
H -6.127000 -21.830800 -31.398800
C -6.053600 -22.458900 -30.690400
N -5.871200 -24.218400 -28.725600
N -5.383400 -23.574000 -30.964800
C -5.334500 -24.406000 -29.923600
H -4.776000 -26.560400 -28.235500
N -4.624500 -25.596700 -30.081900
C -4.451000 -26.562100 -29.128600
N -4.030400 -25.906400 -31.274800
C -3.710900 -27.525600 -29.740600
C -3.468000 -27.076000 -31.055600
Cl -3.188700 -29.002800 -29.047500
H -2.962900 -27.556400 -31.700800
23
Fragment
H -10.707400 -22.830100 -21.430300
Cl -10.481600 -21.383700 -18.777100
C -10.202300 -23.310500 -20.785100
C -9.959400 -22.860900 -19.470100
N -9.639900 -24.480100 -21.004300
C -9.219300 -23.824400 -18.858200
N -9.045800 -24.789800 -19.811500
H -8.894300 -23.826100 -17.965100
C -8.335800 -25.980500 -19.653100
N -8.286900 -26.812500 -20.694300
N -7.799100 -26.168100 -18.455200
C -7.616700 -27.927600 -20.419900
H -7.543300 -28.555700 -21.128400
C -7.161700 -27.328100 -18.338700
N -7.037100 -28.269200 -19.274100
H -6.759400 -25.755900 -16.054800
N -6.550000 -27.549500 -17.108700
C -6.431300 -26.647400 -16.080000
N -5.955200 -28.750500 -16.820100
C -5.747000 -27.296200 -15.108000
C -5.478700 -28.592300 -15.602300
Cl -5.260300 -26.655300 -13.589400
H -5.013900 -29.264500 -15.118100
46
Fragment
H -8.656400 -21.122000 -25.388600
Cl -8.410000 -23.731200 -23.859900
C -8.191600 -21.794200 -25.872700
C -7.923300 -23.090300 -25.378500
N -7.715100 -21.636000 -27.090600
C -7.239000 -23.739100 -26.350500
N -7.120300 -22.837000 -27.379200
H -6.910900 -24.630600 -26.325200
N -6.633200 -22.117300 -29.544600
C -6.508600 -23.058400 -28.609200
H -6.127000 -21.830800 -31.398800
C -6.053600 -22.458900 -30.690400
N -5.871200 -24.218400 -28.725600
N -5.383400 -23.574000 -30.964800
C -5.334500 -24.406000 -29.923600
H -4.776000 -26.560400 -28.235500
N -4.624500 -25.596700 -30.081900
C -4.451000 -26.562100 -29.128600
N -4.030400 -25.906400 -31.274800
C -3.710900 -27.525600 -29.740600
C -3.468000 -27.076000 -31.055600
Cl -3.188700 -29.002800 -29.047500
H -2.962900 -27.556400 -31.700800
H -10.707400 -22.830100 -21.430300
Cl -10.481600 -21.383700 -18.777100
C -10.202300 -23.310500 -20.785100
C -9.959400 -22.860900 -19.470100
N -9.639900 -24.480100 -21.004300
C -9.219300 -23.824400 -18.858200
N -9.045800 -24.789800 -19.811500
H -8.894300 -23.826100 -17.965100
C -8.335800 -25.980500 -19.653100
N -8.286900 -26.812500 -20.694300
N -7.799100 -26.168100 -18.455200
C -7.616700 -27.927600 -20.419900
H -7.543300 -28.555700 -21.128400
C -7.161700 -27.328100 -18.338700
N -7.037100 -28.269200 -19.274100
H -6.759400 -25.755900 -16.054800
N -6.550000 -27.549500 -17.108700
C -6.431300 -26.647400 -16.080000
N -5.955200 -28.750500 -16.820100
C -5.747000 -27.296200 -15.108000
C -5.478700 -28.592300 -15.602300
Cl -5.260300 -26.655300 -13.589400
H -5.013900 -29.264500 -15.118100
