23
Fragment
H -8.656400 -21.122000 -25.388600
Cl -8.410000 -23.731200 -23.859900
C -8.191600 -21.794200 -25.872700
C -7.923300 -23.090300 -25.378500
N -7.715100 -21.636000 -27.090600
C -7.239000 -23.739100 -26.350500
N -7.120300 -22.837000 -27.379200
H -6.910900 -24.630600 -26.325200
N -6.633200 -22.117300 -29.544600
C -6.508600 -23.058400 -28.609200
H -6.127000 -21.830800 -31.398800
C -6.053600 -22.458900 -30.690400
N -5.871200 -24.218400 -28.725600
N -5.383400 -23.574000 -30.964800
C -5.334500 -24.406000 -29.923600
H -4.776000 -26.560400 -28.235500
N -4.624500 -25.596700 -30.081900
C -4.451000 -26.562100 -29.128600
N -4.030400 -25.906400 -31.274800
C -3.710900 -27.525600 -29.740600
C -3.468000 -27.076000 -31.055600
Cl -3.188700 -29.002800 -29.047500
H -2.962900 -27.556400 -31.700800
6
Fragment
N -6.290300 -18.373400 -25.392700
H -5.946200 -18.107200 -28.418300
C -5.934100 -18.520400 -26.455000
H -5.633700 -19.642300 -28.091700
C -5.466900 -18.715200 -27.818700
H -4.505700 -18.528800 -27.863700
29
Fragment
H -8.656400 -21.122000 -25.388600
Cl -8.410000 -23.731200 -23.859900
C -8.191600 -21.794200 -25.872700
C -7.923300 -23.090300 -25.378500
N -7.715100 -21.636000 -27.090600
C -7.239000 -23.739100 -26.350500
N -7.120300 -22.837000 -27.379200
H -6.910900 -24.630600 -26.325200
N -6.633200 -22.117300 -29.544600
C -6.508600 -23.058400 -28.609200
H -6.127000 -21.830800 -31.398800
C -6.053600 -22.458900 -30.690400
N -5.871200 -24.218400 -28.725600
N -5.383400 -23.574000 -30.964800
C -5.334500 -24.406000 -29.923600
H -4.776000 -26.560400 -28.235500
N -4.624500 -25.596700 -30.081900
C -4.451000 -26.562100 -29.128600
N -4.030400 -25.906400 -31.274800
C -3.710900 -27.525600 -29.740600
C -3.468000 -27.076000 -31.055600
Cl -3.188700 -29.002800 -29.047500
H -2.962900 -27.556400 -31.700800
N -6.290300 -18.373400 -25.392700
H -5.946200 -18.107200 -28.418300
C -5.934100 -18.520400 -26.455000
H -5.633700 -19.642300 -28.091700
C -5.466900 -18.715200 -27.818700
H -4.505700 -18.528800 -27.863700
