37
Fragment
H -8.154400 -10.417600 -14.158600
H -7.929900 -9.335500 -16.199400
H -7.692200 -12.000900 -12.541200
C -7.412800 -10.499100 -14.646400
C -7.222700 -9.809100 -15.805100
H -6.666400 -9.799300 -11.521800
C -6.659100 -12.016300 -12.812900
C -6.434900 -11.262600 -14.099200
H -6.394800 -12.930000 -12.891800
H -6.243600 -16.554400 -4.980500
C -6.071700 -10.253500 -11.145900
C -6.022600 -9.860900 -16.438000
O -5.964300 -14.010000 -6.742900
H -5.907700 -9.457000 -17.338700
N -5.869700 -11.467600 -11.713600
C -5.746700 -15.974000 -4.986300
H -5.539700 -15.146700 -4.547200
C -5.353300 -14.981800 -7.051500
N -5.317800 -10.034300 -10.109900
C -5.240300 -11.321200 -14.760300
H -5.152300 -16.379100 -4.371900
O -5.136900 -16.029800 -6.273500
C -5.045500 -10.636100 -15.908300
C -4.888700 -12.081200 -10.971600
N -4.833900 -14.225000 -9.175200
N -4.754300 -15.187700 -8.240400
H -4.637500 -11.821200 -14.367900
C -4.576500 -11.172600 -10.023300
C -4.322600 -13.411800 -11.325100
H -4.293500 -15.964300 -8.385500
C -4.257500 -14.432100 -10.277400
H -4.235800 -10.631900 -16.324100
O -3.941700 -13.630800 -12.452600
H -3.913300 -15.262600 -10.553900
O -3.686700 -10.635200 -7.996000
N -3.588400 -11.318800 -8.983300
O -2.704000 -12.138800 -9.173200
37
Fragment
H -3.123700 -14.038900 -4.421600
H -2.899200 -12.956800 -6.462400
H -2.661500 -15.622300 -2.804300
C -2.382100 -14.120400 -4.909400
C -2.192000 -13.430400 -6.068100
H -1.635700 -13.420700 -1.784800
C -1.628400 -15.637600 -3.075900
C -1.404200 -14.883900 -4.362200
H -1.364100 -16.551400 -3.154800
H -1.212900 -20.175700 4.756500
C -1.041000 -13.874800 -1.408900
C -0.991900 -13.482200 -6.701000
O -0.933600 -17.631300 2.994100
H -0.877000 -13.078400 -7.601700
N -0.839000 -15.088900 -1.976600
C -0.716000 -19.595300 4.750700
H -0.509000 -18.768100 5.189800
C -0.322600 -18.603100 2.685500
N -0.287100 -13.655700 -0.372900
C -0.209600 -14.942500 -5.023300
H -0.121600 -20.000400 5.365100
O -0.106200 -19.651200 3.463400
C -0.014700 -14.257500 -6.171300
C 0.142000 -15.702500 -1.234700
N 0.196800 -17.846300 0.561800
N 0.276400 -18.809000 1.496600
H 0.393200 -15.442600 -4.630900
C 0.454200 -14.793900 -0.286300
C 0.708100 -17.033100 -1.588100
H 0.737200 -19.585600 1.351500
C 0.773200 -18.053400 -0.540400
H 0.794900 -14.253200 -6.587100
O 1.089000 -17.252200 -2.715600
H 1.117400 -18.883900 -0.816900
O 1.344000 -14.256500 1.741000
N 1.442300 -14.940100 0.753600
O 2.326700 -15.760100 0.563800
74
Fragment
H -8.154400 -10.417600 -14.158600
H -7.929900 -9.335500 -16.199400
H -7.692200 -12.000900 -12.541200
C -7.412800 -10.499100 -14.646400
C -7.222700 -9.809100 -15.805100
H -6.666400 -9.799300 -11.521800
C -6.659100 -12.016300 -12.812900
C -6.434900 -11.262600 -14.099200
H -6.394800 -12.930000 -12.891800
H -6.243600 -16.554400 -4.980500
C -6.071700 -10.253500 -11.145900
C -6.022600 -9.860900 -16.438000
O -5.964300 -14.010000 -6.742900
H -5.907700 -9.457000 -17.338700
N -5.869700 -11.467600 -11.713600
C -5.746700 -15.974000 -4.986300
H -5.539700 -15.146700 -4.547200
C -5.353300 -14.981800 -7.051500
N -5.317800 -10.034300 -10.109900
C -5.240300 -11.321200 -14.760300
H -5.152300 -16.379100 -4.371900
O -5.136900 -16.029800 -6.273500
C -5.045500 -10.636100 -15.908300
C -4.888700 -12.081200 -10.971600
N -4.833900 -14.225000 -9.175200
N -4.754300 -15.187700 -8.240400
H -4.637500 -11.821200 -14.367900
C -4.576500 -11.172600 -10.023300
C -4.322600 -13.411800 -11.325100
H -4.293500 -15.964300 -8.385500
C -4.257500 -14.432100 -10.277400
H -4.235800 -10.631900 -16.324100
O -3.941700 -13.630800 -12.452600
H -3.913300 -15.262600 -10.553900
O -3.686700 -10.635200 -7.996000
N -3.588400 -11.318800 -8.983300
O -2.704000 -12.138800 -9.173200
H -3.123700 -14.038900 -4.421600
H -2.899200 -12.956800 -6.462400
H -2.661500 -15.622300 -2.804300
C -2.382100 -14.120400 -4.909400
C -2.192000 -13.430400 -6.068100
H -1.635700 -13.420700 -1.784800
C -1.628400 -15.637600 -3.075900
C -1.404200 -14.883900 -4.362200
H -1.364100 -16.551400 -3.154800
H -1.212900 -20.175700 4.756500
C -1.041000 -13.874800 -1.408900
C -0.991900 -13.482200 -6.701000
O -0.933600 -17.631300 2.994100
H -0.877000 -13.078400 -7.601700
N -0.839000 -15.088900 -1.976600
C -0.716000 -19.595300 4.750700
H -0.509000 -18.768100 5.189800
C -0.322600 -18.603100 2.685500
N -0.287100 -13.655700 -0.372900
C -0.209600 -14.942500 -5.023300
H -0.121600 -20.000400 5.365100
O -0.106200 -19.651200 3.463400
C -0.014700 -14.257500 -6.171300
C 0.142000 -15.702500 -1.234700
N 0.196800 -17.846300 0.561800
N 0.276400 -18.809000 1.496600
H 0.393200 -15.442600 -4.630900
C 0.454200 -14.793900 -0.286300
C 0.708100 -17.033100 -1.588100
H 0.737200 -19.585600 1.351500
C 0.773200 -18.053400 -0.540400
H 0.794900 -14.253200 -6.587100
O 1.089000 -17.252200 -2.715600
H 1.117400 -18.883900 -0.816900
O 1.344000 -14.256500 1.741000
N 1.442300 -14.940100 0.753600
O 2.326700 -15.760100 0.563800
