37
Fragment
H -8.154400 -10.417600 -14.158600
H -7.929900 -9.335500 -16.199400
H -7.692200 -12.000900 -12.541200
C -7.412800 -10.499100 -14.646400
C -7.222700 -9.809100 -15.805100
H -6.666400 -9.799300 -11.521800
C -6.659100 -12.016300 -12.812900
C -6.434900 -11.262600 -14.099200
H -6.394800 -12.930000 -12.891800
H -6.243600 -16.554400 -4.980500
C -6.071700 -10.253500 -11.145900
C -6.022600 -9.860900 -16.438000
O -5.964300 -14.010000 -6.742900
H -5.907700 -9.457000 -17.338700
N -5.869700 -11.467600 -11.713600
C -5.746700 -15.974000 -4.986300
H -5.539700 -15.146700 -4.547200
C -5.353300 -14.981800 -7.051500
N -5.317800 -10.034300 -10.109900
C -5.240300 -11.321200 -14.760300
H -5.152300 -16.379100 -4.371900
O -5.136900 -16.029800 -6.273500
C -5.045500 -10.636100 -15.908300
C -4.888700 -12.081200 -10.971600
N -4.833900 -14.225000 -9.175200
N -4.754300 -15.187700 -8.240400
H -4.637500 -11.821200 -14.367900
C -4.576500 -11.172600 -10.023300
C -4.322600 -13.411800 -11.325100
H -4.293500 -15.964300 -8.385500
C -4.257500 -14.432100 -10.277400
H -4.235800 -10.631900 -16.324100
O -3.941700 -13.630800 -12.452600
H -3.913300 -15.262600 -10.553900
O -3.686700 -10.635200 -7.996000
N -3.588400 -11.318800 -8.983300
O -2.704000 -12.138800 -9.173200
37
Fragment
O -10.865000 -9.724700 -10.300800
N -9.980600 -10.544700 -10.490600
O -9.882300 -11.228300 -11.478000
H -9.655700 -6.600900 -8.920100
O -9.627300 -8.232600 -7.021300
H -9.333200 -11.231600 -3.149900
C -9.311500 -7.431400 -9.196600
H -9.275500 -5.899200 -11.088500
C -9.246400 -8.451700 -8.148900
C -8.992500 -10.690900 -9.450700
H -8.931500 -10.042300 -5.106100
N -8.814700 -6.675800 -11.233600
N -8.735100 -7.638500 -10.298800
C -8.680300 -9.782300 -8.502300
C -8.523600 -11.227300 -3.565700
O -8.432100 -5.833600 -13.200400
H -8.416700 -5.484400 -15.102100
C -8.328700 -10.542300 -4.713700
N -8.251200 -11.829100 -9.364100
C -8.215700 -6.881700 -12.422400
H -8.029300 -6.716700 -14.926800
C -7.822300 -5.889500 -14.487700
N -7.699300 -10.395900 -7.760400
H -7.661300 -12.406400 -2.135300
O -7.604700 -7.853500 -12.731100
C -7.546400 -12.002600 -3.036000
C -7.497300 -11.610000 -8.328000
H -7.325400 -5.309100 -14.493500
H -7.174200 -8.933500 -6.582200
C -7.134100 -10.600900 -5.374800
C -6.909900 -9.847200 -6.661100
H -6.902600 -12.064100 -7.952200
C -6.346300 -12.054400 -3.668900
C -6.156200 -11.364400 -4.827600
H -5.876800 -9.862500 -6.932700
H -5.639100 -12.528000 -3.274500
H -5.414600 -11.445900 -5.315400
74
Fragment
H -8.154400 -10.417600 -14.158600
H -7.929900 -9.335500 -16.199400
H -7.692200 -12.000900 -12.541200
C -7.412800 -10.499100 -14.646400
C -7.222700 -9.809100 -15.805100
H -6.666400 -9.799300 -11.521800
C -6.659100 -12.016300 -12.812900
C -6.434900 -11.262600 -14.099200
H -6.394800 -12.930000 -12.891800
H -6.243600 -16.554400 -4.980500
C -6.071700 -10.253500 -11.145900
C -6.022600 -9.860900 -16.438000
O -5.964300 -14.010000 -6.742900
H -5.907700 -9.457000 -17.338700
N -5.869700 -11.467600 -11.713600
C -5.746700 -15.974000 -4.986300
H -5.539700 -15.146700 -4.547200
C -5.353300 -14.981800 -7.051500
N -5.317800 -10.034300 -10.109900
C -5.240300 -11.321200 -14.760300
H -5.152300 -16.379100 -4.371900
O -5.136900 -16.029800 -6.273500
C -5.045500 -10.636100 -15.908300
C -4.888700 -12.081200 -10.971600
N -4.833900 -14.225000 -9.175200
N -4.754300 -15.187700 -8.240400
H -4.637500 -11.821200 -14.367900
C -4.576500 -11.172600 -10.023300
C -4.322600 -13.411800 -11.325100
H -4.293500 -15.964300 -8.385500
C -4.257500 -14.432100 -10.277400
H -4.235800 -10.631900 -16.324100
O -3.941700 -13.630800 -12.452600
H -3.913300 -15.262600 -10.553900
O -3.686700 -10.635200 -7.996000
N -3.588400 -11.318800 -8.983300
O -2.704000 -12.138800 -9.173200
O -10.865000 -9.724700 -10.300800
N -9.980600 -10.544700 -10.490600
O -9.882300 -11.228300 -11.478000
H -9.655700 -6.600900 -8.920100
O -9.627300 -8.232600 -7.021300
H -9.333200 -11.231600 -3.149900
C -9.311500 -7.431400 -9.196600
H -9.275500 -5.899200 -11.088500
C -9.246400 -8.451700 -8.148900
C -8.992500 -10.690900 -9.450700
H -8.931500 -10.042300 -5.106100
N -8.814700 -6.675800 -11.233600
N -8.735100 -7.638500 -10.298800
C -8.680300 -9.782300 -8.502300
C -8.523600 -11.227300 -3.565700
O -8.432100 -5.833600 -13.200400
H -8.416700 -5.484400 -15.102100
C -8.328700 -10.542300 -4.713700
N -8.251200 -11.829100 -9.364100
C -8.215700 -6.881700 -12.422400
H -8.029300 -6.716700 -14.926800
C -7.822300 -5.889500 -14.487700
N -7.699300 -10.395900 -7.760400
H -7.661300 -12.406400 -2.135300
O -7.604700 -7.853500 -12.731100
C -7.546400 -12.002600 -3.036000
C -7.497300 -11.610000 -8.328000
H -7.325400 -5.309100 -14.493500
H -7.174200 -8.933500 -6.582200
C -7.134100 -10.600900 -5.374800
C -6.909900 -9.847200 -6.661100
H -6.902600 -12.064100 -7.952200
C -6.346300 -12.054400 -3.668900
C -6.156200 -11.364400 -4.827600
H -5.876800 -9.862500 -6.932700
H -5.639100 -12.528000 -3.274500
H -5.414600 -11.445900 -5.315400
