42
Fragment
O -54.037900 -6.824500 -33.058600
H -53.979100 -4.676500 -28.682600
H -53.651500 -2.749700 -27.301500
C -53.169600 -4.245300 -28.520800
H -53.059500 -8.821700 -34.062800
N -53.018900 -3.148400 -27.724500
C -53.017700 -7.437500 -32.717300
N -52.627700 -6.063900 -30.834700
N -52.584000 -8.505100 -33.420000
N -52.268600 -7.134200 -31.634100
C -51.964500 -4.624300 -29.051500
C -51.725500 -5.679100 -30.000500
H -51.711700 -10.477700 -34.382400
C -51.682900 -2.779100 -27.706000
H -51.574500 -7.603200 -31.442700
H -51.510500 -1.092700 -26.565600
N -51.367700 -9.088200 -33.099800
C -51.077500 -10.141900 -33.790500
C -51.036300 -1.716300 -27.064800
C -50.992300 -3.708600 -28.514900
H -50.894100 -6.095900 -30.012400
H -49.990100 -12.328300 -35.055200
C -49.808500 -10.816200 -33.674100
C -49.666700 -1.629900 -27.200900
C -49.610600 -3.582300 -28.611600
C -49.446000 -11.911500 -34.425800
H -49.207600 -0.938100 -26.782700
H -49.120300 -4.188800 -29.116600
H -48.979600 -8.887800 -31.659800
C -48.967400 -2.551500 -27.948700
C -48.672000 -10.514500 -32.843500
C -48.359300 -9.546000 -31.876800
N -48.175800 -12.296800 -34.112100
H -48.042600 -2.479500 -28.009800
H -47.751800 -12.954600 -34.471200
C -47.679600 -11.469100 -33.135500
C -47.136100 -9.571600 -31.253300
H -46.932400 -8.921900 -30.620000
C -46.455800 -11.511700 -32.504200
C -46.195500 -10.549700 -31.551300
H -45.827300 -12.165200 -32.711300
H -45.379300 -10.555500 -31.103400
42
Fragment
H -63.183900 -2.769500 -28.084800
H -62.735900 -1.159800 -26.476900
C -62.367700 -2.775300 -27.636900
C -62.107400 -1.813300 -26.684000
H -61.630800 -4.403100 -28.568200
C -61.427100 -3.753400 -27.934900
C -60.883600 -1.855900 -26.052700
H -60.811400 -0.370400 -24.717000
H -60.520600 -10.845500 -31.178400
N -60.387400 -1.028200 -25.076100
C -60.203900 -3.779000 -27.311400
C -59.891200 -2.810500 -26.344700
C -59.595800 -10.773500 -31.239500
H -59.583600 -4.437200 -27.528400
H -59.442900 -9.136200 -30.071500
H -59.355600 -12.386900 -32.405500
C -59.117200 -1.413500 -24.762400
C -58.952700 -9.742700 -30.576600
C -58.896500 -11.695100 -31.987300
C -58.754700 -2.508800 -25.514100
H -58.573100 -0.996700 -24.133000
H -57.669100 -7.229100 -29.175800
C -57.570900 -9.616400 -30.673300
C -57.526900 -11.608700 -32.123400
C -57.485700 -3.183100 -25.397700
N -57.195500 -4.236800 -26.088400
H -57.052800 -12.232300 -32.622600
H -56.988700 -5.721800 -27.745500
C -56.880300 -10.545900 -31.482200
H -56.851500 -2.847300 -24.805800
C -56.837700 -7.645900 -29.187700
C -56.598700 -8.700700 -30.136700
N -56.294600 -6.190800 -27.554100
N -55.979200 -4.819900 -25.768200
N -55.935500 -7.261100 -28.353500
C -55.545500 -5.887500 -26.470900
N -55.544300 -10.176600 -31.463700
H -55.503700 -4.503300 -25.125400
C -55.393600 -9.079700 -30.667400
H -54.911700 -10.575300 -31.886700
H -54.584100 -8.648500 -30.505600
O -54.525300 -6.500500 -26.129600
84
Fragment
O -54.037900 -6.824500 -33.058600
H -53.979100 -4.676500 -28.682600
H -53.651500 -2.749700 -27.301500
C -53.169600 -4.245300 -28.520800
H -53.059500 -8.821700 -34.062800
N -53.018900 -3.148400 -27.724500
C -53.017700 -7.437500 -32.717300
N -52.627700 -6.063900 -30.834700
N -52.584000 -8.505100 -33.420000
N -52.268600 -7.134200 -31.634100
C -51.964500 -4.624300 -29.051500
C -51.725500 -5.679100 -30.000500
H -51.711700 -10.477700 -34.382400
C -51.682900 -2.779100 -27.706000
H -51.574500 -7.603200 -31.442700
H -51.510500 -1.092700 -26.565600
N -51.367700 -9.088200 -33.099800
C -51.077500 -10.141900 -33.790500
C -51.036300 -1.716300 -27.064800
C -50.992300 -3.708600 -28.514900
H -50.894100 -6.095900 -30.012400
H -49.990100 -12.328300 -35.055200
C -49.808500 -10.816200 -33.674100
C -49.666700 -1.629900 -27.200900
C -49.610600 -3.582300 -28.611600
C -49.446000 -11.911500 -34.425800
H -49.207600 -0.938100 -26.782700
H -49.120300 -4.188800 -29.116600
H -48.979600 -8.887800 -31.659800
C -48.967400 -2.551500 -27.948700
C -48.672000 -10.514500 -32.843500
C -48.359300 -9.546000 -31.876800
N -48.175800 -12.296800 -34.112100
H -48.042600 -2.479500 -28.009800
H -47.751800 -12.954600 -34.471200
C -47.679600 -11.469100 -33.135500
C -47.136100 -9.571600 -31.253300
H -46.932400 -8.921900 -30.620000
C -46.455800 -11.511700 -32.504200
C -46.195500 -10.549700 -31.551300
H -45.827300 -12.165200 -32.711300
H -45.379300 -10.555500 -31.103400
H -63.183900 -2.769500 -28.084800
H -62.735900 -1.159800 -26.476900
C -62.367700 -2.775300 -27.636900
C -62.107400 -1.813300 -26.684000
H -61.630800 -4.403100 -28.568200
C -61.427100 -3.753400 -27.934900
C -60.883600 -1.855900 -26.052700
H -60.811400 -0.370400 -24.717000
H -60.520600 -10.845500 -31.178400
N -60.387400 -1.028200 -25.076100
C -60.203900 -3.779000 -27.311400
C -59.891200 -2.810500 -26.344700
C -59.595800 -10.773500 -31.239500
H -59.583600 -4.437200 -27.528400
H -59.442900 -9.136200 -30.071500
H -59.355600 -12.386900 -32.405500
C -59.117200 -1.413500 -24.762400
C -58.952700 -9.742700 -30.576600
C -58.896500 -11.695100 -31.987300
C -58.754700 -2.508800 -25.514100
H -58.573100 -0.996700 -24.133000
H -57.669100 -7.229100 -29.175800
C -57.570900 -9.616400 -30.673300
C -57.526900 -11.608700 -32.123400
C -57.485700 -3.183100 -25.397700
N -57.195500 -4.236800 -26.088400
H -57.052800 -12.232300 -32.622600
H -56.988700 -5.721800 -27.745500
C -56.880300 -10.545900 -31.482200
H -56.851500 -2.847300 -24.805800
C -56.837700 -7.645900 -29.187700
C -56.598700 -8.700700 -30.136700
N -56.294600 -6.190800 -27.554100
N -55.979200 -4.819900 -25.768200
N -55.935500 -7.261100 -28.353500
C -55.545500 -5.887500 -26.470900
N -55.544300 -10.176600 -31.463700
H -55.503700 -4.503300 -25.125400
C -55.393600 -9.079700 -30.667400
H -54.911700 -10.575300 -31.886700
H -54.584100 -8.648500 -30.505600
O -54.525300 -6.500500 -26.129600
