42
Fragment
O -54.037900 -6.824500 -33.058600
H -53.979100 -4.676500 -28.682600
H -53.651500 -2.749700 -27.301500
C -53.169600 -4.245300 -28.520800
H -53.059500 -8.821700 -34.062800
N -53.018900 -3.148400 -27.724500
C -53.017700 -7.437500 -32.717300
N -52.627700 -6.063900 -30.834700
N -52.584000 -8.505100 -33.420000
N -52.268600 -7.134200 -31.634100
C -51.964500 -4.624300 -29.051500
C -51.725500 -5.679100 -30.000500
H -51.711700 -10.477700 -34.382400
C -51.682900 -2.779100 -27.706000
H -51.574500 -7.603200 -31.442700
H -51.510500 -1.092700 -26.565600
N -51.367700 -9.088200 -33.099800
C -51.077500 -10.141900 -33.790500
C -51.036300 -1.716300 -27.064800
C -50.992300 -3.708600 -28.514900
H -50.894100 -6.095900 -30.012400
H -49.990100 -12.328300 -35.055200
C -49.808500 -10.816200 -33.674100
C -49.666700 -1.629900 -27.200900
C -49.610600 -3.582300 -28.611600
C -49.446000 -11.911500 -34.425800
H -49.207600 -0.938100 -26.782700
H -49.120300 -4.188800 -29.116600
H -48.979600 -8.887800 -31.659800
C -48.967400 -2.551500 -27.948700
C -48.672000 -10.514500 -32.843500
C -48.359300 -9.546000 -31.876800
N -48.175800 -12.296800 -34.112100
H -48.042600 -2.479500 -28.009800
H -47.751800 -12.954600 -34.471200
C -47.679600 -11.469100 -33.135500
C -47.136100 -9.571600 -31.253300
H -46.932400 -8.921900 -30.620000
C -46.455800 -11.511700 -32.504200
C -46.195500 -10.549700 -31.551300
H -45.827300 -12.165200 -32.711300
H -45.379300 -10.555500 -31.103400
42
Fragment
O -54.873200 -9.165500 -23.193900
H -54.814400 -11.313500 -18.817900
H -54.486800 -13.240300 -17.436800
C -54.004900 -11.744700 -18.656100
H -53.894800 -7.168300 -24.198100
N -53.854200 -12.841600 -17.859800
C -53.853000 -8.552500 -22.852600
N -53.463000 -9.926100 -20.970000
N -53.419300 -7.484900 -23.555300
N -53.103900 -8.855800 -21.769400
C -52.799800 -11.365700 -19.186800
C -52.560800 -10.310900 -20.135800
H -52.547000 -5.512300 -24.517700
C -52.518200 -13.210900 -17.841300
H -52.409800 -8.386800 -21.578000
H -52.345800 -14.897400 -16.700900
N -52.203000 -6.901800 -23.235100
C -51.912800 -5.848100 -23.925800
C -51.871600 -14.273700 -17.200100
C -51.827600 -12.281400 -18.650200
H -51.729400 -9.894100 -20.147700
H -50.825400 -3.661700 -25.190500
C -50.643800 -5.173800 -23.809400
C -50.502000 -14.360100 -17.336200
C -50.445900 -12.407700 -18.746900
C -50.281300 -4.078500 -24.561100
H -50.042900 -15.051900 -16.918000
H -49.955600 -11.801200 -19.251900
H -49.814900 -7.102200 -21.795100
C -49.802700 -13.438500 -18.084000
C -49.507300 -5.475500 -22.978800
C -49.194600 -6.444000 -22.012100
N -49.011100 -3.693200 -24.247400
H -48.877900 -13.510500 -18.145100
H -48.587100 -3.035400 -24.606500
C -48.514900 -4.520900 -23.270800
C -47.971400 -6.418400 -21.388600
H -47.767700 -7.068100 -20.755300
C -47.291100 -4.478300 -22.639500
C -47.030800 -5.440300 -21.686600
H -46.662600 -3.824800 -22.846600
H -46.214600 -5.434500 -21.238700
84
Fragment
O -54.037900 -6.824500 -33.058600
H -53.979100 -4.676500 -28.682600
H -53.651500 -2.749700 -27.301500
C -53.169600 -4.245300 -28.520800
H -53.059500 -8.821700 -34.062800
N -53.018900 -3.148400 -27.724500
C -53.017700 -7.437500 -32.717300
N -52.627700 -6.063900 -30.834700
N -52.584000 -8.505100 -33.420000
N -52.268600 -7.134200 -31.634100
C -51.964500 -4.624300 -29.051500
C -51.725500 -5.679100 -30.000500
H -51.711700 -10.477700 -34.382400
C -51.682900 -2.779100 -27.706000
H -51.574500 -7.603200 -31.442700
H -51.510500 -1.092700 -26.565600
N -51.367700 -9.088200 -33.099800
C -51.077500 -10.141900 -33.790500
C -51.036300 -1.716300 -27.064800
C -50.992300 -3.708600 -28.514900
H -50.894100 -6.095900 -30.012400
H -49.990100 -12.328300 -35.055200
C -49.808500 -10.816200 -33.674100
C -49.666700 -1.629900 -27.200900
C -49.610600 -3.582300 -28.611600
C -49.446000 -11.911500 -34.425800
H -49.207600 -0.938100 -26.782700
H -49.120300 -4.188800 -29.116600
H -48.979600 -8.887800 -31.659800
C -48.967400 -2.551500 -27.948700
C -48.672000 -10.514500 -32.843500
C -48.359300 -9.546000 -31.876800
N -48.175800 -12.296800 -34.112100
H -48.042600 -2.479500 -28.009800
H -47.751800 -12.954600 -34.471200
C -47.679600 -11.469100 -33.135500
C -47.136100 -9.571600 -31.253300
H -46.932400 -8.921900 -30.620000
C -46.455800 -11.511700 -32.504200
C -46.195500 -10.549700 -31.551300
H -45.827300 -12.165200 -32.711300
H -45.379300 -10.555500 -31.103400
O -54.873200 -9.165500 -23.193900
H -54.814400 -11.313500 -18.817900
H -54.486800 -13.240300 -17.436800
C -54.004900 -11.744700 -18.656100
H -53.894800 -7.168300 -24.198100
N -53.854200 -12.841600 -17.859800
C -53.853000 -8.552500 -22.852600
N -53.463000 -9.926100 -20.970000
N -53.419300 -7.484900 -23.555300
N -53.103900 -8.855800 -21.769400
C -52.799800 -11.365700 -19.186800
C -52.560800 -10.310900 -20.135800
H -52.547000 -5.512300 -24.517700
C -52.518200 -13.210900 -17.841300
H -52.409800 -8.386800 -21.578000
H -52.345800 -14.897400 -16.700900
N -52.203000 -6.901800 -23.235100
C -51.912800 -5.848100 -23.925800
C -51.871600 -14.273700 -17.200100
C -51.827600 -12.281400 -18.650200
H -51.729400 -9.894100 -20.147700
H -50.825400 -3.661700 -25.190500
C -50.643800 -5.173800 -23.809400
C -50.502000 -14.360100 -17.336200
C -50.445900 -12.407700 -18.746900
C -50.281300 -4.078500 -24.561100
H -50.042900 -15.051900 -16.918000
H -49.955600 -11.801200 -19.251900
H -49.814900 -7.102200 -21.795100
C -49.802700 -13.438500 -18.084000
C -49.507300 -5.475500 -22.978800
C -49.194600 -6.444000 -22.012100
N -49.011100 -3.693200 -24.247400
H -48.877900 -13.510500 -18.145100
H -48.587100 -3.035400 -24.606500
C -48.514900 -4.520900 -23.270800
C -47.971400 -6.418400 -21.388600
H -47.767700 -7.068100 -20.755300
C -47.291100 -4.478300 -22.639500
C -47.030800 -5.440300 -21.686600
H -46.662600 -3.824800 -22.846600
H -46.214600 -5.434500 -21.238700
