17
Fragment
H -13.804100 -10.314600 -25.160300
H -12.972800 -11.519700 -25.510300
C -12.931900 -10.594600 -25.331300
H -12.552400 -10.068600 -26.012600
C -12.224900 -10.389500 -24.034200
N -12.154000 -7.851700 -24.044900
H -12.002600 -12.340600 -23.447700
C -11.920000 -9.111900 -23.541200
C -11.827200 -11.413200 -23.205900
N -11.689700 -6.974700 -23.168500
C -11.280300 -8.998400 -22.317500
N -11.177200 -7.656900 -22.134500
C -11.171400 -11.177400 -21.998300
H -11.149400 -6.806000 -20.572900
H -10.919900 -11.934500 -21.485300
N -10.870100 -9.972400 -21.502600
O -10.576200 -7.004700 -21.100500
17
Fragment
O -11.357100 -8.768100 -27.780000
N -11.063200 -5.800400 -28.182100
H -11.013400 -3.838300 -28.164800
H -10.783900 -8.966800 -27.252400
C -10.761900 -4.595400 -28.677800
N -10.756100 -8.115900 -28.814000
C -10.653000 -6.774400 -28.997000
N -10.243600 -8.798100 -29.848000
C -10.106100 -4.359600 -29.885400
C -10.013300 -6.660900 -30.220700
H -9.930700 -3.432200 -30.127200
N -9.779300 -7.921100 -30.724400
C -9.708400 -5.383300 -30.713700
H -9.380900 -5.704200 -32.692100
C -9.001400 -5.178200 -32.010800
H -8.960500 -4.253100 -32.189800
H -8.129200 -5.458200 -31.839800
34
Fragment
H -13.804100 -10.314600 -25.160300
H -12.972800 -11.519700 -25.510300
C -12.931900 -10.594600 -25.331300
H -12.552400 -10.068600 -26.012600
C -12.224900 -10.389500 -24.034200
N -12.154000 -7.851700 -24.044900
H -12.002600 -12.340600 -23.447700
C -11.920000 -9.111900 -23.541200
C -11.827200 -11.413200 -23.205900
N -11.689700 -6.974700 -23.168500
C -11.280300 -8.998400 -22.317500
N -11.177200 -7.656900 -22.134500
C -11.171400 -11.177400 -21.998300
H -11.149400 -6.806000 -20.572900
H -10.919900 -11.934500 -21.485300
N -10.870100 -9.972400 -21.502600
O -10.576200 -7.004700 -21.100500
O -11.357100 -8.768100 -27.780000
N -11.063200 -5.800400 -28.182100
H -11.013400 -3.838300 -28.164800
H -10.783900 -8.966800 -27.252400
C -10.761900 -4.595400 -28.677800
N -10.756100 -8.115900 -28.814000
C -10.653000 -6.774400 -28.997000
N -10.243600 -8.798100 -29.848000
C -10.106100 -4.359600 -29.885400
C -10.013300 -6.660900 -30.220700
H -9.930700 -3.432200 -30.127200
N -9.779300 -7.921100 -30.724400
C -9.708400 -5.383300 -30.713700
H -9.380900 -5.704200 -32.692100
C -9.001400 -5.178200 -32.010800
H -8.960500 -4.253100 -32.189800
H -8.129200 -5.458200 -31.839800
