17
Fragment
H -17.104200 -34.958700 -25.635500
N -16.934400 -33.779000 -27.890000
H -16.915500 -34.668700 -27.956500
C -16.867900 -34.066100 -25.519500
H -16.777900 -34.160800 -23.531200
C -16.722300 -33.245500 -26.648900
H -16.706500 -33.291000 -28.595200
C -16.673100 -33.589400 -24.256600
O -16.474700 -31.224900 -28.735500
C -16.377700 -31.886100 -26.437700
C -16.320200 -32.264800 -24.037000
C -16.215100 -30.953300 -27.571400
C -16.181800 -31.432300 -25.119800
H -16.181200 -31.948000 -23.173800
H -15.950900 -30.542600 -24.977800
O -15.747100 -29.751600 -27.226900
H -15.674600 -29.188400 -28.021100
21
Fragment
H -13.887400 -33.870400 -26.895800
H -13.666500 -33.522000 -25.384600
C -13.262900 -33.524200 -26.254800
O -13.127200 -32.724200 -28.824600
H -12.893900 -30.866100 -30.306000
N -12.889800 -32.146600 -26.627200
H -12.885200 -29.350400 -29.906800
C -12.865200 -31.854700 -27.989000
O -12.609300 -31.645800 -24.414000
C -12.557600 -31.271000 -25.585900
N -12.548600 -30.569900 -28.356200
H -12.477000 -34.075400 -26.241900
C -12.457700 -30.198700 -29.770300
C -12.195300 -29.977600 -26.059400
C -12.189200 -29.663400 -27.385300
N -11.778200 -28.382600 -27.595500
N -11.754000 -28.846300 -25.412500
H -11.652900 -28.724100 -24.460700
H -11.534000 -30.137100 -30.026600
C -11.519600 -27.937600 -26.361100
H -11.208200 -27.079900 -26.181000
38
Fragment
H -17.104200 -34.958700 -25.635500
N -16.934400 -33.779000 -27.890000
H -16.915500 -34.668700 -27.956500
C -16.867900 -34.066100 -25.519500
H -16.777900 -34.160800 -23.531200
C -16.722300 -33.245500 -26.648900
H -16.706500 -33.291000 -28.595200
C -16.673100 -33.589400 -24.256600
O -16.474700 -31.224900 -28.735500
C -16.377700 -31.886100 -26.437700
C -16.320200 -32.264800 -24.037000
C -16.215100 -30.953300 -27.571400
C -16.181800 -31.432300 -25.119800
H -16.181200 -31.948000 -23.173800
H -15.950900 -30.542600 -24.977800
O -15.747100 -29.751600 -27.226900
H -15.674600 -29.188400 -28.021100
H -13.887400 -33.870400 -26.895800
H -13.666500 -33.522000 -25.384600
C -13.262900 -33.524200 -26.254800
O -13.127200 -32.724200 -28.824600
H -12.893900 -30.866100 -30.306000
N -12.889800 -32.146600 -26.627200
H -12.885200 -29.350400 -29.906800
C -12.865200 -31.854700 -27.989000
O -12.609300 -31.645800 -24.414000
C -12.557600 -31.271000 -25.585900
N -12.548600 -30.569900 -28.356200
H -12.477000 -34.075400 -26.241900
C -12.457700 -30.198700 -29.770300
C -12.195300 -29.977600 -26.059400
C -12.189200 -29.663400 -27.385300
N -11.778200 -28.382600 -27.595500
N -11.754000 -28.846300 -25.412500
H -11.652900 -28.724100 -24.460700
H -11.534000 -30.137100 -30.026600
C -11.519600 -27.937600 -26.361100
H -11.208200 -27.079900 -26.181000
