17
Fragment
H -8.469000 -24.016900 -21.155100
O -7.685900 -23.530200 -20.604000
O -7.003600 -25.638300 -20.241100
C -6.824300 -24.427400 -20.168600
H -6.121400 -21.875200 -19.679300
C -5.596300 -23.835100 -19.578500
C -5.449300 -22.461700 -19.419900
H -4.684500 -25.609100 -19.351400
C -4.575700 -24.694400 -19.223700
C -4.278000 -22.000100 -18.866200
H -4.174600 -21.085500 -18.734500
C -3.387800 -24.218600 -18.680700
C -3.250100 -22.848000 -18.499300
H -2.562000 -25.976900 -18.211700
H -2.468800 -22.501500 -18.132400
N -2.373300 -25.094900 -18.387700
H -1.617600 -24.755500 -17.916000
21
Fragment
H -11.978200 -19.500400 -26.060800
H -11.687800 -21.875200 -26.086400
N -11.285900 -19.935100 -25.757100
C -11.074800 -21.258800 -25.757100
O -10.558300 -17.019900 -25.142700
C -10.164100 -19.358400 -25.223500
N -9.883600 -21.605200 -25.230200
C -9.853900 -18.017700 -24.933200
C -9.339200 -20.393800 -24.927800
H -8.927600 -15.999500 -23.722200
N -8.599200 -17.875600 -24.344500
C -8.162700 -16.525000 -23.966800
N -8.113100 -20.192100 -24.353900
H -7.715300 -16.114500 -24.710100
C -7.707900 -18.918100 -24.051500
H -7.676400 -21.860900 -23.331100
H -7.560900 -16.580300 -23.220900
C -7.246800 -21.326900 -24.003100
H -7.088000 -21.860900 -24.784000
O -6.620100 -18.696600 -23.521900
H -6.411200 -20.997400 -23.664400
38
Fragment
H -8.469000 -24.016900 -21.155100
O -7.685900 -23.530200 -20.604000
O -7.003600 -25.638300 -20.241100
C -6.824300 -24.427400 -20.168600
H -6.121400 -21.875200 -19.679300
C -5.596300 -23.835100 -19.578500
C -5.449300 -22.461700 -19.419900
H -4.684500 -25.609100 -19.351400
C -4.575700 -24.694400 -19.223700
C -4.278000 -22.000100 -18.866200
H -4.174600 -21.085500 -18.734500
C -3.387800 -24.218600 -18.680700
C -3.250100 -22.848000 -18.499300
H -2.562000 -25.976900 -18.211700
H -2.468800 -22.501500 -18.132400
N -2.373300 -25.094900 -18.387700
H -1.617600 -24.755500 -17.916000
H -11.978200 -19.500400 -26.060800
H -11.687800 -21.875200 -26.086400
N -11.285900 -19.935100 -25.757100
C -11.074800 -21.258800 -25.757100
O -10.558300 -17.019900 -25.142700
C -10.164100 -19.358400 -25.223500
N -9.883600 -21.605200 -25.230200
C -9.853900 -18.017700 -24.933200
C -9.339200 -20.393800 -24.927800
H -8.927600 -15.999500 -23.722200
N -8.599200 -17.875600 -24.344500
C -8.162700 -16.525000 -23.966800
N -8.113100 -20.192100 -24.353900
H -7.715300 -16.114500 -24.710100
C -7.707900 -18.918100 -24.051500
H -7.676400 -21.860900 -23.331100
H -7.560900 -16.580300 -23.220900
C -7.246800 -21.326900 -24.003100
H -7.088000 -21.860900 -24.784000
O -6.620100 -18.696600 -23.521900
H -6.411200 -20.997400 -23.664400
