17
Fragment
H -9.483900 -7.469800 -9.775700
H -9.171200 -7.598200 -11.232900
N -8.989200 -7.320500 -10.449900
C -7.802700 -6.706600 -10.270700
N -7.512700 -6.213200 -9.059700
N -6.888600 -6.918800 -12.654800
C -6.874700 -6.552200 -11.315100
H -6.749100 -5.070900 -7.103700
C -6.329100 -5.571300 -8.887700
N -6.083300 -5.136800 -7.628100
C -5.751500 -6.459400 -13.121200
C -5.706300 -5.878000 -11.011800
H -5.487400 -6.553800 -14.007700
H -5.463700 -4.559400 -7.554700
N -5.370600 -5.367900 -9.811200
N -4.992400 -5.831800 -12.176900
H -4.269700 -5.398800 -12.289000
17
Fragment
H -4.692500 -5.682100 -2.400200
N -3.969800 -5.249100 -2.512300
N -3.591700 -5.713000 -4.878000
H -3.498600 -6.521500 -7.134600
H -3.474800 -4.527100 -0.681600
C -3.255900 -5.202900 -3.677500
C -3.210800 -4.621600 -1.568100
N -2.878900 -5.944100 -7.061100
C -2.633100 -5.509600 -5.801500
H -2.213200 -6.010000 -7.585500
C -2.087600 -4.528800 -3.374100
N -2.073700 -4.162200 -2.034500
N -1.449500 -4.867700 -5.629600
C -1.159500 -4.374400 -4.418500
N 0.027000 -3.760400 -4.239300
H 0.208900 -3.482700 -3.456400
H 0.521600 -3.611100 -4.913600
34
Fragment
H -9.483900 -7.469800 -9.775700
H -9.171200 -7.598200 -11.232900
N -8.989200 -7.320500 -10.449900
C -7.802700 -6.706600 -10.270700
N -7.512700 -6.213200 -9.059700
N -6.888600 -6.918800 -12.654800
C -6.874700 -6.552200 -11.315100
H -6.749100 -5.070900 -7.103700
C -6.329100 -5.571300 -8.887700
N -6.083300 -5.136800 -7.628100
C -5.751500 -6.459400 -13.121200
C -5.706300 -5.878000 -11.011800
H -5.487400 -6.553800 -14.007700
H -5.463700 -4.559400 -7.554700
N -5.370600 -5.367900 -9.811200
N -4.992400 -5.831800 -12.176900
H -4.269700 -5.398800 -12.289000
H -4.692500 -5.682100 -2.400200
N -3.969800 -5.249100 -2.512300
N -3.591700 -5.713000 -4.878000
H -3.498600 -6.521500 -7.134600
H -3.474800 -4.527100 -0.681600
C -3.255900 -5.202900 -3.677500
C -3.210800 -4.621600 -1.568100
N -2.878900 -5.944100 -7.061100
C -2.633100 -5.509600 -5.801500
H -2.213200 -6.010000 -7.585500
C -2.087600 -4.528800 -3.374100
N -2.073700 -4.162200 -2.034500
N -1.449500 -4.867700 -5.629600
C -1.159500 -4.374400 -4.418500
N 0.027000 -3.760400 -4.239300
H 0.208900 -3.482700 -3.456400
H 0.521600 -3.611100 -4.913600
