17
Fragment
H -9.483900 -7.469800 -9.775700
H -9.171200 -7.598200 -11.232900
N -8.989200 -7.320500 -10.449900
C -7.802700 -6.706600 -10.270700
N -7.512700 -6.213200 -9.059700
N -6.888600 -6.918800 -12.654800
C -6.874700 -6.552200 -11.315100
H -6.749100 -5.070900 -7.103700
C -6.329100 -5.571300 -8.887700
N -6.083300 -5.136800 -7.628100
C -5.751500 -6.459400 -13.121200
C -5.706300 -5.878000 -11.011800
H -5.487400 -6.553800 -14.007700
H -5.463700 -4.559400 -7.554700
N -5.370600 -5.367900 -9.811200
N -4.992400 -5.831800 -12.176900
H -4.269700 -5.398800 -12.289000
3
Fragment
O -4.638100 -2.765800 -6.177600
H -4.371400 -3.518800 -5.886000
H -3.961200 -2.252500 -6.157700
20
Fragment
H -9.483900 -7.469800 -9.775700
H -9.171200 -7.598200 -11.232900
N -8.989200 -7.320500 -10.449900
C -7.802700 -6.706600 -10.270700
N -7.512700 -6.213200 -9.059700
N -6.888600 -6.918800 -12.654800
C -6.874700 -6.552200 -11.315100
H -6.749100 -5.070900 -7.103700
C -6.329100 -5.571300 -8.887700
N -6.083300 -5.136800 -7.628100
C -5.751500 -6.459400 -13.121200
C -5.706300 -5.878000 -11.011800
H -5.487400 -6.553800 -14.007700
H -5.463700 -4.559400 -7.554700
N -5.370600 -5.367900 -9.811200
N -4.992400 -5.831800 -12.176900
H -4.269700 -5.398800 -12.289000
O -4.638100 -2.765800 -6.177600
H -4.371400 -3.518800 -5.886000
H -3.961200 -2.252500 -6.157700
