17
Fragment
H -9.483900 -7.469800 -9.775700
H -9.171200 -7.598200 -11.232900
N -8.989200 -7.320500 -10.449900
C -7.802700 -6.706600 -10.270700
N -7.512700 -6.213200 -9.059700
N -6.888600 -6.918800 -12.654800
C -6.874700 -6.552200 -11.315100
H -6.749100 -5.070900 -7.103700
C -6.329100 -5.571300 -8.887700
N -6.083300 -5.136800 -7.628100
C -5.751500 -6.459400 -13.121200
C -5.706300 -5.878000 -11.011800
H -5.487400 -6.553800 -14.007700
H -5.463700 -4.559400 -7.554700
N -5.370600 -5.367900 -9.811200
N -4.992400 -5.831800 -12.176900
H -4.269700 -5.398800 -12.289000
17
Fragment
H -3.637100 -4.253200 -9.744800
N -2.914400 -3.820200 -9.856900
N -2.536200 -4.284100 -12.222600
H -2.443100 -5.092600 -14.479200
H -2.419400 -3.098200 -8.026200
C -2.200500 -3.774000 -11.022100
C -2.155300 -3.192700 -8.912700
N -1.823500 -4.515200 -14.405700
C -1.577700 -4.080700 -13.146100
H -1.157700 -4.581100 -14.930200
C -1.032100 -3.099900 -10.718700
N -1.018200 -2.733300 -9.379100
N -0.394100 -3.438900 -12.974200
C -0.104100 -2.945500 -11.763200
N 1.082400 -2.331500 -11.583900
H 1.264300 -2.053800 -10.801000
H 1.577100 -2.182200 -12.258200
34
Fragment
H -9.483900 -7.469800 -9.775700
H -9.171200 -7.598200 -11.232900
N -8.989200 -7.320500 -10.449900
C -7.802700 -6.706600 -10.270700
N -7.512700 -6.213200 -9.059700
N -6.888600 -6.918800 -12.654800
C -6.874700 -6.552200 -11.315100
H -6.749100 -5.070900 -7.103700
C -6.329100 -5.571300 -8.887700
N -6.083300 -5.136800 -7.628100
C -5.751500 -6.459400 -13.121200
C -5.706300 -5.878000 -11.011800
H -5.487400 -6.553800 -14.007700
H -5.463700 -4.559400 -7.554700
N -5.370600 -5.367900 -9.811200
N -4.992400 -5.831800 -12.176900
H -4.269700 -5.398800 -12.289000
H -3.637100 -4.253200 -9.744800
N -2.914400 -3.820200 -9.856900
N -2.536200 -4.284100 -12.222600
H -2.443100 -5.092600 -14.479200
H -2.419400 -3.098200 -8.026200
C -2.200500 -3.774000 -11.022100
C -2.155300 -3.192700 -8.912700
N -1.823500 -4.515200 -14.405700
C -1.577700 -4.080700 -13.146100
H -1.157700 -4.581100 -14.930200
C -1.032100 -3.099900 -10.718700
N -1.018200 -2.733300 -9.379100
N -0.394100 -3.438900 -12.974200
C -0.104100 -2.945500 -11.763200
N 1.082400 -2.331500 -11.583900
H 1.264300 -2.053800 -10.801000
H 1.577100 -2.182200 -12.258200
