19
Fragment
O -11.355800 -7.545000 -21.538000
O -10.531800 -8.673400 -23.131800
N -10.457300 -7.801800 -22.304700
H -10.246300 -5.262100 -22.161800
C -9.396300 -5.638700 -22.183800
C -9.233200 -7.006800 -22.237400
H -8.501000 -9.516100 -21.575100
H -8.346100 -3.913600 -22.143900
C -8.276400 -4.840300 -22.163200
C -8.013700 -7.644900 -22.207100
H -7.967900 -9.495500 -23.049400
C -7.847400 -9.136600 -22.167300
C -7.052000 -5.461300 -22.171400
H -6.966700 -9.351500 -21.852600
C -6.893200 -6.825300 -22.179600
H -6.041300 -7.198000 -22.167300
O -5.947100 -3.474000 -21.800400
N -5.847700 -4.614400 -22.181000
O -4.819500 -5.106100 -22.605600
36
Fragment
O -7.831900 -1.365100 -24.112900
O -7.300300 -0.976800 -22.069700
N -7.101700 -0.963000 -23.255500
O -7.038300 0.898500 -26.773000
H -6.249200 -0.868500 -25.594100
N -6.047600 1.498700 -26.455600
O -5.957000 3.189600 -23.942500
N -5.907000 -0.292400 -23.670500
O -5.717700 2.597300 -26.819800
O -5.692300 2.362600 -21.957100
C -5.522800 -0.460400 -25.077500
N -5.402700 2.489400 -23.123600
N -5.155900 0.811600 -25.621600
H -5.001900 -0.920300 -21.963900
C -4.742300 -0.608300 -22.857000
H -4.397900 -2.189000 -25.599600
N -4.299700 1.789000 -23.563300
C -4.253600 -1.377300 -25.069200
N -4.171300 -1.683900 -23.649900
C -4.088900 1.542600 -24.990900
H -3.896100 2.376000 -25.470500
C -3.814800 0.664400 -22.777300
H -3.646000 0.924800 -21.848500
N -3.127100 -0.621500 -25.562500
N -3.081000 -2.371100 -23.160700
O -2.853300 -2.237600 -21.979000
C -2.825200 0.621800 -24.920800
N -2.572000 0.390800 -23.483600
O -2.481600 -3.067700 -23.950800
O -2.469300 -2.307100 -26.841700
N -2.157800 -1.262600 -26.329200
H -2.055100 1.055300 -25.345400
O -1.463400 1.284700 -21.760600
N -1.444500 1.093400 -22.943600
O -1.123000 -0.667700 -26.476200
O -0.554100 1.347300 -23.721300
55
Fragment
O -11.355800 -7.545000 -21.538000
O -10.531800 -8.673400 -23.131800
N -10.457300 -7.801800 -22.304700
H -10.246300 -5.262100 -22.161800
C -9.396300 -5.638700 -22.183800
C -9.233200 -7.006800 -22.237400
H -8.501000 -9.516100 -21.575100
H -8.346100 -3.913600 -22.143900
C -8.276400 -4.840300 -22.163200
C -8.013700 -7.644900 -22.207100
H -7.967900 -9.495500 -23.049400
C -7.847400 -9.136600 -22.167300
C -7.052000 -5.461300 -22.171400
H -6.966700 -9.351500 -21.852600
C -6.893200 -6.825300 -22.179600
H -6.041300 -7.198000 -22.167300
O -5.947100 -3.474000 -21.800400
N -5.847700 -4.614400 -22.181000
O -4.819500 -5.106100 -22.605600
O -7.831900 -1.365100 -24.112900
O -7.300300 -0.976800 -22.069700
N -7.101700 -0.963000 -23.255500
O -7.038300 0.898500 -26.773000
H -6.249200 -0.868500 -25.594100
N -6.047600 1.498700 -26.455600
O -5.957000 3.189600 -23.942500
N -5.907000 -0.292400 -23.670500
O -5.717700 2.597300 -26.819800
O -5.692300 2.362600 -21.957100
C -5.522800 -0.460400 -25.077500
N -5.402700 2.489400 -23.123600
N -5.155900 0.811600 -25.621600
H -5.001900 -0.920300 -21.963900
C -4.742300 -0.608300 -22.857000
H -4.397900 -2.189000 -25.599600
N -4.299700 1.789000 -23.563300
C -4.253600 -1.377300 -25.069200
N -4.171300 -1.683900 -23.649900
C -4.088900 1.542600 -24.990900
H -3.896100 2.376000 -25.470500
C -3.814800 0.664400 -22.777300
H -3.646000 0.924800 -21.848500
N -3.127100 -0.621500 -25.562500
N -3.081000 -2.371100 -23.160700
O -2.853300 -2.237600 -21.979000
C -2.825200 0.621800 -24.920800
N -2.572000 0.390800 -23.483600
O -2.481600 -3.067700 -23.950800
O -2.469300 -2.307100 -26.841700
N -2.157800 -1.262600 -26.329200
H -2.055100 1.055300 -25.345400
O -1.463400 1.284700 -21.760600
N -1.444500 1.093400 -22.943600
O -1.123000 -0.667700 -26.476200
O -0.554100 1.347300 -23.721300
