19
Fragment
O -11.355800 -7.545000 -21.538000
O -10.531800 -8.673400 -23.131800
N -10.457300 -7.801800 -22.304700
H -10.246300 -5.262100 -22.161800
C -9.396300 -5.638700 -22.183800
C -9.233200 -7.006800 -22.237400
H -8.501000 -9.516100 -21.575100
H -8.346100 -3.913600 -22.143900
C -8.276400 -4.840300 -22.163200
C -8.013700 -7.644900 -22.207100
H -7.967900 -9.495500 -23.049400
C -7.847400 -9.136600 -22.167300
C -7.052000 -5.461300 -22.171400
H -6.966700 -9.351500 -21.852600
C -6.893200 -6.825300 -22.179600
H -6.041300 -7.198000 -22.167300
O -5.947100 -3.474000 -21.800400
N -5.847700 -4.614400 -22.181000
O -4.819500 -5.106100 -22.605600
36
Fragment
O -6.972700 -14.949900 -24.112900
O -6.441100 -14.561700 -22.069700
N -6.242500 -14.547900 -23.255500
O -6.179100 -12.686300 -26.773000
H -5.390000 -14.453300 -25.594100
N -5.188400 -12.086100 -26.455600
O -5.097800 -10.395200 -23.942500
N -5.047800 -13.877300 -23.670500
O -4.858500 -10.987500 -26.819800
O -4.833000 -11.222300 -21.957100
C -4.663600 -14.045300 -25.077500
N -4.543500 -11.095500 -23.123600
N -4.296700 -12.773300 -25.621600
H -4.142700 -14.505200 -21.963900
C -3.883100 -14.193100 -22.857000
H -3.538700 -15.773800 -25.599600
N -3.440500 -11.795900 -23.563300
C -3.394400 -14.962100 -25.069200
N -3.312100 -15.268700 -23.649900
C -3.229700 -12.042300 -24.990900
H -3.036900 -11.208900 -25.470500
C -2.955500 -12.920500 -22.777300
H -2.786800 -12.660100 -21.848500
N -2.267900 -14.206300 -25.562500
N -2.221800 -15.956000 -23.160700
O -1.994100 -15.822400 -21.979000
C -1.966000 -12.963000 -24.920800
N -1.712800 -13.194000 -23.483600
O -1.622400 -16.652500 -23.950800
O -1.610100 -15.892000 -26.841700
N -1.298600 -14.847500 -26.329200
H -1.195900 -12.529600 -25.345400
O -0.604200 -12.300200 -21.760600
N -0.585300 -12.491500 -22.943600
O -0.263800 -14.252500 -26.476200
O 0.305100 -12.237600 -23.721300
55
Fragment
O -11.355800 -7.545000 -21.538000
O -10.531800 -8.673400 -23.131800
N -10.457300 -7.801800 -22.304700
H -10.246300 -5.262100 -22.161800
C -9.396300 -5.638700 -22.183800
C -9.233200 -7.006800 -22.237400
H -8.501000 -9.516100 -21.575100
H -8.346100 -3.913600 -22.143900
C -8.276400 -4.840300 -22.163200
C -8.013700 -7.644900 -22.207100
H -7.967900 -9.495500 -23.049400
C -7.847400 -9.136600 -22.167300
C -7.052000 -5.461300 -22.171400
H -6.966700 -9.351500 -21.852600
C -6.893200 -6.825300 -22.179600
H -6.041300 -7.198000 -22.167300
O -5.947100 -3.474000 -21.800400
N -5.847700 -4.614400 -22.181000
O -4.819500 -5.106100 -22.605600
O -6.972700 -14.949900 -24.112900
O -6.441100 -14.561700 -22.069700
N -6.242500 -14.547900 -23.255500
O -6.179100 -12.686300 -26.773000
H -5.390000 -14.453300 -25.594100
N -5.188400 -12.086100 -26.455600
O -5.097800 -10.395200 -23.942500
N -5.047800 -13.877300 -23.670500
O -4.858500 -10.987500 -26.819800
O -4.833000 -11.222300 -21.957100
C -4.663600 -14.045300 -25.077500
N -4.543500 -11.095500 -23.123600
N -4.296700 -12.773300 -25.621600
H -4.142700 -14.505200 -21.963900
C -3.883100 -14.193100 -22.857000
H -3.538700 -15.773800 -25.599600
N -3.440500 -11.795900 -23.563300
C -3.394400 -14.962100 -25.069200
N -3.312100 -15.268700 -23.649900
C -3.229700 -12.042300 -24.990900
H -3.036900 -11.208900 -25.470500
C -2.955500 -12.920500 -22.777300
H -2.786800 -12.660100 -21.848500
N -2.267900 -14.206300 -25.562500
N -2.221800 -15.956000 -23.160700
O -1.994100 -15.822400 -21.979000
C -1.966000 -12.963000 -24.920800
N -1.712800 -13.194000 -23.483600
O -1.622400 -16.652500 -23.950800
O -1.610100 -15.892000 -26.841700
N -1.298600 -14.847500 -26.329200
H -1.195900 -12.529600 -25.345400
O -0.604200 -12.300200 -21.760600
N -0.585300 -12.491500 -22.943600
O -0.263800 -14.252500 -26.476200
O 0.305100 -12.237600 -23.721300
