3
Fragment
H -13.747500 -13.655700 -12.235000
H -13.191100 -12.865500 -13.375100
O -13.079100 -13.537900 -12.755900
3
Fragment
O -16.152100 -11.449600 -13.555800
H -16.040200 -12.121900 -12.936600
H -15.483700 -11.331700 -14.076800
6
Fragment
H -13.747500 -13.655700 -12.235000
H -13.191100 -12.865500 -13.375100
O -13.079100 -13.537900 -12.755900
O -16.152100 -11.449600 -13.555800
H -16.040200 -12.121900 -12.936600
H -15.483700 -11.331700 -14.076800
