3
Fragment
H -13.747500 -13.655700 -12.235000
H -13.191100 -12.865500 -13.375100
O -13.079100 -13.537900 -12.755900
25
Fragment
H -15.663400 -8.993400 -10.308900
C -14.702600 -8.997700 -10.173900
H -14.563700 -11.058500 -10.060700
H -14.507400 -8.841000 -9.236300
H -14.358000 -10.517700 -11.533300
H -14.297100 -8.298600 -10.709800
C -14.134700 -10.356900 -10.593100
H -13.802800 -10.912100 -8.200500
O -13.117300 -11.378100 -5.940300
N -12.928000 -10.917200 -8.158400
N -12.685400 -10.453800 -10.426500
H -12.467800 -8.301400 -12.024500
C -12.403400 -11.165600 -6.906000
H -12.263500 -10.602800 -12.393700
C -12.111700 -10.692900 -9.247700
C -11.840500 -10.198400 -11.607000
C -11.614600 -8.738100 -11.874500
H -11.174300 -8.334000 -11.110600
H -11.056400 -8.636200 -12.661200
N -11.052900 -11.144300 -6.856000
H -10.972400 -10.634500 -11.477200
N -10.796100 -10.724200 -9.163500
H -10.582500 -11.268400 -6.078000
C -10.225900 -10.952200 -7.957500
O -9.015900 -11.008700 -7.772500
28
Fragment
H -13.747500 -13.655700 -12.235000
H -13.191100 -12.865500 -13.375100
O -13.079100 -13.537900 -12.755900
H -15.663400 -8.993400 -10.308900
C -14.702600 -8.997700 -10.173900
H -14.563700 -11.058500 -10.060700
H -14.507400 -8.841000 -9.236300
H -14.358000 -10.517700 -11.533300
H -14.297100 -8.298600 -10.709800
C -14.134700 -10.356900 -10.593100
H -13.802800 -10.912100 -8.200500
O -13.117300 -11.378100 -5.940300
N -12.928000 -10.917200 -8.158400
N -12.685400 -10.453800 -10.426500
H -12.467800 -8.301400 -12.024500
C -12.403400 -11.165600 -6.906000
H -12.263500 -10.602800 -12.393700
C -12.111700 -10.692900 -9.247700
C -11.840500 -10.198400 -11.607000
C -11.614600 -8.738100 -11.874500
H -11.174300 -8.334000 -11.110600
H -11.056400 -8.636200 -12.661200
N -11.052900 -11.144300 -6.856000
H -10.972400 -10.634500 -11.477200
N -10.796100 -10.724200 -9.163500
H -10.582500 -11.268400 -6.078000
C -10.225900 -10.952200 -7.957500
O -9.015900 -11.008700 -7.772500
