36
Fragment
H -5.707000 -33.733000 -30.435200
H -5.698600 -31.807400 -29.268400
C -5.677300 -33.765800 -29.505600
C -5.674400 -32.615800 -28.807300
C -5.636900 -32.599200 -27.398900
C -5.633900 -35.041000 -28.850800
H -5.632300 -36.257500 -30.473500
H -5.632000 -30.582900 -27.075900
C -5.620100 -31.400800 -26.633700
C -5.611700 -36.260600 -29.543000
C -5.608500 -33.837000 -26.705700
C -5.608100 -35.060300 -27.429500
C -5.585500 -31.418300 -25.278500
C -5.584600 -33.851000 -25.280100
C -5.578500 -36.297200 -26.730500
C -5.575800 -35.090000 -24.581300
C -5.575800 -32.633300 -24.553700
H -5.570800 -33.877200 -21.540200
C -5.569400 -35.108800 -23.162000
C -5.568800 -36.314300 -25.303500
C -5.568800 -33.876300 -22.471000
H -5.566900 -30.611700 -24.814800
C -5.566300 -32.692300 -23.130800
C -5.561800 -37.440600 -28.887500
H -5.558000 -31.900600 -22.642500
C -5.550600 -37.515400 -27.454100
C -5.548100 -36.382200 -22.513900
H -5.545200 -36.415000 -21.584500
C -5.543300 -37.555500 -24.619600
H -5.533900 -38.229700 -29.379200
C -5.531500 -37.547500 -23.212800
C -5.513600 -38.728400 -26.750200
H -5.511500 -38.356100 -22.753300
C -5.503900 -38.757700 -25.404300
H -5.495300 -39.529700 -27.223000
H -5.471000 -39.580700 -24.970000
36
Fragment
H -3.284500 -32.819000 -40.511000
H -3.276100 -34.744600 -39.344200
C -3.254800 -32.786200 -39.581400
C -3.251900 -33.936200 -38.883200
C -3.214400 -33.952800 -37.474800
C -3.211300 -31.511000 -38.926700
H -3.209700 -30.294500 -40.549300
H -3.209400 -35.969100 -37.151700
C -3.197600 -35.151200 -36.709600
C -3.189200 -30.291400 -39.618900
C -3.185900 -32.715000 -36.781500
C -3.185600 -31.491700 -37.505400
C -3.162900 -35.133700 -35.354400
C -3.162100 -32.701000 -35.356000
C -3.155900 -30.254800 -36.806300
C -3.153200 -33.918700 -34.629500
C -3.153200 -31.462000 -34.657200
H -3.148200 -32.674800 -31.616100
C -3.146900 -31.443200 -33.237900
C -3.146300 -32.675700 -32.546900
C -3.146200 -30.237700 -35.379400
H -3.144400 -35.940300 -34.890700
C -3.143700 -33.859700 -33.206600
C -3.139300 -29.111400 -38.963400
H -3.135400 -34.651400 -32.718400
C -3.128100 -29.036600 -37.530000
C -3.125500 -30.169800 -32.589800
H -3.122700 -30.137000 -31.660400
C -3.120800 -28.996500 -34.695400
H -3.111400 -28.322300 -39.455100
C -3.108900 -29.004500 -33.288600
C -3.091100 -27.823600 -36.826100
H -3.088900 -28.195900 -32.829200
C -3.081400 -27.794300 -35.480100
H -3.072800 -27.022300 -37.298800
H -3.048500 -26.971300 -35.045900
72
Fragment
H -5.707000 -33.733000 -30.435200
H -5.698600 -31.807400 -29.268400
C -5.677300 -33.765800 -29.505600
C -5.674400 -32.615800 -28.807300
C -5.636900 -32.599200 -27.398900
C -5.633900 -35.041000 -28.850800
H -5.632300 -36.257500 -30.473500
H -5.632000 -30.582900 -27.075900
C -5.620100 -31.400800 -26.633700
C -5.611700 -36.260600 -29.543000
C -5.608500 -33.837000 -26.705700
C -5.608100 -35.060300 -27.429500
C -5.585500 -31.418300 -25.278500
C -5.584600 -33.851000 -25.280100
C -5.578500 -36.297200 -26.730500
C -5.575800 -35.090000 -24.581300
C -5.575800 -32.633300 -24.553700
H -5.570800 -33.877200 -21.540200
C -5.569400 -35.108800 -23.162000
C -5.568800 -36.314300 -25.303500
C -5.568800 -33.876300 -22.471000
H -5.566900 -30.611700 -24.814800
C -5.566300 -32.692300 -23.130800
C -5.561800 -37.440600 -28.887500
H -5.558000 -31.900600 -22.642500
C -5.550600 -37.515400 -27.454100
C -5.548100 -36.382200 -22.513900
H -5.545200 -36.415000 -21.584500
C -5.543300 -37.555500 -24.619600
H -5.533900 -38.229700 -29.379200
C -5.531500 -37.547500 -23.212800
C -5.513600 -38.728400 -26.750200
H -5.511500 -38.356100 -22.753300
C -5.503900 -38.757700 -25.404300
H -5.495300 -39.529700 -27.223000
H -5.471000 -39.580700 -24.970000
H -3.284500 -32.819000 -40.511000
H -3.276100 -34.744600 -39.344200
C -3.254800 -32.786200 -39.581400
C -3.251900 -33.936200 -38.883200
C -3.214400 -33.952800 -37.474800
C -3.211300 -31.511000 -38.926700
H -3.209700 -30.294500 -40.549300
H -3.209400 -35.969100 -37.151700
C -3.197600 -35.151200 -36.709600
C -3.189200 -30.291400 -39.618900
C -3.185900 -32.715000 -36.781500
C -3.185600 -31.491700 -37.505400
C -3.162900 -35.133700 -35.354400
C -3.162100 -32.701000 -35.356000
C -3.155900 -30.254800 -36.806300
C -3.153200 -33.918700 -34.629500
C -3.153200 -31.462000 -34.657200
H -3.148200 -32.674800 -31.616100
C -3.146900 -31.443200 -33.237900
C -3.146300 -32.675700 -32.546900
C -3.146200 -30.237700 -35.379400
H -3.144400 -35.940300 -34.890700
C -3.143700 -33.859700 -33.206600
C -3.139300 -29.111400 -38.963400
H -3.135400 -34.651400 -32.718400
C -3.128100 -29.036600 -37.530000
C -3.125500 -30.169800 -32.589800
H -3.122700 -30.137000 -31.660400
C -3.120800 -28.996500 -34.695400
H -3.111400 -28.322300 -39.455100
C -3.108900 -29.004500 -33.288600
C -3.091100 -27.823600 -36.826100
H -3.088900 -28.195900 -32.829200
C -3.081400 -27.794300 -35.480100
H -3.072800 -27.022300 -37.298800
H -3.048500 -26.971300 -35.045900
