36
Fragment
H -5.707000 -33.733000 -30.435200
H -5.698600 -31.807400 -29.268400
C -5.677300 -33.765800 -29.505600
C -5.674400 -32.615800 -28.807300
C -5.636900 -32.599200 -27.398900
C -5.633900 -35.041000 -28.850800
H -5.632300 -36.257500 -30.473500
H -5.632000 -30.582900 -27.075900
C -5.620100 -31.400800 -26.633700
C -5.611700 -36.260600 -29.543000
C -5.608500 -33.837000 -26.705700
C -5.608100 -35.060300 -27.429500
C -5.585500 -31.418300 -25.278500
C -5.584600 -33.851000 -25.280100
C -5.578500 -36.297200 -26.730500
C -5.575800 -35.090000 -24.581300
C -5.575800 -32.633300 -24.553700
H -5.570800 -33.877200 -21.540200
C -5.569400 -35.108800 -23.162000
C -5.568800 -36.314300 -25.303500
C -5.568800 -33.876300 -22.471000
H -5.566900 -30.611700 -24.814800
C -5.566300 -32.692300 -23.130800
C -5.561800 -37.440600 -28.887500
H -5.558000 -31.900600 -22.642500
C -5.550600 -37.515400 -27.454100
C -5.548100 -36.382200 -22.513900
H -5.545200 -36.415000 -21.584500
C -5.543300 -37.555500 -24.619600
H -5.533900 -38.229700 -29.379200
C -5.531500 -37.547500 -23.212800
C -5.513600 -38.728400 -26.750200
H -5.511500 -38.356100 -22.753300
C -5.503900 -38.757700 -25.404300
H -5.495300 -39.529700 -27.223000
H -5.471000 -39.580700 -24.970000
36
Fragment
H -7.240100 -28.488700 -25.409300
H -7.215800 -28.437700 -23.156400
C -7.207200 -27.665700 -24.975100
H -7.199600 -27.264100 -27.626000
C -7.197400 -27.636400 -23.629100
C -7.179600 -26.455500 -27.166600
H -7.177100 -27.137700 -21.000100
C -7.167700 -26.463500 -25.759800
H -7.165800 -25.323000 -28.794800
C -7.163000 -25.290200 -27.865400
C -7.160400 -26.423400 -22.925200
H -7.153100 -20.808600 -27.736800
C -7.149300 -26.348600 -21.491800
C -7.144800 -21.600300 -27.248600
H -7.144200 -19.519700 -25.564500
C -7.142300 -25.222300 -25.075800
C -7.142300 -22.784300 -27.908300
C -7.141700 -24.016800 -27.217300
H -7.140300 -22.785200 -28.839100
C -7.135300 -23.998000 -25.798000
C -7.135300 -21.541300 -25.825700
C -7.132600 -25.205200 -23.648900
C -7.126500 -22.759000 -25.099200
C -7.125600 -20.326300 -25.100800
C -7.103000 -23.968300 -22.949800
C -7.102600 -22.745000 -23.673700
C -7.099400 -25.168600 -20.836300
C -7.091000 -20.308800 -23.745600
H -7.079100 -19.490900 -23.303500
H -7.078800 -25.165500 -19.905900
C -7.077200 -23.949000 -21.528500
C -7.074200 -21.507200 -22.980400
C -7.036700 -21.523800 -21.572000
C -7.033800 -22.673800 -20.873800
H -7.012500 -20.715400 -21.111000
H -7.004100 -22.641000 -19.944200
72
Fragment
H -5.707000 -33.733000 -30.435200
H -5.698600 -31.807400 -29.268400
C -5.677300 -33.765800 -29.505600
C -5.674400 -32.615800 -28.807300
C -5.636900 -32.599200 -27.398900
C -5.633900 -35.041000 -28.850800
H -5.632300 -36.257500 -30.473500
H -5.632000 -30.582900 -27.075900
C -5.620100 -31.400800 -26.633700
C -5.611700 -36.260600 -29.543000
C -5.608500 -33.837000 -26.705700
C -5.608100 -35.060300 -27.429500
C -5.585500 -31.418300 -25.278500
C -5.584600 -33.851000 -25.280100
C -5.578500 -36.297200 -26.730500
C -5.575800 -35.090000 -24.581300
C -5.575800 -32.633300 -24.553700
H -5.570800 -33.877200 -21.540200
C -5.569400 -35.108800 -23.162000
C -5.568800 -36.314300 -25.303500
C -5.568800 -33.876300 -22.471000
H -5.566900 -30.611700 -24.814800
C -5.566300 -32.692300 -23.130800
C -5.561800 -37.440600 -28.887500
H -5.558000 -31.900600 -22.642500
C -5.550600 -37.515400 -27.454100
C -5.548100 -36.382200 -22.513900
H -5.545200 -36.415000 -21.584500
C -5.543300 -37.555500 -24.619600
H -5.533900 -38.229700 -29.379200
C -5.531500 -37.547500 -23.212800
C -5.513600 -38.728400 -26.750200
H -5.511500 -38.356100 -22.753300
C -5.503900 -38.757700 -25.404300
H -5.495300 -39.529700 -27.223000
H -5.471000 -39.580700 -24.970000
H -7.240100 -28.488700 -25.409300
H -7.215800 -28.437700 -23.156400
C -7.207200 -27.665700 -24.975100
H -7.199600 -27.264100 -27.626000
C -7.197400 -27.636400 -23.629100
C -7.179600 -26.455500 -27.166600
H -7.177100 -27.137700 -21.000100
C -7.167700 -26.463500 -25.759800
H -7.165800 -25.323000 -28.794800
C -7.163000 -25.290200 -27.865400
C -7.160400 -26.423400 -22.925200
H -7.153100 -20.808600 -27.736800
C -7.149300 -26.348600 -21.491800
C -7.144800 -21.600300 -27.248600
H -7.144200 -19.519700 -25.564500
C -7.142300 -25.222300 -25.075800
C -7.142300 -22.784300 -27.908300
C -7.141700 -24.016800 -27.217300
H -7.140300 -22.785200 -28.839100
C -7.135300 -23.998000 -25.798000
C -7.135300 -21.541300 -25.825700
C -7.132600 -25.205200 -23.648900
C -7.126500 -22.759000 -25.099200
C -7.125600 -20.326300 -25.100800
C -7.103000 -23.968300 -22.949800
C -7.102600 -22.745000 -23.673700
C -7.099400 -25.168600 -20.836300
C -7.091000 -20.308800 -23.745600
H -7.079100 -19.490900 -23.303500
H -7.078800 -25.165500 -19.905900
C -7.077200 -23.949000 -21.528500
C -7.074200 -21.507200 -22.980400
C -7.036700 -21.523800 -21.572000
C -7.033800 -22.673800 -20.873800
H -7.012500 -20.715400 -21.111000
H -7.004100 -22.641000 -19.944200
