36
Fragment
H -5.707000 -33.733000 -30.435200
H -5.698600 -31.807400 -29.268400
C -5.677300 -33.765800 -29.505600
C -5.674400 -32.615800 -28.807300
C -5.636900 -32.599200 -27.398900
C -5.633900 -35.041000 -28.850800
H -5.632300 -36.257500 -30.473500
H -5.632000 -30.582900 -27.075900
C -5.620100 -31.400800 -26.633700
C -5.611700 -36.260600 -29.543000
C -5.608500 -33.837000 -26.705700
C -5.608100 -35.060300 -27.429500
C -5.585500 -31.418300 -25.278500
C -5.584600 -33.851000 -25.280100
C -5.578500 -36.297200 -26.730500
C -5.575800 -35.090000 -24.581300
C -5.575800 -32.633300 -24.553700
H -5.570800 -33.877200 -21.540200
C -5.569400 -35.108800 -23.162000
C -5.568800 -36.314300 -25.303500
C -5.568800 -33.876300 -22.471000
H -5.566900 -30.611700 -24.814800
C -5.566300 -32.692300 -23.130800
C -5.561800 -37.440600 -28.887500
H -5.558000 -31.900600 -22.642500
C -5.550600 -37.515400 -27.454100
C -5.548100 -36.382200 -22.513900
H -5.545200 -36.415000 -21.584500
C -5.543300 -37.555500 -24.619600
H -5.533900 -38.229700 -29.379200
C -5.531500 -37.547500 -23.212800
C -5.513600 -38.728400 -26.750200
H -5.511500 -38.356100 -22.753300
C -5.503900 -38.757700 -25.404300
H -5.495300 -39.529700 -27.223000
H -5.471000 -39.580700 -24.970000
30
Fragment
N -7.184700 -25.668700 -31.348600
C -6.906900 -26.633000 -31.901800
C -6.630300 -27.878900 -32.593400
N -6.568000 -35.990700 -37.326900
N -6.565600 -27.829400 -33.915800
C -6.509300 -29.091900 -31.875600
C -6.502600 -35.016600 -36.724700
C -6.468200 -29.059700 -30.425300
C -6.449500 -29.020000 -34.536600
N -6.448900 -32.652400 -36.682000
C -6.441600 -33.775400 -35.974100
N -6.428200 -28.968500 -41.244400
C -6.426800 -31.506800 -35.973700
C -6.422700 -30.239000 -33.825100
N -6.419400 -30.272300 -38.053900
N -6.411400 -30.272300 -32.477100
C -6.408000 -30.239000 -36.706000
C -6.403900 -31.506800 -34.557400
N -6.402600 -28.968500 -29.286700
C -6.389100 -33.775400 -34.557000
N -6.381900 -32.652400 -33.849100
C -6.381200 -29.020000 -35.994400
C -6.362500 -29.059700 -40.105800
C -6.328100 -35.016600 -33.806300
C -6.321400 -29.091900 -38.655500
N -6.265100 -27.829400 -36.615300
N -6.262800 -35.990700 -33.204200
C -6.200500 -27.878900 -37.937700
C -5.923900 -26.633000 -38.629300
N -5.646000 -25.668700 -39.182400
66
Fragment
H -5.707000 -33.733000 -30.435200
H -5.698600 -31.807400 -29.268400
C -5.677300 -33.765800 -29.505600
C -5.674400 -32.615800 -28.807300
C -5.636900 -32.599200 -27.398900
C -5.633900 -35.041000 -28.850800
H -5.632300 -36.257500 -30.473500
H -5.632000 -30.582900 -27.075900
C -5.620100 -31.400800 -26.633700
C -5.611700 -36.260600 -29.543000
C -5.608500 -33.837000 -26.705700
C -5.608100 -35.060300 -27.429500
C -5.585500 -31.418300 -25.278500
C -5.584600 -33.851000 -25.280100
C -5.578500 -36.297200 -26.730500
C -5.575800 -35.090000 -24.581300
C -5.575800 -32.633300 -24.553700
H -5.570800 -33.877200 -21.540200
C -5.569400 -35.108800 -23.162000
C -5.568800 -36.314300 -25.303500
C -5.568800 -33.876300 -22.471000
H -5.566900 -30.611700 -24.814800
C -5.566300 -32.692300 -23.130800
C -5.561800 -37.440600 -28.887500
H -5.558000 -31.900600 -22.642500
C -5.550600 -37.515400 -27.454100
C -5.548100 -36.382200 -22.513900
H -5.545200 -36.415000 -21.584500
C -5.543300 -37.555500 -24.619600
H -5.533900 -38.229700 -29.379200
C -5.531500 -37.547500 -23.212800
C -5.513600 -38.728400 -26.750200
H -5.511500 -38.356100 -22.753300
C -5.503900 -38.757700 -25.404300
H -5.495300 -39.529700 -27.223000
H -5.471000 -39.580700 -24.970000
N -7.184700 -25.668700 -31.348600
C -6.906900 -26.633000 -31.901800
C -6.630300 -27.878900 -32.593400
N -6.568000 -35.990700 -37.326900
N -6.565600 -27.829400 -33.915800
C -6.509300 -29.091900 -31.875600
C -6.502600 -35.016600 -36.724700
C -6.468200 -29.059700 -30.425300
C -6.449500 -29.020000 -34.536600
N -6.448900 -32.652400 -36.682000
C -6.441600 -33.775400 -35.974100
N -6.428200 -28.968500 -41.244400
C -6.426800 -31.506800 -35.973700
C -6.422700 -30.239000 -33.825100
N -6.419400 -30.272300 -38.053900
N -6.411400 -30.272300 -32.477100
C -6.408000 -30.239000 -36.706000
C -6.403900 -31.506800 -34.557400
N -6.402600 -28.968500 -29.286700
C -6.389100 -33.775400 -34.557000
N -6.381900 -32.652400 -33.849100
C -6.381200 -29.020000 -35.994400
C -6.362500 -29.059700 -40.105800
C -6.328100 -35.016600 -33.806300
C -6.321400 -29.091900 -38.655500
N -6.265100 -27.829400 -36.615300
N -6.262800 -35.990700 -33.204200
C -6.200500 -27.878900 -37.937700
C -5.923900 -26.633000 -38.629300
N -5.646000 -25.668700 -39.182400
