36
Fragment
H -5.707000 -33.733000 -30.435200
H -5.698600 -31.807400 -29.268400
C -5.677300 -33.765800 -29.505600
C -5.674400 -32.615800 -28.807300
C -5.636900 -32.599200 -27.398900
C -5.633900 -35.041000 -28.850800
H -5.632300 -36.257500 -30.473500
H -5.632000 -30.582900 -27.075900
C -5.620100 -31.400800 -26.633700
C -5.611700 -36.260600 -29.543000
C -5.608500 -33.837000 -26.705700
C -5.608100 -35.060300 -27.429500
C -5.585500 -31.418300 -25.278500
C -5.584600 -33.851000 -25.280100
C -5.578500 -36.297200 -26.730500
C -5.575800 -35.090000 -24.581300
C -5.575800 -32.633300 -24.553700
H -5.570800 -33.877200 -21.540200
C -5.569400 -35.108800 -23.162000
C -5.568800 -36.314300 -25.303500
C -5.568800 -33.876300 -22.471000
H -5.566900 -30.611700 -24.814800
C -5.566300 -32.692300 -23.130800
C -5.561800 -37.440600 -28.887500
H -5.558000 -31.900600 -22.642500
C -5.550600 -37.515400 -27.454100
C -5.548100 -36.382200 -22.513900
H -5.545200 -36.415000 -21.584500
C -5.543300 -37.555500 -24.619600
H -5.533900 -38.229700 -29.379200
C -5.531500 -37.547500 -23.212800
C -5.513600 -38.728400 -26.750200
H -5.511500 -38.356100 -22.753300
C -5.503900 -38.757700 -25.404300
H -5.495300 -39.529700 -27.223000
H -5.471000 -39.580700 -24.970000
36
Fragment
H -8.129500 -32.819000 -20.359300
H -8.121100 -34.744600 -19.192500
C -8.099900 -32.786200 -19.429700
C -8.096900 -33.936200 -18.731400
C -8.059400 -33.952800 -17.323000
C -8.056400 -31.511000 -18.775000
H -8.054800 -30.294500 -20.397600
H -8.054500 -35.969100 -17.000000
C -8.042600 -35.151200 -16.557900
C -8.034200 -30.291400 -19.467200
C -8.031000 -32.715000 -16.629800
C -8.030600 -31.491700 -17.353700
C -8.008000 -35.133700 -15.202700
C -8.007100 -32.701000 -15.204300
C -8.001000 -30.254800 -16.654600
C -7.998300 -33.918700 -14.477800
C -7.998300 -31.462000 -14.505400
H -7.993300 -32.674800 -11.464300
C -7.991900 -31.443200 -13.086100
C -7.991300 -32.675700 -12.395100
C -7.991300 -30.237700 -15.227700
H -7.989400 -35.940300 -14.739000
C -7.988800 -33.859700 -13.054900
C -7.984300 -29.111400 -18.811600
H -7.980500 -34.651400 -12.566600
C -7.973200 -29.036600 -17.378300
C -7.970600 -30.169800 -12.438100
H -7.967800 -30.137000 -11.508700
C -7.965900 -28.996500 -14.543700
H -7.956500 -28.322300 -19.303300
C -7.954000 -29.004500 -13.136900
C -7.936200 -27.823600 -16.674400
H -7.934000 -28.195900 -12.677500
C -7.926500 -27.794300 -15.328400
H -7.917800 -27.022300 -17.147100
H -7.893500 -26.971300 -14.894100
72
Fragment
H -5.707000 -33.733000 -30.435200
H -5.698600 -31.807400 -29.268400
C -5.677300 -33.765800 -29.505600
C -5.674400 -32.615800 -28.807300
C -5.636900 -32.599200 -27.398900
C -5.633900 -35.041000 -28.850800
H -5.632300 -36.257500 -30.473500
H -5.632000 -30.582900 -27.075900
C -5.620100 -31.400800 -26.633700
C -5.611700 -36.260600 -29.543000
C -5.608500 -33.837000 -26.705700
C -5.608100 -35.060300 -27.429500
C -5.585500 -31.418300 -25.278500
C -5.584600 -33.851000 -25.280100
C -5.578500 -36.297200 -26.730500
C -5.575800 -35.090000 -24.581300
C -5.575800 -32.633300 -24.553700
H -5.570800 -33.877200 -21.540200
C -5.569400 -35.108800 -23.162000
C -5.568800 -36.314300 -25.303500
C -5.568800 -33.876300 -22.471000
H -5.566900 -30.611700 -24.814800
C -5.566300 -32.692300 -23.130800
C -5.561800 -37.440600 -28.887500
H -5.558000 -31.900600 -22.642500
C -5.550600 -37.515400 -27.454100
C -5.548100 -36.382200 -22.513900
H -5.545200 -36.415000 -21.584500
C -5.543300 -37.555500 -24.619600
H -5.533900 -38.229700 -29.379200
C -5.531500 -37.547500 -23.212800
C -5.513600 -38.728400 -26.750200
H -5.511500 -38.356100 -22.753300
C -5.503900 -38.757700 -25.404300
H -5.495300 -39.529700 -27.223000
H -5.471000 -39.580700 -24.970000
H -8.129500 -32.819000 -20.359300
H -8.121100 -34.744600 -19.192500
C -8.099900 -32.786200 -19.429700
C -8.096900 -33.936200 -18.731400
C -8.059400 -33.952800 -17.323000
C -8.056400 -31.511000 -18.775000
H -8.054800 -30.294500 -20.397600
H -8.054500 -35.969100 -17.000000
C -8.042600 -35.151200 -16.557900
C -8.034200 -30.291400 -19.467200
C -8.031000 -32.715000 -16.629800
C -8.030600 -31.491700 -17.353700
C -8.008000 -35.133700 -15.202700
C -8.007100 -32.701000 -15.204300
C -8.001000 -30.254800 -16.654600
C -7.998300 -33.918700 -14.477800
C -7.998300 -31.462000 -14.505400
H -7.993300 -32.674800 -11.464300
C -7.991900 -31.443200 -13.086100
C -7.991300 -32.675700 -12.395100
C -7.991300 -30.237700 -15.227700
H -7.989400 -35.940300 -14.739000
C -7.988800 -33.859700 -13.054900
C -7.984300 -29.111400 -18.811600
H -7.980500 -34.651400 -12.566600
C -7.973200 -29.036600 -17.378300
C -7.970600 -30.169800 -12.438100
H -7.967800 -30.137000 -11.508700
C -7.965900 -28.996500 -14.543700
H -7.956500 -28.322300 -19.303300
C -7.954000 -29.004500 -13.136900
C -7.936200 -27.823600 -16.674400
H -7.934000 -28.195900 -12.677500
C -7.926500 -27.794300 -15.328400
H -7.917800 -27.022300 -17.147100
H -7.893500 -26.971300 -14.894100
