36
Fragment
H -5.707000 -33.733000 -30.435200
H -5.698600 -31.807400 -29.268400
C -5.677300 -33.765800 -29.505600
C -5.674400 -32.615800 -28.807300
C -5.636900 -32.599200 -27.398900
C -5.633900 -35.041000 -28.850800
H -5.632300 -36.257500 -30.473500
H -5.632000 -30.582900 -27.075900
C -5.620100 -31.400800 -26.633700
C -5.611700 -36.260600 -29.543000
C -5.608500 -33.837000 -26.705700
C -5.608100 -35.060300 -27.429500
C -5.585500 -31.418300 -25.278500
C -5.584600 -33.851000 -25.280100
C -5.578500 -36.297200 -26.730500
C -5.575800 -35.090000 -24.581300
C -5.575800 -32.633300 -24.553700
H -5.570800 -33.877200 -21.540200
C -5.569400 -35.108800 -23.162000
C -5.568800 -36.314300 -25.303500
C -5.568800 -33.876300 -22.471000
H -5.566900 -30.611700 -24.814800
C -5.566300 -32.692300 -23.130800
C -5.561800 -37.440600 -28.887500
H -5.558000 -31.900600 -22.642500
C -5.550600 -37.515400 -27.454100
C -5.548100 -36.382200 -22.513900
H -5.545200 -36.415000 -21.584500
C -5.543300 -37.555500 -24.619600
H -5.533900 -38.229700 -29.379200
C -5.531500 -37.547500 -23.212800
C -5.513600 -38.728400 -26.750200
H -5.511500 -38.356100 -22.753300
C -5.503900 -38.757700 -25.404300
H -5.495300 -39.529700 -27.223000
H -5.471000 -39.580700 -24.970000
30
Fragment
N -7.065100 -36.760700 -11.196900
C -6.787200 -37.725000 -11.750100
C -6.510600 -38.970900 -12.441700
N -6.448300 -47.082700 -17.175100
N -6.446000 -38.921400 -13.764000
C -6.389700 -40.183900 -11.723900
C -6.383000 -46.108600 -16.573000
C -6.348500 -40.151700 -10.273600
C -6.329800 -40.112000 -14.384900
N -6.329200 -43.744400 -16.530300
C -6.321900 -44.867400 -15.822300
N -6.308500 -40.060500 -21.092600
C -6.307200 -42.598800 -15.821900
C -6.303000 -41.331000 -13.673400
N -6.299700 -41.364300 -17.902200
N -6.291700 -41.364300 -12.325400
C -6.288400 -41.331000 -16.554200
C -6.284200 -42.598800 -14.405700
N -6.282900 -40.060500 -9.135000
C -6.269400 -44.867400 -14.405300
N -6.262200 -43.744400 -13.697300
C -6.261500 -40.112000 -15.842700
C -6.242900 -40.151700 -19.954000
C -6.208400 -46.108600 -13.654600
C -6.201700 -40.183900 -18.503700
N -6.145400 -38.921400 -16.463600
N -6.143100 -47.082700 -13.052500
C -6.080800 -38.970900 -17.785900
C -5.804200 -37.725000 -18.477500
N -5.526300 -36.760700 -19.030700
66
Fragment
H -5.707000 -33.733000 -30.435200
H -5.698600 -31.807400 -29.268400
C -5.677300 -33.765800 -29.505600
C -5.674400 -32.615800 -28.807300
C -5.636900 -32.599200 -27.398900
C -5.633900 -35.041000 -28.850800
H -5.632300 -36.257500 -30.473500
H -5.632000 -30.582900 -27.075900
C -5.620100 -31.400800 -26.633700
C -5.611700 -36.260600 -29.543000
C -5.608500 -33.837000 -26.705700
C -5.608100 -35.060300 -27.429500
C -5.585500 -31.418300 -25.278500
C -5.584600 -33.851000 -25.280100
C -5.578500 -36.297200 -26.730500
C -5.575800 -35.090000 -24.581300
C -5.575800 -32.633300 -24.553700
H -5.570800 -33.877200 -21.540200
C -5.569400 -35.108800 -23.162000
C -5.568800 -36.314300 -25.303500
C -5.568800 -33.876300 -22.471000
H -5.566900 -30.611700 -24.814800
C -5.566300 -32.692300 -23.130800
C -5.561800 -37.440600 -28.887500
H -5.558000 -31.900600 -22.642500
C -5.550600 -37.515400 -27.454100
C -5.548100 -36.382200 -22.513900
H -5.545200 -36.415000 -21.584500
C -5.543300 -37.555500 -24.619600
H -5.533900 -38.229700 -29.379200
C -5.531500 -37.547500 -23.212800
C -5.513600 -38.728400 -26.750200
H -5.511500 -38.356100 -22.753300
C -5.503900 -38.757700 -25.404300
H -5.495300 -39.529700 -27.223000
H -5.471000 -39.580700 -24.970000
N -7.065100 -36.760700 -11.196900
C -6.787200 -37.725000 -11.750100
C -6.510600 -38.970900 -12.441700
N -6.448300 -47.082700 -17.175100
N -6.446000 -38.921400 -13.764000
C -6.389700 -40.183900 -11.723900
C -6.383000 -46.108600 -16.573000
C -6.348500 -40.151700 -10.273600
C -6.329800 -40.112000 -14.384900
N -6.329200 -43.744400 -16.530300
C -6.321900 -44.867400 -15.822300
N -6.308500 -40.060500 -21.092600
C -6.307200 -42.598800 -15.821900
C -6.303000 -41.331000 -13.673400
N -6.299700 -41.364300 -17.902200
N -6.291700 -41.364300 -12.325400
C -6.288400 -41.331000 -16.554200
C -6.284200 -42.598800 -14.405700
N -6.282900 -40.060500 -9.135000
C -6.269400 -44.867400 -14.405300
N -6.262200 -43.744400 -13.697300
C -6.261500 -40.112000 -15.842700
C -6.242900 -40.151700 -19.954000
C -6.208400 -46.108600 -13.654600
C -6.201700 -40.183900 -18.503700
N -6.145400 -38.921400 -16.463600
N -6.143100 -47.082700 -13.052500
C -6.080800 -38.970900 -17.785900
C -5.804200 -37.725000 -18.477500
N -5.526300 -36.760700 -19.030700
