36
Fragment
H -5.707000 -33.733000 -30.435200
H -5.698600 -31.807400 -29.268400
C -5.677300 -33.765800 -29.505600
C -5.674400 -32.615800 -28.807300
C -5.636900 -32.599200 -27.398900
C -5.633900 -35.041000 -28.850800
H -5.632300 -36.257500 -30.473500
H -5.632000 -30.582900 -27.075900
C -5.620100 -31.400800 -26.633700
C -5.611700 -36.260600 -29.543000
C -5.608500 -33.837000 -26.705700
C -5.608100 -35.060300 -27.429500
C -5.585500 -31.418300 -25.278500
C -5.584600 -33.851000 -25.280100
C -5.578500 -36.297200 -26.730500
C -5.575800 -35.090000 -24.581300
C -5.575800 -32.633300 -24.553700
H -5.570800 -33.877200 -21.540200
C -5.569400 -35.108800 -23.162000
C -5.568800 -36.314300 -25.303500
C -5.568800 -33.876300 -22.471000
H -5.566900 -30.611700 -24.814800
C -5.566300 -32.692300 -23.130800
C -5.561800 -37.440600 -28.887500
H -5.558000 -31.900600 -22.642500
C -5.550600 -37.515400 -27.454100
C -5.548100 -36.382200 -22.513900
H -5.545200 -36.415000 -21.584500
C -5.543300 -37.555500 -24.619600
H -5.533900 -38.229700 -29.379200
C -5.531500 -37.547500 -23.212800
C -5.513600 -38.728400 -26.750200
H -5.511500 -38.356100 -22.753300
C -5.503900 -38.757700 -25.404300
H -5.495300 -39.529700 -27.223000
H -5.471000 -39.580700 -24.970000
30
Fragment
N -2.220000 -36.760700 -31.348600
C -1.942100 -37.725000 -31.901800
C -1.665500 -38.970900 -32.593400
N -1.603200 -47.082700 -37.326900
N -1.600900 -38.921400 -33.915800
C -1.544600 -40.183900 -31.875600
C -1.537900 -46.108600 -36.724700
C -1.503500 -40.151700 -30.425300
C -1.484800 -40.112000 -34.536600
N -1.484100 -43.744400 -36.682000
C -1.476900 -44.867400 -35.974100
N -1.463400 -40.060500 -41.244400
C -1.462100 -42.598800 -35.973700
C -1.458000 -41.331000 -33.825100
N -1.454600 -41.364300 -38.053900
N -1.446600 -41.364300 -32.477100
C -1.443300 -41.331000 -36.706000
C -1.439200 -42.598800 -34.557400
N -1.437800 -40.060500 -29.286700
C -1.424400 -44.867400 -34.557000
N -1.417100 -43.744400 -33.849100
C -1.416500 -40.112000 -35.994400
C -1.397800 -40.151700 -40.105800
C -1.363400 -46.108600 -33.806300
C -1.356700 -40.183900 -38.655500
N -1.300400 -38.921400 -36.615300
N -1.298000 -47.082700 -33.204200
C -1.235700 -38.970900 -37.937700
C -0.959100 -37.725000 -38.629300
N -0.681300 -36.760700 -39.182400
66
Fragment
H -5.707000 -33.733000 -30.435200
H -5.698600 -31.807400 -29.268400
C -5.677300 -33.765800 -29.505600
C -5.674400 -32.615800 -28.807300
C -5.636900 -32.599200 -27.398900
C -5.633900 -35.041000 -28.850800
H -5.632300 -36.257500 -30.473500
H -5.632000 -30.582900 -27.075900
C -5.620100 -31.400800 -26.633700
C -5.611700 -36.260600 -29.543000
C -5.608500 -33.837000 -26.705700
C -5.608100 -35.060300 -27.429500
C -5.585500 -31.418300 -25.278500
C -5.584600 -33.851000 -25.280100
C -5.578500 -36.297200 -26.730500
C -5.575800 -35.090000 -24.581300
C -5.575800 -32.633300 -24.553700
H -5.570800 -33.877200 -21.540200
C -5.569400 -35.108800 -23.162000
C -5.568800 -36.314300 -25.303500
C -5.568800 -33.876300 -22.471000
H -5.566900 -30.611700 -24.814800
C -5.566300 -32.692300 -23.130800
C -5.561800 -37.440600 -28.887500
H -5.558000 -31.900600 -22.642500
C -5.550600 -37.515400 -27.454100
C -5.548100 -36.382200 -22.513900
H -5.545200 -36.415000 -21.584500
C -5.543300 -37.555500 -24.619600
H -5.533900 -38.229700 -29.379200
C -5.531500 -37.547500 -23.212800
C -5.513600 -38.728400 -26.750200
H -5.511500 -38.356100 -22.753300
C -5.503900 -38.757700 -25.404300
H -5.495300 -39.529700 -27.223000
H -5.471000 -39.580700 -24.970000
N -2.220000 -36.760700 -31.348600
C -1.942100 -37.725000 -31.901800
C -1.665500 -38.970900 -32.593400
N -1.603200 -47.082700 -37.326900
N -1.600900 -38.921400 -33.915800
C -1.544600 -40.183900 -31.875600
C -1.537900 -46.108600 -36.724700
C -1.503500 -40.151700 -30.425300
C -1.484800 -40.112000 -34.536600
N -1.484100 -43.744400 -36.682000
C -1.476900 -44.867400 -35.974100
N -1.463400 -40.060500 -41.244400
C -1.462100 -42.598800 -35.973700
C -1.458000 -41.331000 -33.825100
N -1.454600 -41.364300 -38.053900
N -1.446600 -41.364300 -32.477100
C -1.443300 -41.331000 -36.706000
C -1.439200 -42.598800 -34.557400
N -1.437800 -40.060500 -29.286700
C -1.424400 -44.867400 -34.557000
N -1.417100 -43.744400 -33.849100
C -1.416500 -40.112000 -35.994400
C -1.397800 -40.151700 -40.105800
C -1.363400 -46.108600 -33.806300
C -1.356700 -40.183900 -38.655500
N -1.300400 -38.921400 -36.615300
N -1.298000 -47.082700 -33.204200
C -1.235700 -38.970900 -37.937700
C -0.959100 -37.725000 -38.629300
N -0.681300 -36.760700 -39.182400
