36
Fragment
O -44.083700 -15.811700 -38.525300
O -43.901600 -15.899100 -36.371500
N -43.536100 -15.566300 -37.481400
N -42.407900 -14.745100 -37.535100
H -42.367600 -14.670900 -39.543700
H -42.112200 -14.749200 -35.534700
C -41.739000 -14.583600 -38.797800
O -41.714900 -16.613200 -40.552400
C -41.580200 -14.638000 -36.349400
H -41.343800 -12.637200 -39.568000
O -41.332300 -10.577100 -38.597900
N -41.296400 -12.533400 -37.553300
N -41.265100 -11.133100 -37.533400
O -41.257000 -10.625700 -36.454300
O -41.255700 -16.684900 -34.615600
H -41.082400 -12.715500 -35.571100
C -41.030400 -13.182500 -38.816900
C -40.871300 -13.230300 -36.379200
N -40.641900 -15.546500 -38.917700
N -40.637000 -16.349600 -40.081100
N -40.480200 -15.600900 -36.396000
N -40.281900 -16.418000 -35.268300
N -39.602400 -13.503700 -38.952000
O -39.558800 -16.756500 -40.444100
N -39.444900 -13.554000 -36.432400
C -39.429700 -14.889200 -38.525600
O -39.358000 -12.066400 -40.633300
C -39.316800 -14.909800 -36.935600
O -39.157700 -16.841400 -35.092300
N -38.975400 -13.100100 -40.153700
O -38.931100 -12.119900 -34.815900
H -38.645300 -15.299400 -38.946400
N -38.627800 -13.167700 -35.350400
H -38.481300 -15.326600 -36.639500
O -38.065400 -13.806000 -40.547300
O -37.659000 -13.863700 -35.120200
29
Fragment
O -44.342400 -16.922900 -45.567900
H -44.202400 -14.314300 -45.881400
H -43.922600 -17.866900 -43.564900
C -43.569700 -16.080300 -45.164800
C -43.368500 -14.789500 -45.845000
H -43.262000 -20.251500 -43.353600
H -43.047000 -14.943600 -46.736100
C -43.000100 -17.586800 -43.455100
H -42.839600 -17.462400 -42.506200
O -42.811200 -16.334800 -44.126500
H -42.725300 -14.268100 -45.356900
C -42.351600 -19.953300 -43.209400
H -42.223900 -18.807500 -44.922200
H -42.220500 -19.814900 -42.258500
C -42.099800 -18.674100 -43.959900
O -41.526200 -22.037300 -41.771900
O -41.425800 -20.933500 -43.700600
C -41.063700 -21.911200 -42.870900
O -40.740900 -18.284500 -43.667300
H -40.340000 -23.687100 -43.499300
O -40.054400 -18.824000 -45.716500
C -40.021300 -22.781900 -43.468900
H -39.826400 -22.480400 -44.358900
C -39.813500 -18.451700 -44.601000
H -39.224300 -22.740700 -42.933500
H -38.514200 -17.838000 -43.181200
C -38.458400 -18.105700 -44.101500
H -38.100800 -17.383400 -44.623600
H -37.882800 -18.871000 -44.176800
65
Fragment
O -44.083700 -15.811700 -38.525300
O -43.901600 -15.899100 -36.371500
N -43.536100 -15.566300 -37.481400
N -42.407900 -14.745100 -37.535100
H -42.367600 -14.670900 -39.543700
H -42.112200 -14.749200 -35.534700
C -41.739000 -14.583600 -38.797800
O -41.714900 -16.613200 -40.552400
C -41.580200 -14.638000 -36.349400
H -41.343800 -12.637200 -39.568000
O -41.332300 -10.577100 -38.597900
N -41.296400 -12.533400 -37.553300
N -41.265100 -11.133100 -37.533400
O -41.257000 -10.625700 -36.454300
O -41.255700 -16.684900 -34.615600
H -41.082400 -12.715500 -35.571100
C -41.030400 -13.182500 -38.816900
C -40.871300 -13.230300 -36.379200
N -40.641900 -15.546500 -38.917700
N -40.637000 -16.349600 -40.081100
N -40.480200 -15.600900 -36.396000
N -40.281900 -16.418000 -35.268300
N -39.602400 -13.503700 -38.952000
O -39.558800 -16.756500 -40.444100
N -39.444900 -13.554000 -36.432400
C -39.429700 -14.889200 -38.525600
O -39.358000 -12.066400 -40.633300
C -39.316800 -14.909800 -36.935600
O -39.157700 -16.841400 -35.092300
N -38.975400 -13.100100 -40.153700
O -38.931100 -12.119900 -34.815900
H -38.645300 -15.299400 -38.946400
N -38.627800 -13.167700 -35.350400
H -38.481300 -15.326600 -36.639500
O -38.065400 -13.806000 -40.547300
O -37.659000 -13.863700 -35.120200
O -44.342400 -16.922900 -45.567900
H -44.202400 -14.314300 -45.881400
H -43.922600 -17.866900 -43.564900
C -43.569700 -16.080300 -45.164800
C -43.368500 -14.789500 -45.845000
H -43.262000 -20.251500 -43.353600
H -43.047000 -14.943600 -46.736100
C -43.000100 -17.586800 -43.455100
H -42.839600 -17.462400 -42.506200
O -42.811200 -16.334800 -44.126500
H -42.725300 -14.268100 -45.356900
C -42.351600 -19.953300 -43.209400
H -42.223900 -18.807500 -44.922200
H -42.220500 -19.814900 -42.258500
C -42.099800 -18.674100 -43.959900
O -41.526200 -22.037300 -41.771900
O -41.425800 -20.933500 -43.700600
C -41.063700 -21.911200 -42.870900
O -40.740900 -18.284500 -43.667300
H -40.340000 -23.687100 -43.499300
O -40.054400 -18.824000 -45.716500
C -40.021300 -22.781900 -43.468900
H -39.826400 -22.480400 -44.358900
C -39.813500 -18.451700 -44.601000
H -39.224300 -22.740700 -42.933500
H -38.514200 -17.838000 -43.181200
C -38.458400 -18.105700 -44.101500
H -38.100800 -17.383400 -44.623600
H -37.882800 -18.871000 -44.176800
