36
Fragment
O -44.083700 -15.811700 -38.525300
O -43.901600 -15.899100 -36.371500
N -43.536100 -15.566300 -37.481400
N -42.407900 -14.745100 -37.535100
H -42.367600 -14.670900 -39.543700
H -42.112200 -14.749200 -35.534700
C -41.739000 -14.583600 -38.797800
O -41.714900 -16.613200 -40.552400
C -41.580200 -14.638000 -36.349400
H -41.343800 -12.637200 -39.568000
O -41.332300 -10.577100 -38.597900
N -41.296400 -12.533400 -37.553300
N -41.265100 -11.133100 -37.533400
O -41.257000 -10.625700 -36.454300
O -41.255700 -16.684900 -34.615600
H -41.082400 -12.715500 -35.571100
C -41.030400 -13.182500 -38.816900
C -40.871300 -13.230300 -36.379200
N -40.641900 -15.546500 -38.917700
N -40.637000 -16.349600 -40.081100
N -40.480200 -15.600900 -36.396000
N -40.281900 -16.418000 -35.268300
N -39.602400 -13.503700 -38.952000
O -39.558800 -16.756500 -40.444100
N -39.444900 -13.554000 -36.432400
C -39.429700 -14.889200 -38.525600
O -39.358000 -12.066400 -40.633300
C -39.316800 -14.909800 -36.935600
O -39.157700 -16.841400 -35.092300
N -38.975400 -13.100100 -40.153700
O -38.931100 -12.119900 -34.815900
H -38.645300 -15.299400 -38.946400
N -38.627800 -13.167700 -35.350400
H -38.481300 -15.326600 -36.639500
O -38.065400 -13.806000 -40.547300
O -37.659000 -13.863700 -35.120200
36
Fragment
O -37.951200 -19.084300 -37.726700
O -37.544900 -19.142000 -32.299600
H -37.128900 -17.621400 -36.207300
N -36.982400 -19.780300 -37.496500
H -36.964900 -17.648600 -33.900500
O -36.679100 -20.828100 -38.030900
N -36.634800 -19.847900 -32.693200
O -36.452600 -16.106600 -37.754600
C -36.293500 -18.038200 -35.911300
O -36.252200 -20.881600 -32.213600
C -36.180600 -18.058800 -34.321300
N -36.165400 -19.394000 -36.414500
O -36.051400 -16.191500 -32.402800
N -36.007800 -19.444300 -33.894900
N -35.328300 -16.530000 -37.578500
N -35.130100 -17.347100 -36.450900
N -34.973200 -16.598400 -32.765800
N -34.968400 -17.401500 -33.929200
C -34.738900 -19.717700 -36.467600
C -34.579900 -19.765500 -34.029900
H -34.527800 -20.232500 -37.275700
O -34.354500 -16.263100 -38.231300
O -34.353200 -22.322300 -36.392600
N -34.345100 -21.814900 -35.313500
N -34.313900 -20.414600 -35.293600
O -34.277900 -22.370900 -34.249000
H -34.266500 -20.310800 -33.278900
C -34.030000 -18.310000 -36.497500
O -33.895300 -16.334800 -32.294500
C -33.871200 -18.364400 -34.049100
H -33.498100 -18.198800 -37.312200
H -33.242600 -18.277100 -33.303200
N -33.202300 -18.202900 -35.311800
N -32.074200 -17.381700 -35.365500
O -31.708600 -17.048900 -36.475400
O -31.526600 -17.136300 -34.321600
72
Fragment
O -44.083700 -15.811700 -38.525300
O -43.901600 -15.899100 -36.371500
N -43.536100 -15.566300 -37.481400
N -42.407900 -14.745100 -37.535100
H -42.367600 -14.670900 -39.543700
H -42.112200 -14.749200 -35.534700
C -41.739000 -14.583600 -38.797800
O -41.714900 -16.613200 -40.552400
C -41.580200 -14.638000 -36.349400
H -41.343800 -12.637200 -39.568000
O -41.332300 -10.577100 -38.597900
N -41.296400 -12.533400 -37.553300
N -41.265100 -11.133100 -37.533400
O -41.257000 -10.625700 -36.454300
O -41.255700 -16.684900 -34.615600
H -41.082400 -12.715500 -35.571100
C -41.030400 -13.182500 -38.816900
C -40.871300 -13.230300 -36.379200
N -40.641900 -15.546500 -38.917700
N -40.637000 -16.349600 -40.081100
N -40.480200 -15.600900 -36.396000
N -40.281900 -16.418000 -35.268300
N -39.602400 -13.503700 -38.952000
O -39.558800 -16.756500 -40.444100
N -39.444900 -13.554000 -36.432400
C -39.429700 -14.889200 -38.525600
O -39.358000 -12.066400 -40.633300
C -39.316800 -14.909800 -36.935600
O -39.157700 -16.841400 -35.092300
N -38.975400 -13.100100 -40.153700
O -38.931100 -12.119900 -34.815900
H -38.645300 -15.299400 -38.946400
N -38.627800 -13.167700 -35.350400
H -38.481300 -15.326600 -36.639500
O -38.065400 -13.806000 -40.547300
O -37.659000 -13.863700 -35.120200
O -37.951200 -19.084300 -37.726700
O -37.544900 -19.142000 -32.299600
H -37.128900 -17.621400 -36.207300
N -36.982400 -19.780300 -37.496500
H -36.964900 -17.648600 -33.900500
O -36.679100 -20.828100 -38.030900
N -36.634800 -19.847900 -32.693200
O -36.452600 -16.106600 -37.754600
C -36.293500 -18.038200 -35.911300
O -36.252200 -20.881600 -32.213600
C -36.180600 -18.058800 -34.321300
N -36.165400 -19.394000 -36.414500
O -36.051400 -16.191500 -32.402800
N -36.007800 -19.444300 -33.894900
N -35.328300 -16.530000 -37.578500
N -35.130100 -17.347100 -36.450900
N -34.973200 -16.598400 -32.765800
N -34.968400 -17.401500 -33.929200
C -34.738900 -19.717700 -36.467600
C -34.579900 -19.765500 -34.029900
H -34.527800 -20.232500 -37.275700
O -34.354500 -16.263100 -38.231300
O -34.353200 -22.322300 -36.392600
N -34.345100 -21.814900 -35.313500
N -34.313900 -20.414600 -35.293600
O -34.277900 -22.370900 -34.249000
H -34.266500 -20.310800 -33.278900
C -34.030000 -18.310000 -36.497500
O -33.895300 -16.334800 -32.294500
C -33.871200 -18.364400 -34.049100
H -33.498100 -18.198800 -37.312200
H -33.242600 -18.277100 -33.303200
N -33.202300 -18.202900 -35.311800
N -32.074200 -17.381700 -35.365500
O -31.708600 -17.048900 -36.475400
O -31.526600 -17.136300 -34.321600
