36
Fragment
O -44.083700 -15.811700 -38.525300
O -43.901600 -15.899100 -36.371500
N -43.536100 -15.566300 -37.481400
N -42.407900 -14.745100 -37.535100
H -42.367600 -14.670900 -39.543700
H -42.112200 -14.749200 -35.534700
C -41.739000 -14.583600 -38.797800
O -41.714900 -16.613200 -40.552400
C -41.580200 -14.638000 -36.349400
H -41.343800 -12.637200 -39.568000
O -41.332300 -10.577100 -38.597900
N -41.296400 -12.533400 -37.553300
N -41.265100 -11.133100 -37.533400
O -41.257000 -10.625700 -36.454300
O -41.255700 -16.684900 -34.615600
H -41.082400 -12.715500 -35.571100
C -41.030400 -13.182500 -38.816900
C -40.871300 -13.230300 -36.379200
N -40.641900 -15.546500 -38.917700
N -40.637000 -16.349600 -40.081100
N -40.480200 -15.600900 -36.396000
N -40.281900 -16.418000 -35.268300
N -39.602400 -13.503700 -38.952000
O -39.558800 -16.756500 -40.444100
N -39.444900 -13.554000 -36.432400
C -39.429700 -14.889200 -38.525600
O -39.358000 -12.066400 -40.633300
C -39.316800 -14.909800 -36.935600
O -39.157700 -16.841400 -35.092300
N -38.975400 -13.100100 -40.153700
O -38.931100 -12.119900 -34.815900
H -38.645300 -15.299400 -38.946400
N -38.627800 -13.167700 -35.350400
H -38.481300 -15.326600 -36.639500
O -38.065400 -13.806000 -40.547300
O -37.659000 -13.863700 -35.120200
29
Fragment
O -44.953200 -7.788100 -33.426800
H -44.813200 -10.396700 -33.740200
H -44.533400 -6.844100 -31.423700
C -44.180500 -8.630700 -33.023700
C -43.979300 -9.921500 -33.703800
H -43.872800 -4.459500 -31.212500
H -43.657800 -9.767400 -34.595000
C -43.610900 -7.124200 -31.314000
H -43.450400 -7.248600 -30.365000
O -43.422000 -8.376200 -31.985400
H -43.336000 -10.442900 -33.215700
C -42.962400 -4.757700 -31.068200
H -42.834700 -5.903500 -32.781100
H -42.831300 -4.896100 -30.117300
C -42.710600 -6.036900 -31.818800
O -42.137000 -2.673700 -29.630700
O -42.036600 -3.777500 -31.559500
C -41.674500 -2.799800 -30.729700
O -41.351700 -6.426500 -31.526200
H -40.950800 -1.023900 -31.358200
O -40.665100 -5.887000 -33.575400
C -40.632100 -1.929100 -31.327800
H -40.437200 -2.230600 -32.217700
C -40.424300 -6.259300 -32.459800
H -39.835100 -1.970300 -30.792400
H -39.125000 -6.873000 -31.040100
C -39.069200 -6.605300 -31.960400
H -38.711600 -7.327600 -32.482400
H -38.493600 -5.840000 -32.035600
65
Fragment
O -44.083700 -15.811700 -38.525300
O -43.901600 -15.899100 -36.371500
N -43.536100 -15.566300 -37.481400
N -42.407900 -14.745100 -37.535100
H -42.367600 -14.670900 -39.543700
H -42.112200 -14.749200 -35.534700
C -41.739000 -14.583600 -38.797800
O -41.714900 -16.613200 -40.552400
C -41.580200 -14.638000 -36.349400
H -41.343800 -12.637200 -39.568000
O -41.332300 -10.577100 -38.597900
N -41.296400 -12.533400 -37.553300
N -41.265100 -11.133100 -37.533400
O -41.257000 -10.625700 -36.454300
O -41.255700 -16.684900 -34.615600
H -41.082400 -12.715500 -35.571100
C -41.030400 -13.182500 -38.816900
C -40.871300 -13.230300 -36.379200
N -40.641900 -15.546500 -38.917700
N -40.637000 -16.349600 -40.081100
N -40.480200 -15.600900 -36.396000
N -40.281900 -16.418000 -35.268300
N -39.602400 -13.503700 -38.952000
O -39.558800 -16.756500 -40.444100
N -39.444900 -13.554000 -36.432400
C -39.429700 -14.889200 -38.525600
O -39.358000 -12.066400 -40.633300
C -39.316800 -14.909800 -36.935600
O -39.157700 -16.841400 -35.092300
N -38.975400 -13.100100 -40.153700
O -38.931100 -12.119900 -34.815900
H -38.645300 -15.299400 -38.946400
N -38.627800 -13.167700 -35.350400
H -38.481300 -15.326600 -36.639500
O -38.065400 -13.806000 -40.547300
O -37.659000 -13.863700 -35.120200
O -44.953200 -7.788100 -33.426800
H -44.813200 -10.396700 -33.740200
H -44.533400 -6.844100 -31.423700
C -44.180500 -8.630700 -33.023700
C -43.979300 -9.921500 -33.703800
H -43.872800 -4.459500 -31.212500
H -43.657800 -9.767400 -34.595000
C -43.610900 -7.124200 -31.314000
H -43.450400 -7.248600 -30.365000
O -43.422000 -8.376200 -31.985400
H -43.336000 -10.442900 -33.215700
C -42.962400 -4.757700 -31.068200
H -42.834700 -5.903500 -32.781100
H -42.831300 -4.896100 -30.117300
C -42.710600 -6.036900 -31.818800
O -42.137000 -2.673700 -29.630700
O -42.036600 -3.777500 -31.559500
C -41.674500 -2.799800 -30.729700
O -41.351700 -6.426500 -31.526200
H -40.950800 -1.023900 -31.358200
O -40.665100 -5.887000 -33.575400
C -40.632100 -1.929100 -31.327800
H -40.437200 -2.230600 -32.217700
C -40.424300 -6.259300 -32.459800
H -39.835100 -1.970300 -30.792400
H -39.125000 -6.873000 -31.040100
C -39.069200 -6.605300 -31.960400
H -38.711600 -7.327600 -32.482400
H -38.493600 -5.840000 -32.035600
