21
Fragment
N -15.156600 -7.399000 -29.282200
N -14.755700 -7.247200 -30.579200
C -14.191700 -8.059000 -28.689800
H -14.180000 -8.318900 -27.775600
N -13.598600 -7.780700 -30.771300
N -13.224200 -8.307200 -29.582900
H -12.356600 -10.212400 -25.643100
C -11.981500 -8.969500 -29.393600
N -11.843300 -9.475800 -28.175100
C -11.488100 -10.595000 -25.603700
H -11.199800 -8.680200 -31.264800
C -11.040500 -9.046500 -30.403300
N -10.962900 -11.191500 -24.559700
C -10.691600 -10.081500 -27.925500
N -10.597200 -10.613500 -26.609200
C -9.851900 -9.686500 -30.090200
N -9.711800 -11.577200 -24.949600
C -9.645800 -10.208600 -28.825500
N -9.481600 -11.237700 -26.169000
H -9.173000 -9.767600 -30.749500
H -8.830000 -10.632600 -28.586000
12
Fragment
H -17.342600 -9.139900 -32.984000
H -17.215100 -10.540100 -35.083700
H -16.953300 -10.648300 -32.619700
C -16.599600 -9.753400 -32.804200
C -16.288200 -10.254400 -35.222500
H -16.266700 -9.518300 -35.868600
H -16.095000 -9.435500 -32.026100
H -15.762500 -11.006600 -35.566300
N -15.724600 -9.806600 -33.960400
C -14.440300 -9.485600 -33.880900
H -14.106300 -9.211600 -33.035000
O -13.648700 -9.517200 -34.824200
33
Fragment
N -15.156600 -7.399000 -29.282200
N -14.755700 -7.247200 -30.579200
C -14.191700 -8.059000 -28.689800
H -14.180000 -8.318900 -27.775600
N -13.598600 -7.780700 -30.771300
N -13.224200 -8.307200 -29.582900
H -12.356600 -10.212400 -25.643100
C -11.981500 -8.969500 -29.393600
N -11.843300 -9.475800 -28.175100
C -11.488100 -10.595000 -25.603700
H -11.199800 -8.680200 -31.264800
C -11.040500 -9.046500 -30.403300
N -10.962900 -11.191500 -24.559700
C -10.691600 -10.081500 -27.925500
N -10.597200 -10.613500 -26.609200
C -9.851900 -9.686500 -30.090200
N -9.711800 -11.577200 -24.949600
C -9.645800 -10.208600 -28.825500
N -9.481600 -11.237700 -26.169000
H -9.173000 -9.767600 -30.749500
H -8.830000 -10.632600 -28.586000
H -17.342600 -9.139900 -32.984000
H -17.215100 -10.540100 -35.083700
H -16.953300 -10.648300 -32.619700
C -16.599600 -9.753400 -32.804200
C -16.288200 -10.254400 -35.222500
H -16.266700 -9.518300 -35.868600
H -16.095000 -9.435500 -32.026100
H -15.762500 -11.006600 -35.566300
N -15.724600 -9.806600 -33.960400
C -14.440300 -9.485600 -33.880900
H -14.106300 -9.211600 -33.035000
O -13.648700 -9.517200 -34.824200
