21
Fragment
N -15.156600 -7.399000 -29.282200
N -14.755700 -7.247200 -30.579200
C -14.191700 -8.059000 -28.689800
H -14.180000 -8.318900 -27.775600
N -13.598600 -7.780700 -30.771300
N -13.224200 -8.307200 -29.582900
H -12.356600 -10.212400 -25.643100
C -11.981500 -8.969500 -29.393600
N -11.843300 -9.475800 -28.175100
C -11.488100 -10.595000 -25.603700
H -11.199800 -8.680200 -31.264800
C -11.040500 -9.046500 -30.403300
N -10.962900 -11.191500 -24.559700
C -10.691600 -10.081500 -27.925500
N -10.597200 -10.613500 -26.609200
C -9.851900 -9.686500 -30.090200
N -9.711800 -11.577200 -24.949600
C -9.645800 -10.208600 -28.825500
N -9.481600 -11.237700 -26.169000
H -9.173000 -9.767600 -30.749500
H -8.830000 -10.632600 -28.586000
12
Fragment
O -11.376400 -13.249000 -28.914700
H -10.918800 -12.943400 -30.703900
C -10.584800 -13.217400 -29.858000
N -9.300500 -13.538400 -29.778400
H -9.262600 -14.738400 -28.172600
H -8.930100 -13.167300 -31.712800
H -8.758400 -13.250100 -27.870300
C -8.736900 -13.986200 -28.516400
C -8.425500 -13.485200 -30.934700
H -8.071800 -14.380100 -31.119100
H -7.810000 -14.271900 -28.655200
H -7.682500 -12.871700 -30.754900
33
Fragment
N -15.156600 -7.399000 -29.282200
N -14.755700 -7.247200 -30.579200
C -14.191700 -8.059000 -28.689800
H -14.180000 -8.318900 -27.775600
N -13.598600 -7.780700 -30.771300
N -13.224200 -8.307200 -29.582900
H -12.356600 -10.212400 -25.643100
C -11.981500 -8.969500 -29.393600
N -11.843300 -9.475800 -28.175100
C -11.488100 -10.595000 -25.603700
H -11.199800 -8.680200 -31.264800
C -11.040500 -9.046500 -30.403300
N -10.962900 -11.191500 -24.559700
C -10.691600 -10.081500 -27.925500
N -10.597200 -10.613500 -26.609200
C -9.851900 -9.686500 -30.090200
N -9.711800 -11.577200 -24.949600
C -9.645800 -10.208600 -28.825500
N -9.481600 -11.237700 -26.169000
H -9.173000 -9.767600 -30.749500
H -8.830000 -10.632600 -28.586000
O -11.376400 -13.249000 -28.914700
H -10.918800 -12.943400 -30.703900
C -10.584800 -13.217400 -29.858000
N -9.300500 -13.538400 -29.778400
H -9.262600 -14.738400 -28.172600
H -8.930100 -13.167300 -31.712800
H -8.758400 -13.250100 -27.870300
C -8.736900 -13.986200 -28.516400
C -8.425500 -13.485200 -30.934700
H -8.071800 -14.380100 -31.119100
H -7.810000 -14.271900 -28.655200
H -7.682500 -12.871700 -30.754900
