21
Fragment
N -15.156600 -7.399000 -29.282200
N -14.755700 -7.247200 -30.579200
C -14.191700 -8.059000 -28.689800
H -14.180000 -8.318900 -27.775600
N -13.598600 -7.780700 -30.771300
N -13.224200 -8.307200 -29.582900
H -12.356600 -10.212400 -25.643100
C -11.981500 -8.969500 -29.393600
N -11.843300 -9.475800 -28.175100
C -11.488100 -10.595000 -25.603700
H -11.199800 -8.680200 -31.264800
C -11.040500 -9.046500 -30.403300
N -10.962900 -11.191500 -24.559700
C -10.691600 -10.081500 -27.925500
N -10.597200 -10.613500 -26.609200
C -9.851900 -9.686500 -30.090200
N -9.711800 -11.577200 -24.949600
C -9.645800 -10.208600 -28.825500
N -9.481600 -11.237700 -26.169000
H -9.173000 -9.767600 -30.749500
H -8.830000 -10.632600 -28.586000
12
Fragment
O -21.166900 -5.785400 -28.914700
H -20.709300 -5.479800 -30.703900
C -20.375300 -5.753800 -29.858000
N -19.091000 -6.074800 -29.778400
H -19.053100 -7.274800 -28.172600
H -18.720600 -5.703700 -31.712800
H -18.548900 -5.786500 -27.870300
C -18.527400 -6.522600 -28.516400
C -18.216000 -6.021600 -30.934700
H -17.862300 -6.916500 -31.119100
H -17.600500 -6.808300 -28.655200
H -17.473000 -5.408100 -30.754900
33
Fragment
N -15.156600 -7.399000 -29.282200
N -14.755700 -7.247200 -30.579200
C -14.191700 -8.059000 -28.689800
H -14.180000 -8.318900 -27.775600
N -13.598600 -7.780700 -30.771300
N -13.224200 -8.307200 -29.582900
H -12.356600 -10.212400 -25.643100
C -11.981500 -8.969500 -29.393600
N -11.843300 -9.475800 -28.175100
C -11.488100 -10.595000 -25.603700
H -11.199800 -8.680200 -31.264800
C -11.040500 -9.046500 -30.403300
N -10.962900 -11.191500 -24.559700
C -10.691600 -10.081500 -27.925500
N -10.597200 -10.613500 -26.609200
C -9.851900 -9.686500 -30.090200
N -9.711800 -11.577200 -24.949600
C -9.645800 -10.208600 -28.825500
N -9.481600 -11.237700 -26.169000
H -9.173000 -9.767600 -30.749500
H -8.830000 -10.632600 -28.586000
O -21.166900 -5.785400 -28.914700
H -20.709300 -5.479800 -30.703900
C -20.375300 -5.753800 -29.858000
N -19.091000 -6.074800 -29.778400
H -19.053100 -7.274800 -28.172600
H -18.720600 -5.703700 -31.712800
H -18.548900 -5.786500 -27.870300
C -18.527400 -6.522600 -28.516400
C -18.216000 -6.021600 -30.934700
H -17.862300 -6.916500 -31.119100
H -17.600500 -6.808300 -28.655200
H -17.473000 -5.408100 -30.754900
