21
Fragment
N -15.156600 -7.399000 -29.282200
N -14.755700 -7.247200 -30.579200
C -14.191700 -8.059000 -28.689800
H -14.180000 -8.318900 -27.775600
N -13.598600 -7.780700 -30.771300
N -13.224200 -8.307200 -29.582900
H -12.356600 -10.212400 -25.643100
C -11.981500 -8.969500 -29.393600
N -11.843300 -9.475800 -28.175100
C -11.488100 -10.595000 -25.603700
H -11.199800 -8.680200 -31.264800
C -11.040500 -9.046500 -30.403300
N -10.962900 -11.191500 -24.559700
C -10.691600 -10.081500 -27.925500
N -10.597200 -10.613500 -26.609200
C -9.851900 -9.686500 -30.090200
N -9.711800 -11.577200 -24.949600
C -9.645800 -10.208600 -28.825500
N -9.481600 -11.237700 -26.169000
H -9.173000 -9.767600 -30.749500
H -8.830000 -10.632600 -28.586000
21
Fragment
H -7.025500 -11.758200 -26.047300
H -6.682500 -12.623200 -23.883900
N -6.373900 -11.153100 -28.464300
C -6.209700 -12.182200 -25.807900
N -6.143700 -10.813600 -29.683700
C -6.003600 -12.704300 -24.543100
N -5.258300 -11.777300 -28.024200
C -5.163900 -12.309300 -26.707900
N -4.892600 -11.199300 -30.073600
C -4.815000 -13.344300 -24.230100
H -4.655800 -13.710600 -23.368500
C -4.367400 -11.795800 -29.029600
N -4.012200 -12.915000 -26.458200
C -3.874100 -13.421300 -25.239700
H -3.499000 -12.178400 -28.990300
N -2.631300 -14.083600 -25.050500
N -2.256900 -14.610100 -23.862000
H -1.675500 -14.071900 -26.857700
C -1.663800 -14.331800 -25.943500
N -1.099800 -15.143600 -24.054100
N -0.698900 -14.991800 -25.351100
42
Fragment
N -15.156600 -7.399000 -29.282200
N -14.755700 -7.247200 -30.579200
C -14.191700 -8.059000 -28.689800
H -14.180000 -8.318900 -27.775600
N -13.598600 -7.780700 -30.771300
N -13.224200 -8.307200 -29.582900
H -12.356600 -10.212400 -25.643100
C -11.981500 -8.969500 -29.393600
N -11.843300 -9.475800 -28.175100
C -11.488100 -10.595000 -25.603700
H -11.199800 -8.680200 -31.264800
C -11.040500 -9.046500 -30.403300
N -10.962900 -11.191500 -24.559700
C -10.691600 -10.081500 -27.925500
N -10.597200 -10.613500 -26.609200
C -9.851900 -9.686500 -30.090200
N -9.711800 -11.577200 -24.949600
C -9.645800 -10.208600 -28.825500
N -9.481600 -11.237700 -26.169000
H -9.173000 -9.767600 -30.749500
H -8.830000 -10.632600 -28.586000
H -7.025500 -11.758200 -26.047300
H -6.682500 -12.623200 -23.883900
N -6.373900 -11.153100 -28.464300
C -6.209700 -12.182200 -25.807900
N -6.143700 -10.813600 -29.683700
C -6.003600 -12.704300 -24.543100
N -5.258300 -11.777300 -28.024200
C -5.163900 -12.309300 -26.707900
N -4.892600 -11.199300 -30.073600
C -4.815000 -13.344300 -24.230100
H -4.655800 -13.710600 -23.368500
C -4.367400 -11.795800 -29.029600
N -4.012200 -12.915000 -26.458200
C -3.874100 -13.421300 -25.239700
H -3.499000 -12.178400 -28.990300
N -2.631300 -14.083600 -25.050500
N -2.256900 -14.610100 -23.862000
H -1.675500 -14.071900 -26.857700
C -1.663800 -14.331800 -25.943500
N -1.099800 -15.143600 -24.054100
N -0.698900 -14.991800 -25.351100
