12
Fragment
O -15.624100 -5.425900 -17.430900
C -14.733800 -6.239700 -17.748400
H -14.551600 -7.535800 -16.265400
N -14.262800 -7.288400 -17.039200
H -14.139400 -5.838500 -19.515900
N -14.035400 -6.291400 -18.923000
N -13.312400 -8.000200 -17.725900
C -13.201700 -7.361600 -18.855500
O -12.364400 -7.111200 -21.019100
C -12.327400 -7.754800 -19.990500
O -11.598500 -8.806500 -19.719600
H -11.181100 -9.043400 -20.409000
12
Fragment
H -10.415200 -10.866200 -17.982900
O -9.997800 -11.103100 -18.672300
C -9.269000 -12.154800 -18.401400
O -9.231900 -12.798400 -17.372800
C -8.394600 -12.548000 -19.536400
N -8.283900 -11.909400 -20.666000
N -7.560900 -13.618200 -19.468900
H -7.456900 -14.071100 -18.876000
N -7.333500 -12.621200 -21.352700
H -7.044700 -12.373800 -22.126500
C -6.862500 -13.669900 -20.643400
O -5.972200 -14.483700 -20.961000
24
Fragment
O -15.624100 -5.425900 -17.430900
C -14.733800 -6.239700 -17.748400
H -14.551600 -7.535800 -16.265400
N -14.262800 -7.288400 -17.039200
H -14.139400 -5.838500 -19.515900
N -14.035400 -6.291400 -18.923000
N -13.312400 -8.000200 -17.725900
C -13.201700 -7.361600 -18.855500
O -12.364400 -7.111200 -21.019100
C -12.327400 -7.754800 -19.990500
O -11.598500 -8.806500 -19.719600
H -11.181100 -9.043400 -20.409000
H -10.415200 -10.866200 -17.982900
O -9.997800 -11.103100 -18.672300
C -9.269000 -12.154800 -18.401400
O -9.231900 -12.798400 -17.372800
C -8.394600 -12.548000 -19.536400
N -8.283900 -11.909400 -20.666000
N -7.560900 -13.618200 -19.468900
H -7.456900 -14.071100 -18.876000
N -7.333500 -12.621200 -21.352700
H -7.044700 -12.373800 -22.126500
C -6.862500 -13.669900 -20.643400
O -5.972200 -14.483700 -20.961000
