12
Fragment
O -15.624100 -5.425900 -17.430900
C -14.733800 -6.239700 -17.748400
H -14.551600 -7.535800 -16.265400
N -14.262800 -7.288400 -17.039200
H -14.139400 -5.838500 -19.515900
N -14.035400 -6.291400 -18.923000
N -13.312400 -8.000200 -17.725900
C -13.201700 -7.361600 -18.855500
O -12.364400 -7.111200 -21.019100
C -12.327400 -7.754800 -19.990500
O -11.598500 -8.806500 -19.719600
H -11.181100 -9.043400 -20.409000
3
Fragment
H -12.135900 -4.474700 -17.174000
H -11.900200 -5.335800 -16.137400
O -11.499600 -5.151100 -16.902200
15
Fragment
O -15.624100 -5.425900 -17.430900
C -14.733800 -6.239700 -17.748400
H -14.551600 -7.535800 -16.265400
N -14.262800 -7.288400 -17.039200
H -14.139400 -5.838500 -19.515900
N -14.035400 -6.291400 -18.923000
N -13.312400 -8.000200 -17.725900
C -13.201700 -7.361600 -18.855500
O -12.364400 -7.111200 -21.019100
C -12.327400 -7.754800 -19.990500
O -11.598500 -8.806500 -19.719600
H -11.181100 -9.043400 -20.409000
H -12.135900 -4.474700 -17.174000
H -11.900200 -5.335800 -16.137400
O -11.499600 -5.151100 -16.902200
