12
Fragment
O -15.624100 -5.425900 -17.430900
C -14.733800 -6.239700 -17.748400
H -14.551600 -7.535800 -16.265400
N -14.262800 -7.288400 -17.039200
H -14.139400 -5.838500 -19.515900
N -14.035400 -6.291400 -18.923000
N -13.312400 -8.000200 -17.725900
C -13.201700 -7.361600 -18.855500
O -12.364400 -7.111200 -21.019100
C -12.327400 -7.754800 -19.990500
O -11.598500 -8.806500 -19.719600
H -11.181100 -9.043400 -20.409000
12
Fragment
H -19.843200 -6.554700 -11.584200
O -19.425700 -6.317800 -12.273600
C -18.696900 -5.266100 -12.002700
O -18.659900 -4.622500 -10.974200
C -17.822600 -4.872900 -13.137700
N -17.711900 -5.511500 -14.267300
N -16.988900 -3.802700 -13.070300
H -16.884800 -3.349800 -12.477400
N -16.761500 -4.799700 -14.954000
H -16.472600 -5.047100 -15.727900
C -16.290500 -3.751000 -14.244800
O -15.400200 -2.937200 -14.562300
24
Fragment
O -15.624100 -5.425900 -17.430900
C -14.733800 -6.239700 -17.748400
H -14.551600 -7.535800 -16.265400
N -14.262800 -7.288400 -17.039200
H -14.139400 -5.838500 -19.515900
N -14.035400 -6.291400 -18.923000
N -13.312400 -8.000200 -17.725900
C -13.201700 -7.361600 -18.855500
O -12.364400 -7.111200 -21.019100
C -12.327400 -7.754800 -19.990500
O -11.598500 -8.806500 -19.719600
H -11.181100 -9.043400 -20.409000
H -19.843200 -6.554700 -11.584200
O -19.425700 -6.317800 -12.273600
C -18.696900 -5.266100 -12.002700
O -18.659900 -4.622500 -10.974200
C -17.822600 -4.872900 -13.137700
N -17.711900 -5.511500 -14.267300
N -16.988900 -3.802700 -13.070300
H -16.884800 -3.349800 -12.477400
N -16.761500 -4.799700 -14.954000
H -16.472600 -5.047100 -15.727900
C -16.290500 -3.751000 -14.244800
O -15.400200 -2.937200 -14.562300
