19
Fragment
H -11.252400 -11.493400 -21.196800
N -10.581300 -9.691800 -20.988300
N -10.501600 -11.068900 -21.271200
H -10.233400 -9.264700 -21.661500
H -10.201800 -13.629800 -21.375000
H -10.087400 -9.500400 -20.272500
C -9.387700 -13.176000 -21.189900
C -9.350200 -11.790300 -21.063300
N -8.235800 -11.102500 -20.764700
C -8.205400 -13.866800 -21.037500
H -8.197900 -14.812800 -21.124200
C -7.105000 -11.813200 -20.611700
C -7.027800 -13.192200 -20.758700
H -6.458600 -9.365700 -19.823000
H -6.218000 -9.473500 -21.222200
H -6.201700 -13.653400 -20.672200
N -5.975000 -11.110000 -20.218200
N -5.916700 -9.705200 -20.383000
H -5.235200 -11.520300 -20.393400
19
Fragment
H -17.654200 -8.153800 -24.167000
N -16.972700 -6.338700 -24.177500
N -16.914300 -7.743400 -24.342200
H -16.687600 -10.286800 -23.888200
H -16.671300 -6.106900 -23.338200
H -16.430800 -5.999200 -24.737400
C -15.861500 -9.825600 -23.801800
C -15.784300 -8.446700 -23.948700
H -14.691500 -11.446300 -23.436200
C -14.683900 -10.500300 -23.522900
N -14.653600 -7.736000 -23.795800
C -13.539100 -8.423800 -23.497100
C -13.501700 -9.809500 -23.370500
H -12.801900 -6.133900 -24.288000
H -12.687500 -10.263300 -23.185400
H -12.656000 -5.898200 -22.899000
N -12.387700 -7.702300 -23.289200
N -12.308100 -6.325300 -23.572100
H -11.637000 -8.126900 -23.363700
38
Fragment
H -11.252400 -11.493400 -21.196800
N -10.581300 -9.691800 -20.988300
N -10.501600 -11.068900 -21.271200
H -10.233400 -9.264700 -21.661500
H -10.201800 -13.629800 -21.375000
H -10.087400 -9.500400 -20.272500
C -9.387700 -13.176000 -21.189900
C -9.350200 -11.790300 -21.063300
N -8.235800 -11.102500 -20.764700
C -8.205400 -13.866800 -21.037500
H -8.197900 -14.812800 -21.124200
C -7.105000 -11.813200 -20.611700
C -7.027800 -13.192200 -20.758700
H -6.458600 -9.365700 -19.823000
H -6.218000 -9.473500 -21.222200
H -6.201700 -13.653400 -20.672200
N -5.975000 -11.110000 -20.218200
N -5.916700 -9.705200 -20.383000
H -5.235200 -11.520300 -20.393400
H -17.654200 -8.153800 -24.167000
N -16.972700 -6.338700 -24.177500
N -16.914300 -7.743400 -24.342200
H -16.687600 -10.286800 -23.888200
H -16.671300 -6.106900 -23.338200
H -16.430800 -5.999200 -24.737400
C -15.861500 -9.825600 -23.801800
C -15.784300 -8.446700 -23.948700
H -14.691500 -11.446300 -23.436200
C -14.683900 -10.500300 -23.522900
N -14.653600 -7.736000 -23.795800
C -13.539100 -8.423800 -23.497100
C -13.501700 -9.809500 -23.370500
H -12.801900 -6.133900 -24.288000
H -12.687500 -10.263300 -23.185400
H -12.656000 -5.898200 -22.899000
N -12.387700 -7.702300 -23.289200
N -12.308100 -6.325300 -23.572100
H -11.637000 -8.126900 -23.363700
