19
Fragment
H -11.252400 -11.493400 -21.196800
N -10.581300 -9.691800 -20.988300
N -10.501600 -11.068900 -21.271200
H -10.233400 -9.264700 -21.661500
H -10.201800 -13.629800 -21.375000
H -10.087400 -9.500400 -20.272500
C -9.387700 -13.176000 -21.189900
C -9.350200 -11.790300 -21.063300
N -8.235800 -11.102500 -20.764700
C -8.205400 -13.866800 -21.037500
H -8.197900 -14.812800 -21.124200
C -7.105000 -11.813200 -20.611700
C -7.027800 -13.192200 -20.758700
H -6.458600 -9.365700 -19.823000
H -6.218000 -9.473500 -21.222200
H -6.201700 -13.653400 -20.672200
N -5.975000 -11.110000 -20.218200
N -5.916700 -9.705200 -20.383000
H -5.235200 -11.520300 -20.393400
19
Fragment
H -11.252400 -4.760300 -21.196800
N -10.581300 -2.958700 -20.988300
N -10.501600 -4.335800 -21.271200
H -10.233400 -2.531600 -21.661500
H -10.201800 -6.896700 -21.375000
H -10.087400 -2.767300 -20.272500
C -9.387700 -6.442900 -21.189900
C -9.350200 -5.057200 -21.063300
N -8.235800 -4.369400 -20.764700
C -8.205400 -7.133700 -21.037500
H -8.197900 -8.079700 -21.124200
C -7.105000 -5.080100 -20.611700
C -7.027800 -6.459100 -20.758700
H -6.458600 -2.632600 -19.823000
H -6.218000 -2.740400 -21.222200
H -6.201700 -6.920300 -20.672200
N -5.975000 -4.376900 -20.218200
N -5.916700 -2.972100 -20.383000
H -5.235200 -4.787200 -20.393400
38
Fragment
H -11.252400 -11.493400 -21.196800
N -10.581300 -9.691800 -20.988300
N -10.501600 -11.068900 -21.271200
H -10.233400 -9.264700 -21.661500
H -10.201800 -13.629800 -21.375000
H -10.087400 -9.500400 -20.272500
C -9.387700 -13.176000 -21.189900
C -9.350200 -11.790300 -21.063300
N -8.235800 -11.102500 -20.764700
C -8.205400 -13.866800 -21.037500
H -8.197900 -14.812800 -21.124200
C -7.105000 -11.813200 -20.611700
C -7.027800 -13.192200 -20.758700
H -6.458600 -9.365700 -19.823000
H -6.218000 -9.473500 -21.222200
H -6.201700 -13.653400 -20.672200
N -5.975000 -11.110000 -20.218200
N -5.916700 -9.705200 -20.383000
H -5.235200 -11.520300 -20.393400
H -11.252400 -4.760300 -21.196800
N -10.581300 -2.958700 -20.988300
N -10.501600 -4.335800 -21.271200
H -10.233400 -2.531600 -21.661500
H -10.201800 -6.896700 -21.375000
H -10.087400 -2.767300 -20.272500
C -9.387700 -6.442900 -21.189900
C -9.350200 -5.057200 -21.063300
N -8.235800 -4.369400 -20.764700
C -8.205400 -7.133700 -21.037500
H -8.197900 -8.079700 -21.124200
C -7.105000 -5.080100 -20.611700
C -7.027800 -6.459100 -20.758700
H -6.458600 -2.632600 -19.823000
H -6.218000 -2.740400 -21.222200
H -6.201700 -6.920300 -20.672200
N -5.975000 -4.376900 -20.218200
N -5.916700 -2.972100 -20.383000
H -5.235200 -4.787200 -20.393400
