19
Fragment
H -11.252400 -11.493400 -21.196800
N -10.581300 -9.691800 -20.988300
N -10.501600 -11.068900 -21.271200
H -10.233400 -9.264700 -21.661500
H -10.201800 -13.629800 -21.375000
H -10.087400 -9.500400 -20.272500
C -9.387700 -13.176000 -21.189900
C -9.350200 -11.790300 -21.063300
N -8.235800 -11.102500 -20.764700
C -8.205400 -13.866800 -21.037500
H -8.197900 -14.812800 -21.124200
C -7.105000 -11.813200 -20.611700
C -7.027800 -13.192200 -20.758700
H -6.458600 -9.365700 -19.823000
H -6.218000 -9.473500 -21.222200
H -6.201700 -13.653400 -20.672200
N -5.975000 -11.110000 -20.218200
N -5.916700 -9.705200 -20.383000
H -5.235200 -11.520300 -20.393400
19
Fragment
H -10.260600 -8.679000 -17.801300
N -9.579100 -10.494100 -17.811700
N -9.520800 -9.089300 -17.976400
H -9.294100 -6.545900 -17.522400
H -9.277800 -10.725800 -16.972400
H -9.037200 -10.833600 -18.371600
C -8.468000 -7.007100 -17.436000
C -8.390800 -8.386100 -17.582900
H -7.298000 -5.386500 -17.070500
C -7.290400 -6.332500 -17.157200
N -7.260000 -9.096800 -17.430000
C -6.145600 -8.409000 -17.131300
C -6.108100 -7.023300 -17.004800
H -5.408400 -10.698900 -17.922200
H -5.294000 -6.569500 -16.819700
H -5.262400 -10.934600 -16.533200
N -4.994200 -9.130400 -16.923400
N -4.914500 -10.507500 -17.206300
H -4.243400 -8.705900 -16.997900
38
Fragment
H -11.252400 -11.493400 -21.196800
N -10.581300 -9.691800 -20.988300
N -10.501600 -11.068900 -21.271200
H -10.233400 -9.264700 -21.661500
H -10.201800 -13.629800 -21.375000
H -10.087400 -9.500400 -20.272500
C -9.387700 -13.176000 -21.189900
C -9.350200 -11.790300 -21.063300
N -8.235800 -11.102500 -20.764700
C -8.205400 -13.866800 -21.037500
H -8.197900 -14.812800 -21.124200
C -7.105000 -11.813200 -20.611700
C -7.027800 -13.192200 -20.758700
H -6.458600 -9.365700 -19.823000
H -6.218000 -9.473500 -21.222200
H -6.201700 -13.653400 -20.672200
N -5.975000 -11.110000 -20.218200
N -5.916700 -9.705200 -20.383000
H -5.235200 -11.520300 -20.393400
H -10.260600 -8.679000 -17.801300
N -9.579100 -10.494100 -17.811700
N -9.520800 -9.089300 -17.976400
H -9.294100 -6.545900 -17.522400
H -9.277800 -10.725800 -16.972400
H -9.037200 -10.833600 -18.371600
C -8.468000 -7.007100 -17.436000
C -8.390800 -8.386100 -17.582900
H -7.298000 -5.386500 -17.070500
C -7.290400 -6.332500 -17.157200
N -7.260000 -9.096800 -17.430000
C -6.145600 -8.409000 -17.131300
C -6.108100 -7.023300 -17.004800
H -5.408400 -10.698900 -17.922200
H -5.294000 -6.569500 -16.819700
H -5.262400 -10.934600 -16.533200
N -4.994200 -9.130400 -16.923400
N -4.914500 -10.507500 -17.206300
H -4.243400 -8.705900 -16.997900
