42
Fragment
H -14.859200 -13.376300 -33.993100
N -14.848000 -17.623800 -35.233500
H -14.155200 -14.676200 -35.759300
C -14.043300 -17.480100 -36.046700
C -13.929500 -13.504300 -34.140700
C -13.508600 -14.283500 -35.184500
H -13.410500 -15.377500 -37.604900
H -13.329900 -19.908600 -36.538000
H -13.291200 -12.338000 -32.565200
C -13.068900 -17.341900 -37.080800
C -12.991600 -12.888600 -33.278300
N -12.817900 -19.744400 -37.233500
C -12.606400 -15.965800 -37.516200
C -12.598500 -18.481500 -37.621100
H -12.448400 -20.410400 -37.675300
C -12.133600 -14.517500 -35.428300
O -12.001300 -13.776100 -39.300300
C -11.969100 -16.106400 -38.879200
O -11.777300 -18.483800 -38.734600
C -11.712000 -14.911800 -39.651500
C -11.657000 -13.088900 -33.475800
C -11.639200 -15.316300 -36.505300
C -11.607700 -17.294700 -39.390000
C -11.182700 -13.903300 -34.542700
O -11.072700 -15.029600 -40.858100
H -11.031500 -12.677300 -32.889900
C -10.992200 -17.439200 -40.691900
H -10.795800 -19.486000 -40.814900
C -10.737100 -16.257200 -41.388400
C -10.633200 -18.671600 -41.274900
C -10.283500 -15.552700 -36.619000
C -10.160800 -16.266600 -42.647800
C -10.040400 -18.681000 -42.528000
H -10.004800 -15.453700 -43.114600
H -9.964200 -16.114300 -37.314400
C -9.814200 -17.486400 -43.216700
C -9.794100 -14.158600 -34.719600
H -9.785500 -19.506400 -42.921600
H -9.419800 -17.508400 -44.081700
C -9.362700 -14.970700 -35.714400
H -9.163100 -13.755700 -34.133900
H -8.434700 -15.151300 -35.807000
42
Fragment
H -9.189000 -14.113000 -45.343900
N -9.177800 -9.865500 -46.584300
H -8.485100 -12.813200 -47.110000
C -8.373200 -10.009300 -47.397400
C -8.259300 -13.985000 -45.491400
C -7.838400 -13.205900 -46.535200
H -7.740300 -12.111800 -48.955700
H -7.659700 -7.580800 -47.888700
H -7.621000 -15.151300 -43.915900
C -7.398700 -10.147500 -48.431500
C -7.321400 -14.600800 -44.629000
N -7.147700 -7.744900 -48.584300
C -6.936200 -11.523500 -48.866900
C -6.928300 -9.007900 -48.971800
H -6.778200 -7.078900 -49.026000
C -6.463400 -12.971800 -46.779000
O -6.331100 -13.713300 -50.651000
C -6.299000 -11.382900 -50.229900
O -6.107100 -9.005500 -50.085300
C -6.041800 -12.577600 -51.002200
C -5.986800 -14.400500 -44.826500
C -5.969100 -12.173100 -47.856000
C -5.937500 -10.194600 -50.740700
C -5.512500 -13.586000 -45.893500
O -5.402600 -12.459700 -52.208800
H -5.361300 -14.812000 -44.240600
C -5.322000 -10.050100 -52.042600
H -5.125600 -8.003300 -52.165600
C -5.066900 -11.232100 -52.739100
C -4.963000 -8.817800 -52.625600
C -4.613300 -11.936700 -47.969700
C -4.490600 -11.222700 -53.998600
C -4.370200 -8.808400 -53.878700
H -4.334600 -12.035600 -54.465300
H -4.294000 -11.375100 -48.665100
C -4.144000 -10.003000 -54.567500
C -4.123900 -13.330800 -46.070300
H -4.115300 -7.982900 -54.272300
H -3.749600 -9.981000 -55.432400
C -3.692500 -12.518600 -47.065100
H -3.492900 -13.733700 -45.484600
H -2.764500 -12.338000 -47.157700
84
Fragment
H -14.859200 -13.376300 -33.993100
N -14.848000 -17.623800 -35.233500
H -14.155200 -14.676200 -35.759300
C -14.043300 -17.480100 -36.046700
C -13.929500 -13.504300 -34.140700
C -13.508600 -14.283500 -35.184500
H -13.410500 -15.377500 -37.604900
H -13.329900 -19.908600 -36.538000
H -13.291200 -12.338000 -32.565200
C -13.068900 -17.341900 -37.080800
C -12.991600 -12.888600 -33.278300
N -12.817900 -19.744400 -37.233500
C -12.606400 -15.965800 -37.516200
C -12.598500 -18.481500 -37.621100
H -12.448400 -20.410400 -37.675300
C -12.133600 -14.517500 -35.428300
O -12.001300 -13.776100 -39.300300
C -11.969100 -16.106400 -38.879200
O -11.777300 -18.483800 -38.734600
C -11.712000 -14.911800 -39.651500
C -11.657000 -13.088900 -33.475800
C -11.639200 -15.316300 -36.505300
C -11.607700 -17.294700 -39.390000
C -11.182700 -13.903300 -34.542700
O -11.072700 -15.029600 -40.858100
H -11.031500 -12.677300 -32.889900
C -10.992200 -17.439200 -40.691900
H -10.795800 -19.486000 -40.814900
C -10.737100 -16.257200 -41.388400
C -10.633200 -18.671600 -41.274900
C -10.283500 -15.552700 -36.619000
C -10.160800 -16.266600 -42.647800
C -10.040400 -18.681000 -42.528000
H -10.004800 -15.453700 -43.114600
H -9.964200 -16.114300 -37.314400
C -9.814200 -17.486400 -43.216700
C -9.794100 -14.158600 -34.719600
H -9.785500 -19.506400 -42.921600
H -9.419800 -17.508400 -44.081700
C -9.362700 -14.970700 -35.714400
H -9.163100 -13.755700 -34.133900
H -8.434700 -15.151300 -35.807000
H -9.189000 -14.113000 -45.343900
N -9.177800 -9.865500 -46.584300
H -8.485100 -12.813200 -47.110000
C -8.373200 -10.009300 -47.397400
C -8.259300 -13.985000 -45.491400
C -7.838400 -13.205900 -46.535200
H -7.740300 -12.111800 -48.955700
H -7.659700 -7.580800 -47.888700
H -7.621000 -15.151300 -43.915900
C -7.398700 -10.147500 -48.431500
C -7.321400 -14.600800 -44.629000
N -7.147700 -7.744900 -48.584300
C -6.936200 -11.523500 -48.866900
C -6.928300 -9.007900 -48.971800
H -6.778200 -7.078900 -49.026000
C -6.463400 -12.971800 -46.779000
O -6.331100 -13.713300 -50.651000
C -6.299000 -11.382900 -50.229900
O -6.107100 -9.005500 -50.085300
C -6.041800 -12.577600 -51.002200
C -5.986800 -14.400500 -44.826500
C -5.969100 -12.173100 -47.856000
C -5.937500 -10.194600 -50.740700
C -5.512500 -13.586000 -45.893500
O -5.402600 -12.459700 -52.208800
H -5.361300 -14.812000 -44.240600
C -5.322000 -10.050100 -52.042600
H -5.125600 -8.003300 -52.165600
C -5.066900 -11.232100 -52.739100
C -4.963000 -8.817800 -52.625600
C -4.613300 -11.936700 -47.969700
C -4.490600 -11.222700 -53.998600
C -4.370200 -8.808400 -53.878700
H -4.334600 -12.035600 -54.465300
H -4.294000 -11.375100 -48.665100
C -4.144000 -10.003000 -54.567500
C -4.123900 -13.330800 -46.070300
H -4.115300 -7.982900 -54.272300
H -3.749600 -9.981000 -55.432400
C -3.692500 -12.518600 -47.065100
H -3.492900 -13.733700 -45.484600
H -2.764500 -12.338000 -47.157700
