42
Fragment
H -14.859200 -13.376300 -33.993100
N -14.848000 -17.623800 -35.233500
H -14.155200 -14.676200 -35.759300
C -14.043300 -17.480100 -36.046700
C -13.929500 -13.504300 -34.140700
C -13.508600 -14.283500 -35.184500
H -13.410500 -15.377500 -37.604900
H -13.329900 -19.908600 -36.538000
H -13.291200 -12.338000 -32.565200
C -13.068900 -17.341900 -37.080800
C -12.991600 -12.888600 -33.278300
N -12.817900 -19.744400 -37.233500
C -12.606400 -15.965800 -37.516200
C -12.598500 -18.481500 -37.621100
H -12.448400 -20.410400 -37.675300
C -12.133600 -14.517500 -35.428300
O -12.001300 -13.776100 -39.300300
C -11.969100 -16.106400 -38.879200
O -11.777300 -18.483800 -38.734600
C -11.712000 -14.911800 -39.651500
C -11.657000 -13.088900 -33.475800
C -11.639200 -15.316300 -36.505300
C -11.607700 -17.294700 -39.390000
C -11.182700 -13.903300 -34.542700
O -11.072700 -15.029600 -40.858100
H -11.031500 -12.677300 -32.889900
C -10.992200 -17.439200 -40.691900
H -10.795800 -19.486000 -40.814900
C -10.737100 -16.257200 -41.388400
C -10.633200 -18.671600 -41.274900
C -10.283500 -15.552700 -36.619000
C -10.160800 -16.266600 -42.647800
C -10.040400 -18.681000 -42.528000
H -10.004800 -15.453700 -43.114600
H -9.964200 -16.114300 -37.314400
C -9.814200 -17.486400 -43.216700
C -9.794100 -14.158600 -34.719600
H -9.785500 -19.506400 -42.921600
H -9.419800 -17.508400 -44.081700
C -9.362700 -14.970700 -35.714400
H -9.163100 -13.755700 -34.133900
H -8.434700 -15.151300 -35.807000
42
Fragment
H -20.529400 -21.967100 -22.642400
N -20.518200 -17.719600 -23.882800
H -19.825400 -20.667300 -24.408600
C -19.713500 -17.863400 -24.696000
C -19.599600 -21.839100 -22.790000
C -19.178800 -21.060000 -23.833800
H -19.080600 -19.965900 -26.254200
H -19.000100 -15.434900 -25.187300
H -18.961400 -23.005400 -21.214500
C -18.739000 -18.001600 -25.730000
C -18.661800 -22.454900 -21.927600
N -18.488100 -15.599000 -25.882800
C -18.276600 -19.377600 -26.165500
C -18.268700 -16.862000 -26.270300
H -18.118600 -14.933000 -26.324600
C -17.803800 -20.825900 -24.077600
O -17.671500 -21.567400 -27.949600
C -17.639300 -19.237000 -27.528500
O -17.447400 -16.859600 -27.383800
C -17.382200 -20.431700 -28.300800
C -17.327200 -22.254600 -22.125100
C -17.309400 -20.027200 -25.154600
C -17.277900 -18.048700 -28.039200
C -16.852900 -21.440100 -23.192000
O -16.742900 -20.313800 -29.507300
H -16.701700 -22.666100 -21.539100
C -16.662400 -17.904200 -29.341200
H -16.466000 -15.857400 -29.464200
C -16.407200 -19.086200 -30.037600
C -16.303400 -16.671900 -29.924100
C -15.953700 -19.790800 -25.268300
C -15.831000 -19.076800 -31.297100
C -15.710600 -16.662500 -31.177300
H -15.674900 -19.889700 -31.763900
H -15.634300 -19.229200 -25.963600
C -15.484400 -17.857100 -31.866000
C -15.464300 -21.184900 -23.368900
H -15.455700 -15.837000 -31.570900
H -15.090000 -17.835100 -32.730900
C -15.032900 -20.372700 -24.363600
H -14.833300 -21.587800 -22.783200
H -14.104900 -20.192100 -24.456300
84
Fragment
H -14.859200 -13.376300 -33.993100
N -14.848000 -17.623800 -35.233500
H -14.155200 -14.676200 -35.759300
C -14.043300 -17.480100 -36.046700
C -13.929500 -13.504300 -34.140700
C -13.508600 -14.283500 -35.184500
H -13.410500 -15.377500 -37.604900
H -13.329900 -19.908600 -36.538000
H -13.291200 -12.338000 -32.565200
C -13.068900 -17.341900 -37.080800
C -12.991600 -12.888600 -33.278300
N -12.817900 -19.744400 -37.233500
C -12.606400 -15.965800 -37.516200
C -12.598500 -18.481500 -37.621100
H -12.448400 -20.410400 -37.675300
C -12.133600 -14.517500 -35.428300
O -12.001300 -13.776100 -39.300300
C -11.969100 -16.106400 -38.879200
O -11.777300 -18.483800 -38.734600
C -11.712000 -14.911800 -39.651500
C -11.657000 -13.088900 -33.475800
C -11.639200 -15.316300 -36.505300
C -11.607700 -17.294700 -39.390000
C -11.182700 -13.903300 -34.542700
O -11.072700 -15.029600 -40.858100
H -11.031500 -12.677300 -32.889900
C -10.992200 -17.439200 -40.691900
H -10.795800 -19.486000 -40.814900
C -10.737100 -16.257200 -41.388400
C -10.633200 -18.671600 -41.274900
C -10.283500 -15.552700 -36.619000
C -10.160800 -16.266600 -42.647800
C -10.040400 -18.681000 -42.528000
H -10.004800 -15.453700 -43.114600
H -9.964200 -16.114300 -37.314400
C -9.814200 -17.486400 -43.216700
C -9.794100 -14.158600 -34.719600
H -9.785500 -19.506400 -42.921600
H -9.419800 -17.508400 -44.081700
C -9.362700 -14.970700 -35.714400
H -9.163100 -13.755700 -34.133900
H -8.434700 -15.151300 -35.807000
H -20.529400 -21.967100 -22.642400
N -20.518200 -17.719600 -23.882800
H -19.825400 -20.667300 -24.408600
C -19.713500 -17.863400 -24.696000
C -19.599600 -21.839100 -22.790000
C -19.178800 -21.060000 -23.833800
H -19.080600 -19.965900 -26.254200
H -19.000100 -15.434900 -25.187300
H -18.961400 -23.005400 -21.214500
C -18.739000 -18.001600 -25.730000
C -18.661800 -22.454900 -21.927600
N -18.488100 -15.599000 -25.882800
C -18.276600 -19.377600 -26.165500
C -18.268700 -16.862000 -26.270300
H -18.118600 -14.933000 -26.324600
C -17.803800 -20.825900 -24.077600
O -17.671500 -21.567400 -27.949600
C -17.639300 -19.237000 -27.528500
O -17.447400 -16.859600 -27.383800
C -17.382200 -20.431700 -28.300800
C -17.327200 -22.254600 -22.125100
C -17.309400 -20.027200 -25.154600
C -17.277900 -18.048700 -28.039200
C -16.852900 -21.440100 -23.192000
O -16.742900 -20.313800 -29.507300
H -16.701700 -22.666100 -21.539100
C -16.662400 -17.904200 -29.341200
H -16.466000 -15.857400 -29.464200
C -16.407200 -19.086200 -30.037600
C -16.303400 -16.671900 -29.924100
C -15.953700 -19.790800 -25.268300
C -15.831000 -19.076800 -31.297100
C -15.710600 -16.662500 -31.177300
H -15.674900 -19.889700 -31.763900
H -15.634300 -19.229200 -25.963600
C -15.484400 -17.857100 -31.866000
C -15.464300 -21.184900 -23.368900
H -15.455700 -15.837000 -31.570900
H -15.090000 -17.835100 -32.730900
C -15.032900 -20.372700 -24.363600
H -14.833300 -21.587800 -22.783200
H -14.104900 -20.192100 -24.456300
