42
Fragment
H -14.859200 -13.376300 -33.993100
N -14.848000 -17.623800 -35.233500
H -14.155200 -14.676200 -35.759300
C -14.043300 -17.480100 -36.046700
C -13.929500 -13.504300 -34.140700
C -13.508600 -14.283500 -35.184500
H -13.410500 -15.377500 -37.604900
H -13.329900 -19.908600 -36.538000
H -13.291200 -12.338000 -32.565200
C -13.068900 -17.341900 -37.080800
C -12.991600 -12.888600 -33.278300
N -12.817900 -19.744400 -37.233500
C -12.606400 -15.965800 -37.516200
C -12.598500 -18.481500 -37.621100
H -12.448400 -20.410400 -37.675300
C -12.133600 -14.517500 -35.428300
O -12.001300 -13.776100 -39.300300
C -11.969100 -16.106400 -38.879200
O -11.777300 -18.483800 -38.734600
C -11.712000 -14.911800 -39.651500
C -11.657000 -13.088900 -33.475800
C -11.639200 -15.316300 -36.505300
C -11.607700 -17.294700 -39.390000
C -11.182700 -13.903300 -34.542700
O -11.072700 -15.029600 -40.858100
H -11.031500 -12.677300 -32.889900
C -10.992200 -17.439200 -40.691900
H -10.795800 -19.486000 -40.814900
C -10.737100 -16.257200 -41.388400
C -10.633200 -18.671600 -41.274900
C -10.283500 -15.552700 -36.619000
C -10.160800 -16.266600 -42.647800
C -10.040400 -18.681000 -42.528000
H -10.004800 -15.453700 -43.114600
H -9.964200 -16.114300 -37.314400
C -9.814200 -17.486400 -43.216700
C -9.794100 -14.158600 -34.719600
H -9.785500 -19.506400 -42.921600
H -9.419800 -17.508400 -44.081700
C -9.362700 -14.970700 -35.714400
H -9.163100 -13.755700 -34.133900
H -8.434700 -15.151300 -35.807000
42
Fragment
H -14.859200 -5.522200 -33.993100
N -14.848000 -9.769700 -35.233500
H -14.155200 -6.822100 -35.759300
C -14.043300 -9.626000 -36.046700
C -13.929500 -5.650200 -34.140700
C -13.508600 -6.429400 -35.184500
H -13.410500 -7.523400 -37.604900
H -13.329900 -12.054500 -36.538000
H -13.291200 -4.483900 -32.565200
C -13.068900 -9.487800 -37.080800
C -12.991600 -5.034500 -33.278300
N -12.817900 -11.890300 -37.233500
C -12.606400 -8.111700 -37.516200
C -12.598500 -10.627400 -37.621100
H -12.448400 -12.556300 -37.675300
C -12.133600 -6.663400 -35.428300
O -12.001300 -5.922000 -39.300300
C -11.969100 -8.252300 -38.879200
O -11.777300 -10.629700 -38.734600
C -11.712000 -7.057700 -39.651500
C -11.657000 -5.234800 -33.475800
C -11.639200 -7.462200 -36.505300
C -11.607700 -9.440600 -39.390000
C -11.182700 -6.049200 -34.542700
O -11.072700 -7.175500 -40.858100
H -11.031500 -4.823200 -32.889900
C -10.992200 -9.585100 -40.691900
H -10.795800 -11.631900 -40.814900
C -10.737100 -8.403100 -41.388400
C -10.633200 -10.817500 -41.274900
C -10.283500 -7.698600 -36.619000
C -10.160800 -8.412500 -42.647800
C -10.040400 -10.826900 -42.528000
H -10.004800 -7.599600 -43.114600
H -9.964200 -8.260200 -37.314400
C -9.814200 -9.632300 -43.216700
C -9.794100 -6.304500 -34.719600
H -9.785500 -11.652300 -42.921600
H -9.419800 -9.654300 -44.081700
C -9.362700 -7.116600 -35.714400
H -9.163100 -5.901600 -34.133900
H -8.434700 -7.297200 -35.807000
84
Fragment
H -14.859200 -13.376300 -33.993100
N -14.848000 -17.623800 -35.233500
H -14.155200 -14.676200 -35.759300
C -14.043300 -17.480100 -36.046700
C -13.929500 -13.504300 -34.140700
C -13.508600 -14.283500 -35.184500
H -13.410500 -15.377500 -37.604900
H -13.329900 -19.908600 -36.538000
H -13.291200 -12.338000 -32.565200
C -13.068900 -17.341900 -37.080800
C -12.991600 -12.888600 -33.278300
N -12.817900 -19.744400 -37.233500
C -12.606400 -15.965800 -37.516200
C -12.598500 -18.481500 -37.621100
H -12.448400 -20.410400 -37.675300
C -12.133600 -14.517500 -35.428300
O -12.001300 -13.776100 -39.300300
C -11.969100 -16.106400 -38.879200
O -11.777300 -18.483800 -38.734600
C -11.712000 -14.911800 -39.651500
C -11.657000 -13.088900 -33.475800
C -11.639200 -15.316300 -36.505300
C -11.607700 -17.294700 -39.390000
C -11.182700 -13.903300 -34.542700
O -11.072700 -15.029600 -40.858100
H -11.031500 -12.677300 -32.889900
C -10.992200 -17.439200 -40.691900
H -10.795800 -19.486000 -40.814900
C -10.737100 -16.257200 -41.388400
C -10.633200 -18.671600 -41.274900
C -10.283500 -15.552700 -36.619000
C -10.160800 -16.266600 -42.647800
C -10.040400 -18.681000 -42.528000
H -10.004800 -15.453700 -43.114600
H -9.964200 -16.114300 -37.314400
C -9.814200 -17.486400 -43.216700
C -9.794100 -14.158600 -34.719600
H -9.785500 -19.506400 -42.921600
H -9.419800 -17.508400 -44.081700
C -9.362700 -14.970700 -35.714400
H -9.163100 -13.755700 -34.133900
H -8.434700 -15.151300 -35.807000
H -14.859200 -5.522200 -33.993100
N -14.848000 -9.769700 -35.233500
H -14.155200 -6.822100 -35.759300
C -14.043300 -9.626000 -36.046700
C -13.929500 -5.650200 -34.140700
C -13.508600 -6.429400 -35.184500
H -13.410500 -7.523400 -37.604900
H -13.329900 -12.054500 -36.538000
H -13.291200 -4.483900 -32.565200
C -13.068900 -9.487800 -37.080800
C -12.991600 -5.034500 -33.278300
N -12.817900 -11.890300 -37.233500
C -12.606400 -8.111700 -37.516200
C -12.598500 -10.627400 -37.621100
H -12.448400 -12.556300 -37.675300
C -12.133600 -6.663400 -35.428300
O -12.001300 -5.922000 -39.300300
C -11.969100 -8.252300 -38.879200
O -11.777300 -10.629700 -38.734600
C -11.712000 -7.057700 -39.651500
C -11.657000 -5.234800 -33.475800
C -11.639200 -7.462200 -36.505300
C -11.607700 -9.440600 -39.390000
C -11.182700 -6.049200 -34.542700
O -11.072700 -7.175500 -40.858100
H -11.031500 -4.823200 -32.889900
C -10.992200 -9.585100 -40.691900
H -10.795800 -11.631900 -40.814900
C -10.737100 -8.403100 -41.388400
C -10.633200 -10.817500 -41.274900
C -10.283500 -7.698600 -36.619000
C -10.160800 -8.412500 -42.647800
C -10.040400 -10.826900 -42.528000
H -10.004800 -7.599600 -43.114600
H -9.964200 -8.260200 -37.314400
C -9.814200 -9.632300 -43.216700
C -9.794100 -6.304500 -34.719600
H -9.785500 -11.652300 -42.921600
H -9.419800 -9.654300 -44.081700
C -9.362700 -7.116600 -35.714400
H -9.163100 -5.901600 -34.133900
H -8.434700 -7.297200 -35.807000
