17
Fragment
H -9.358000 -16.851400 -65.392700
O -9.358000 -16.257000 -64.778300
N -9.358000 -15.147400 -66.819900
N -9.358000 -15.123900 -65.487700
N -9.358000 -14.389200 -62.564100
O -9.358000 -14.278600 -69.313500
C -9.358000 -13.866900 -65.006200
C -9.358000 -13.849700 -67.071100
N -9.358000 -13.630900 -61.460600
C -9.358000 -13.543100 -63.593100
N -9.358000 -13.405800 -68.447900
N -9.358000 -13.012200 -66.039300
N -9.358000 -12.355900 -61.757700
N -9.358000 -12.305700 -63.082200
O -9.358000 -12.209200 -68.667000
O -9.358000 -11.146700 -63.751700
H -9.358000 -10.523300 -63.166400
17
Fragment
H -9.358000 -24.692900 -65.392700
O -9.358000 -24.098500 -64.778300
N -9.358000 -22.988900 -66.819900
N -9.358000 -22.965400 -65.487700
N -9.358000 -22.230700 -62.564100
O -9.358000 -22.120100 -69.313500
C -9.358000 -21.708400 -65.006200
C -9.358000 -21.691200 -67.071100
N -9.358000 -21.472400 -61.460600
C -9.358000 -21.384600 -63.593100
N -9.358000 -21.247300 -68.447900
N -9.358000 -20.853700 -66.039300
N -9.358000 -20.197400 -61.757700
N -9.358000 -20.147200 -63.082200
O -9.358000 -20.050700 -68.667000
O -9.358000 -18.988200 -63.751700
H -9.358000 -18.364800 -63.166400
34
Fragment
H -9.358000 -16.851400 -65.392700
O -9.358000 -16.257000 -64.778300
N -9.358000 -15.147400 -66.819900
N -9.358000 -15.123900 -65.487700
N -9.358000 -14.389200 -62.564100
O -9.358000 -14.278600 -69.313500
C -9.358000 -13.866900 -65.006200
C -9.358000 -13.849700 -67.071100
N -9.358000 -13.630900 -61.460600
C -9.358000 -13.543100 -63.593100
N -9.358000 -13.405800 -68.447900
N -9.358000 -13.012200 -66.039300
N -9.358000 -12.355900 -61.757700
N -9.358000 -12.305700 -63.082200
O -9.358000 -12.209200 -68.667000
O -9.358000 -11.146700 -63.751700
H -9.358000 -10.523300 -63.166400
H -9.358000 -24.692900 -65.392700
O -9.358000 -24.098500 -64.778300
N -9.358000 -22.988900 -66.819900
N -9.358000 -22.965400 -65.487700
N -9.358000 -22.230700 -62.564100
O -9.358000 -22.120100 -69.313500
C -9.358000 -21.708400 -65.006200
C -9.358000 -21.691200 -67.071100
N -9.358000 -21.472400 -61.460600
C -9.358000 -21.384600 -63.593100
N -9.358000 -21.247300 -68.447900
N -9.358000 -20.853700 -66.039300
N -9.358000 -20.197400 -61.757700
N -9.358000 -20.147200 -63.082200
O -9.358000 -20.050700 -68.667000
O -9.358000 -18.988200 -63.751700
H -9.358000 -18.364800 -63.166400
