17
Fragment
H -9.358000 -16.851400 -65.392700
O -9.358000 -16.257000 -64.778300
N -9.358000 -15.147400 -66.819900
N -9.358000 -15.123900 -65.487700
N -9.358000 -14.389200 -62.564100
O -9.358000 -14.278600 -69.313500
C -9.358000 -13.866900 -65.006200
C -9.358000 -13.849700 -67.071100
N -9.358000 -13.630900 -61.460600
C -9.358000 -13.543100 -63.593100
N -9.358000 -13.405800 -68.447900
N -9.358000 -13.012200 -66.039300
N -9.358000 -12.355900 -61.757700
N -9.358000 -12.305700 -63.082200
O -9.358000 -12.209200 -68.667000
O -9.358000 -11.146700 -63.751700
H -9.358000 -10.523300 -63.166400
17
Fragment
H -6.238700 -12.930600 -65.392700
O -6.238700 -12.336200 -64.778300
N -6.238700 -11.226700 -66.819900
N -6.238700 -11.203200 -65.487700
N -6.238700 -10.468400 -62.564100
O -6.238700 -10.357800 -69.313500
C -6.238700 -9.946200 -65.006200
C -6.238700 -9.928900 -67.071100
N -6.238700 -9.710100 -61.460600
C -6.238700 -9.622300 -63.593100
N -6.238700 -9.485100 -68.447900
N -6.238700 -9.091400 -66.039300
N -6.238700 -8.435100 -61.757700
N -6.238700 -8.384900 -63.082200
O -6.238700 -8.288500 -68.667000
O -6.238700 -7.225900 -63.751700
H -6.238700 -6.602500 -63.166400
34
Fragment
H -9.358000 -16.851400 -65.392700
O -9.358000 -16.257000 -64.778300
N -9.358000 -15.147400 -66.819900
N -9.358000 -15.123900 -65.487700
N -9.358000 -14.389200 -62.564100
O -9.358000 -14.278600 -69.313500
C -9.358000 -13.866900 -65.006200
C -9.358000 -13.849700 -67.071100
N -9.358000 -13.630900 -61.460600
C -9.358000 -13.543100 -63.593100
N -9.358000 -13.405800 -68.447900
N -9.358000 -13.012200 -66.039300
N -9.358000 -12.355900 -61.757700
N -9.358000 -12.305700 -63.082200
O -9.358000 -12.209200 -68.667000
O -9.358000 -11.146700 -63.751700
H -9.358000 -10.523300 -63.166400
H -6.238700 -12.930600 -65.392700
O -6.238700 -12.336200 -64.778300
N -6.238700 -11.226700 -66.819900
N -6.238700 -11.203200 -65.487700
N -6.238700 -10.468400 -62.564100
O -6.238700 -10.357800 -69.313500
C -6.238700 -9.946200 -65.006200
C -6.238700 -9.928900 -67.071100
N -6.238700 -9.710100 -61.460600
C -6.238700 -9.622300 -63.593100
N -6.238700 -9.485100 -68.447900
N -6.238700 -9.091400 -66.039300
N -6.238700 -8.435100 -61.757700
N -6.238700 -8.384900 -63.082200
O -6.238700 -8.288500 -68.667000
O -6.238700 -7.225900 -63.751700
H -6.238700 -6.602500 -63.166400
