17
Fragment
H -9.358000 -16.851400 -65.392700
O -9.358000 -16.257000 -64.778300
N -9.358000 -15.147400 -66.819900
N -9.358000 -15.123900 -65.487700
N -9.358000 -14.389200 -62.564100
O -9.358000 -14.278600 -69.313500
C -9.358000 -13.866900 -65.006200
C -9.358000 -13.849700 -67.071100
N -9.358000 -13.630900 -61.460600
C -9.358000 -13.543100 -63.593100
N -9.358000 -13.405800 -68.447900
N -9.358000 -13.012200 -66.039300
N -9.358000 -12.355900 -61.757700
N -9.358000 -12.305700 -63.082200
O -9.358000 -12.209200 -68.667000
O -9.358000 -11.146700 -63.751700
H -9.358000 -10.523300 -63.166400
17
Fragment
H -6.238700 -20.772100 -65.392700
O -6.238700 -20.177700 -64.778300
N -6.238700 -19.068200 -66.819900
N -6.238700 -19.044700 -65.487700
N -6.238700 -18.309900 -62.564100
O -6.238700 -18.199300 -69.313500
C -6.238700 -17.787700 -65.006200
C -6.238700 -17.770400 -67.071100
N -6.238700 -17.551600 -61.460600
C -6.238700 -17.463800 -63.593100
N -6.238700 -17.326600 -68.447900
N -6.238700 -16.932900 -66.039300
N -6.238700 -16.276600 -61.757700
N -6.238700 -16.226400 -63.082200
O -6.238700 -16.130000 -68.667000
O -6.238700 -15.067400 -63.751700
H -6.238700 -14.444000 -63.166400
34
Fragment
H -9.358000 -16.851400 -65.392700
O -9.358000 -16.257000 -64.778300
N -9.358000 -15.147400 -66.819900
N -9.358000 -15.123900 -65.487700
N -9.358000 -14.389200 -62.564100
O -9.358000 -14.278600 -69.313500
C -9.358000 -13.866900 -65.006200
C -9.358000 -13.849700 -67.071100
N -9.358000 -13.630900 -61.460600
C -9.358000 -13.543100 -63.593100
N -9.358000 -13.405800 -68.447900
N -9.358000 -13.012200 -66.039300
N -9.358000 -12.355900 -61.757700
N -9.358000 -12.305700 -63.082200
O -9.358000 -12.209200 -68.667000
O -9.358000 -11.146700 -63.751700
H -9.358000 -10.523300 -63.166400
H -6.238700 -20.772100 -65.392700
O -6.238700 -20.177700 -64.778300
N -6.238700 -19.068200 -66.819900
N -6.238700 -19.044700 -65.487700
N -6.238700 -18.309900 -62.564100
O -6.238700 -18.199300 -69.313500
C -6.238700 -17.787700 -65.006200
C -6.238700 -17.770400 -67.071100
N -6.238700 -17.551600 -61.460600
C -6.238700 -17.463800 -63.593100
N -6.238700 -17.326600 -68.447900
N -6.238700 -16.932900 -66.039300
N -6.238700 -16.276600 -61.757700
N -6.238700 -16.226400 -63.082200
O -6.238700 -16.130000 -68.667000
O -6.238700 -15.067400 -63.751700
H -6.238700 -14.444000 -63.166400
