17
Fragment
H -9.358000 -16.851400 -65.392700
O -9.358000 -16.257000 -64.778300
N -9.358000 -15.147400 -66.819900
N -9.358000 -15.123900 -65.487700
N -9.358000 -14.389200 -62.564100
O -9.358000 -14.278600 -69.313500
C -9.358000 -13.866900 -65.006200
C -9.358000 -13.849700 -67.071100
N -9.358000 -13.630900 -61.460600
C -9.358000 -13.543100 -63.593100
N -9.358000 -13.405800 -68.447900
N -9.358000 -13.012200 -66.039300
N -9.358000 -12.355900 -61.757700
N -9.358000 -12.305700 -63.082200
O -9.358000 -12.209200 -68.667000
O -9.358000 -11.146700 -63.751700
H -9.358000 -10.523300 -63.166400
3
Fragment
H -12.477400 -14.938100 -66.274400
O -12.477400 -14.132000 -66.399200
H -12.477400 -13.910800 -67.264700
20
Fragment
H -9.358000 -16.851400 -65.392700
O -9.358000 -16.257000 -64.778300
N -9.358000 -15.147400 -66.819900
N -9.358000 -15.123900 -65.487700
N -9.358000 -14.389200 -62.564100
O -9.358000 -14.278600 -69.313500
C -9.358000 -13.866900 -65.006200
C -9.358000 -13.849700 -67.071100
N -9.358000 -13.630900 -61.460600
C -9.358000 -13.543100 -63.593100
N -9.358000 -13.405800 -68.447900
N -9.358000 -13.012200 -66.039300
N -9.358000 -12.355900 -61.757700
N -9.358000 -12.305700 -63.082200
O -9.358000 -12.209200 -68.667000
O -9.358000 -11.146700 -63.751700
H -9.358000 -10.523300 -63.166400
H -12.477400 -14.938100 -66.274400
O -12.477400 -14.132000 -66.399200
H -12.477400 -13.910800 -67.264700
