17
Fragment
H -9.358000 -16.851400 -65.392700
O -9.358000 -16.257000 -64.778300
N -9.358000 -15.147400 -66.819900
N -9.358000 -15.123900 -65.487700
N -9.358000 -14.389200 -62.564100
O -9.358000 -14.278600 -69.313500
C -9.358000 -13.866900 -65.006200
C -9.358000 -13.849700 -67.071100
N -9.358000 -13.630900 -61.460600
C -9.358000 -13.543100 -63.593100
N -9.358000 -13.405800 -68.447900
N -9.358000 -13.012200 -66.039300
N -9.358000 -12.355900 -61.757700
N -9.358000 -12.305700 -63.082200
O -9.358000 -12.209200 -68.667000
O -9.358000 -11.146700 -63.751700
H -9.358000 -10.523300 -63.166400
17
Fragment
H -9.358000 -12.930600 -75.513800
O -9.358000 -12.336200 -76.128200
N -9.358000 -11.226700 -74.086600
N -9.358000 -11.203200 -75.418800
N -9.358000 -10.468400 -78.342400
O -9.358000 -10.357800 -71.593000
C -9.358000 -9.946200 -75.900300
C -9.358000 -9.928900 -73.835400
N -9.358000 -9.710100 -79.445900
C -9.358000 -9.622300 -77.313400
N -9.358000 -9.485100 -72.458600
N -9.358000 -9.091400 -74.867200
N -9.358000 -8.435100 -79.148800
N -9.358000 -8.384900 -77.824300
O -9.358000 -8.288500 -72.239500
O -9.358000 -7.225900 -77.154800
H -9.358000 -6.602500 -77.740100
34
Fragment
H -9.358000 -16.851400 -65.392700
O -9.358000 -16.257000 -64.778300
N -9.358000 -15.147400 -66.819900
N -9.358000 -15.123900 -65.487700
N -9.358000 -14.389200 -62.564100
O -9.358000 -14.278600 -69.313500
C -9.358000 -13.866900 -65.006200
C -9.358000 -13.849700 -67.071100
N -9.358000 -13.630900 -61.460600
C -9.358000 -13.543100 -63.593100
N -9.358000 -13.405800 -68.447900
N -9.358000 -13.012200 -66.039300
N -9.358000 -12.355900 -61.757700
N -9.358000 -12.305700 -63.082200
O -9.358000 -12.209200 -68.667000
O -9.358000 -11.146700 -63.751700
H -9.358000 -10.523300 -63.166400
H -9.358000 -12.930600 -75.513800
O -9.358000 -12.336200 -76.128200
N -9.358000 -11.226700 -74.086600
N -9.358000 -11.203200 -75.418800
N -9.358000 -10.468400 -78.342400
O -9.358000 -10.357800 -71.593000
C -9.358000 -9.946200 -75.900300
C -9.358000 -9.928900 -73.835400
N -9.358000 -9.710100 -79.445900
C -9.358000 -9.622300 -77.313400
N -9.358000 -9.485100 -72.458600
N -9.358000 -9.091400 -74.867200
N -9.358000 -8.435100 -79.148800
N -9.358000 -8.384900 -77.824300
O -9.358000 -8.288500 -72.239500
O -9.358000 -7.225900 -77.154800
H -9.358000 -6.602500 -77.740100
