17
Fragment
H -9.358000 -16.851400 -65.392700
O -9.358000 -16.257000 -64.778300
N -9.358000 -15.147400 -66.819900
N -9.358000 -15.123900 -65.487700
N -9.358000 -14.389200 -62.564100
O -9.358000 -14.278600 -69.313500
C -9.358000 -13.866900 -65.006200
C -9.358000 -13.849700 -67.071100
N -9.358000 -13.630900 -61.460600
C -9.358000 -13.543100 -63.593100
N -9.358000 -13.405800 -68.447900
N -9.358000 -13.012200 -66.039300
N -9.358000 -12.355900 -61.757700
N -9.358000 -12.305700 -63.082200
O -9.358000 -12.209200 -68.667000
O -9.358000 -11.146700 -63.751700
H -9.358000 -10.523300 -63.166400
17
Fragment
H -9.358000 -13.001200 -57.610600
O -9.358000 -12.377800 -57.025300
O -9.358000 -11.315300 -52.110000
N -9.358000 -11.218800 -57.694800
N -9.358000 -11.168600 -59.019300
N -9.358000 -10.512300 -54.737700
N -9.358000 -10.118700 -52.329100
C -9.358000 -9.981400 -57.183900
N -9.358000 -9.893600 -59.316400
C -9.358000 -9.674800 -53.705900
C -9.358000 -9.657600 -55.770800
O -9.358000 -9.245900 -51.463500
N -9.358000 -9.135300 -58.212900
N -9.358000 -8.400600 -55.289300
N -9.358000 -8.377100 -53.957100
O -9.358000 -7.267500 -55.998700
H -9.358000 -6.673100 -55.384300
34
Fragment
H -9.358000 -16.851400 -65.392700
O -9.358000 -16.257000 -64.778300
N -9.358000 -15.147400 -66.819900
N -9.358000 -15.123900 -65.487700
N -9.358000 -14.389200 -62.564100
O -9.358000 -14.278600 -69.313500
C -9.358000 -13.866900 -65.006200
C -9.358000 -13.849700 -67.071100
N -9.358000 -13.630900 -61.460600
C -9.358000 -13.543100 -63.593100
N -9.358000 -13.405800 -68.447900
N -9.358000 -13.012200 -66.039300
N -9.358000 -12.355900 -61.757700
N -9.358000 -12.305700 -63.082200
O -9.358000 -12.209200 -68.667000
O -9.358000 -11.146700 -63.751700
H -9.358000 -10.523300 -63.166400
H -9.358000 -13.001200 -57.610600
O -9.358000 -12.377800 -57.025300
O -9.358000 -11.315300 -52.110000
N -9.358000 -11.218800 -57.694800
N -9.358000 -11.168600 -59.019300
N -9.358000 -10.512300 -54.737700
N -9.358000 -10.118700 -52.329100
C -9.358000 -9.981400 -57.183900
N -9.358000 -9.893600 -59.316400
C -9.358000 -9.674800 -53.705900
C -9.358000 -9.657600 -55.770800
O -9.358000 -9.245900 -51.463500
N -9.358000 -9.135300 -58.212900
N -9.358000 -8.400600 -55.289300
N -9.358000 -8.377100 -53.957100
O -9.358000 -7.267500 -55.998700
H -9.358000 -6.673100 -55.384300
