3
Fragment
O -13.964000 -8.855000 -24.289700
H -13.868000 -8.274800 -23.629200
H -13.187000 -9.289100 -24.332600
24
Fragment
N -17.063500 -12.035600 -36.526700
C -16.760400 -11.419000 -35.624500
N -16.495300 -13.729200 -32.948500
C -16.397000 -10.605300 -34.491100
C -16.392400 -12.602300 -33.121700
H -16.330700 -8.987800 -35.518800
C -16.246200 -11.185200 -33.264600
N -16.222200 -9.300600 -34.724500
H -16.001200 -8.774600 -34.080700
N -15.947700 -10.357900 -32.190600
H -15.804300 -11.754800 -30.898300
C -15.753500 -10.834600 -31.021100
H -15.636200 -8.193900 -30.778100
C -15.456900 -8.604200 -29.962600
C -15.456300 -9.989000 -29.875300
H -15.206700 -6.905800 -28.918400
C -15.193900 -7.833500 -28.851500
C -15.160900 -10.569500 -28.648700
H -15.152200 -11.496500 -28.574100
C -14.911400 -8.429700 -27.641000
C -14.880100 -9.801500 -27.538900
O -14.671900 -7.624700 -26.568500
H -14.671400 -10.207000 -26.727600
H -14.423800 -8.081200 -25.933700
27
Fragment
O -13.964000 -8.855000 -24.289700
H -13.868000 -8.274800 -23.629200
H -13.187000 -9.289100 -24.332600
N -17.063500 -12.035600 -36.526700
C -16.760400 -11.419000 -35.624500
N -16.495300 -13.729200 -32.948500
C -16.397000 -10.605300 -34.491100
C -16.392400 -12.602300 -33.121700
H -16.330700 -8.987800 -35.518800
C -16.246200 -11.185200 -33.264600
N -16.222200 -9.300600 -34.724500
H -16.001200 -8.774600 -34.080700
N -15.947700 -10.357900 -32.190600
H -15.804300 -11.754800 -30.898300
C -15.753500 -10.834600 -31.021100
H -15.636200 -8.193900 -30.778100
C -15.456900 -8.604200 -29.962600
C -15.456300 -9.989000 -29.875300
H -15.206700 -6.905800 -28.918400
C -15.193900 -7.833500 -28.851500
C -15.160900 -10.569500 -28.648700
H -15.152200 -11.496500 -28.574100
C -14.911400 -8.429700 -27.641000
C -14.880100 -9.801500 -27.538900
O -14.671900 -7.624700 -26.568500
H -14.671400 -10.207000 -26.727600
H -14.423800 -8.081200 -25.933700
