3
Fragment
O -13.964000 -8.855000 -24.289700
H -13.868000 -8.274800 -23.629200
H -13.187000 -9.289100 -24.332600
24
Fragment
H -14.599300 -13.035200 -23.482600
H -14.351600 -10.909400 -22.688600
O -14.351100 -13.491700 -22.847800
C -14.142900 -11.314900 -21.877400
C -14.111700 -12.686700 -21.775300
H -13.870800 -9.619900 -20.842100
C -13.862100 -10.546900 -20.767500
C -13.829100 -13.282900 -20.564700
H -13.816300 -14.210600 -20.497900
C -13.566700 -11.127400 -19.541000
C -13.566200 -12.512200 -19.453700
H -13.386900 -12.922500 -18.638200
C -13.269600 -10.281800 -18.395200
H -13.218700 -9.361600 -18.517900
N -13.075400 -10.758500 -17.225700
H -13.021800 -12.341800 -15.335500
N -12.800800 -11.815800 -14.691800
C -12.776900 -9.931200 -16.151700
H -12.692300 -12.128600 -13.897500
C -12.630600 -8.514100 -16.294500
C -12.626000 -10.511100 -14.925200
N -12.527800 -7.387200 -16.467800
C -12.262700 -9.697400 -13.791700
N -11.959500 -9.080800 -12.889600
27
Fragment
O -13.964000 -8.855000 -24.289700
H -13.868000 -8.274800 -23.629200
H -13.187000 -9.289100 -24.332600
H -14.599300 -13.035200 -23.482600
H -14.351600 -10.909400 -22.688600
O -14.351100 -13.491700 -22.847800
C -14.142900 -11.314900 -21.877400
C -14.111700 -12.686700 -21.775300
H -13.870800 -9.619900 -20.842100
C -13.862100 -10.546900 -20.767500
C -13.829100 -13.282900 -20.564700
H -13.816300 -14.210600 -20.497900
C -13.566700 -11.127400 -19.541000
C -13.566200 -12.512200 -19.453700
H -13.386900 -12.922500 -18.638200
C -13.269600 -10.281800 -18.395200
H -13.218700 -9.361600 -18.517900
N -13.075400 -10.758500 -17.225700
H -13.021800 -12.341800 -15.335500
N -12.800800 -11.815800 -14.691800
C -12.776900 -9.931200 -16.151700
H -12.692300 -12.128600 -13.897500
C -12.630600 -8.514100 -16.294500
C -12.626000 -10.511100 -14.925200
N -12.527800 -7.387200 -16.467800
C -12.262700 -9.697400 -13.791700
N -11.959500 -9.080800 -12.889600
