3
Fragment
O -13.964000 -8.855000 -24.289700
H -13.868000 -8.274800 -23.629200
H -13.187000 -9.289100 -24.332600
24
Fragment
N -12.226300 -12.600200 -28.290600
C -11.923200 -13.216800 -27.388500
N -11.658100 -10.906600 -24.712400
C -11.559800 -14.030500 -26.255000
C -11.555300 -12.033500 -24.885700
H -11.493500 -15.648000 -27.282700
C -11.409000 -13.450600 -25.028500
N -11.385000 -15.335200 -26.488400
H -11.164000 -15.861200 -25.844700
N -11.110500 -14.277900 -23.954500
H -10.967100 -12.881000 -22.662300
C -10.916300 -13.801200 -22.785000
H -10.799000 -16.441900 -22.542000
C -10.619700 -16.031600 -21.726500
C -10.619200 -14.646800 -21.639200
H -10.369500 -17.730000 -20.682300
C -10.356800 -16.802300 -20.615500
C -10.323700 -14.066300 -20.412700
H -10.315100 -13.139300 -20.338100
C -10.074200 -16.206100 -19.404900
C -10.043000 -14.834300 -19.302800
O -9.834800 -17.011100 -18.332400
H -9.834300 -14.428800 -18.491600
H -9.586600 -16.554600 -17.697600
27
Fragment
O -13.964000 -8.855000 -24.289700
H -13.868000 -8.274800 -23.629200
H -13.187000 -9.289100 -24.332600
N -12.226300 -12.600200 -28.290600
C -11.923200 -13.216800 -27.388500
N -11.658100 -10.906600 -24.712400
C -11.559800 -14.030500 -26.255000
C -11.555300 -12.033500 -24.885700
H -11.493500 -15.648000 -27.282700
C -11.409000 -13.450600 -25.028500
N -11.385000 -15.335200 -26.488400
H -11.164000 -15.861200 -25.844700
N -11.110500 -14.277900 -23.954500
H -10.967100 -12.881000 -22.662300
C -10.916300 -13.801200 -22.785000
H -10.799000 -16.441900 -22.542000
C -10.619700 -16.031600 -21.726500
C -10.619200 -14.646800 -21.639200
H -10.369500 -17.730000 -20.682300
C -10.356800 -16.802300 -20.615500
C -10.323700 -14.066300 -20.412700
H -10.315100 -13.139300 -20.338100
C -10.074200 -16.206100 -19.404900
C -10.043000 -14.834300 -19.302800
O -9.834800 -17.011100 -18.332400
H -9.834300 -14.428800 -18.491600
H -9.586600 -16.554600 -17.697600
