3
Fragment
O -13.964000 -8.855000 -24.289700
H -13.868000 -8.274800 -23.629200
H -13.187000 -9.289100 -24.332600
24
Fragment
H -14.599300 -5.996400 -23.482600
H -14.351600 -3.870600 -22.688600
O -14.351100 -6.452900 -22.847800
C -14.142900 -4.276100 -21.877400
C -14.111700 -5.647900 -21.775300
H -13.870800 -2.581100 -20.842100
C -13.862100 -3.508100 -20.767500
C -13.829100 -6.244100 -20.564700
H -13.816300 -7.171800 -20.497900
C -13.566700 -4.088600 -19.541000
C -13.566200 -5.473400 -19.453700
H -13.386900 -5.883700 -18.638200
C -13.269600 -3.243000 -18.395200
H -13.218700 -2.322800 -18.517900
N -13.075400 -3.719700 -17.225700
H -13.021800 -5.303000 -15.335500
N -12.800800 -4.777000 -14.691800
C -12.776900 -2.892400 -16.151700
H -12.692300 -5.089800 -13.897500
C -12.630600 -1.475300 -16.294500
C -12.626000 -3.472300 -14.925200
N -12.527800 -0.348400 -16.467800
C -12.262700 -2.658600 -13.791700
N -11.959500 -2.042000 -12.889600
27
Fragment
O -13.964000 -8.855000 -24.289700
H -13.868000 -8.274800 -23.629200
H -13.187000 -9.289100 -24.332600
H -14.599300 -5.996400 -23.482600
H -14.351600 -3.870600 -22.688600
O -14.351100 -6.452900 -22.847800
C -14.142900 -4.276100 -21.877400
C -14.111700 -5.647900 -21.775300
H -13.870800 -2.581100 -20.842100
C -13.862100 -3.508100 -20.767500
C -13.829100 -6.244100 -20.564700
H -13.816300 -7.171800 -20.497900
C -13.566700 -4.088600 -19.541000
C -13.566200 -5.473400 -19.453700
H -13.386900 -5.883700 -18.638200
C -13.269600 -3.243000 -18.395200
H -13.218700 -2.322800 -18.517900
N -13.075400 -3.719700 -17.225700
H -13.021800 -5.303000 -15.335500
N -12.800800 -4.777000 -14.691800
C -12.776900 -2.892400 -16.151700
H -12.692300 -5.089800 -13.897500
C -12.630600 -1.475300 -16.294500
C -12.626000 -3.472300 -14.925200
N -12.527800 -0.348400 -16.467800
C -12.262700 -2.658600 -13.791700
N -11.959500 -2.042000 -12.889600
