3
Fragment
O -13.964000 -8.855000 -24.289700
H -13.868000 -8.274800 -23.629200
H -13.187000 -9.289100 -24.332600
24
Fragment
N -12.226300 -5.561400 -28.290600
C -11.923200 -6.178000 -27.388500
N -11.658100 -3.867800 -24.712400
C -11.559800 -6.991700 -26.255000
C -11.555300 -4.994700 -24.885700
H -11.493500 -8.609200 -27.282700
C -11.409000 -6.411800 -25.028500
N -11.385000 -8.296400 -26.488400
H -11.164000 -8.822400 -25.844700
N -11.110500 -7.239100 -23.954500
H -10.967100 -5.842200 -22.662300
C -10.916300 -6.762400 -22.785000
H -10.799000 -9.403100 -22.542000
C -10.619700 -8.992800 -21.726500
C -10.619200 -7.608000 -21.639200
H -10.369500 -10.691200 -20.682300
C -10.356800 -9.763500 -20.615500
C -10.323700 -7.027500 -20.412700
H -10.315100 -6.100500 -20.338100
C -10.074200 -9.167300 -19.404900
C -10.043000 -7.795500 -19.302800
O -9.834800 -9.972300 -18.332400
H -9.834300 -7.390000 -18.491600
H -9.586600 -9.515800 -17.697600
27
Fragment
O -13.964000 -8.855000 -24.289700
H -13.868000 -8.274800 -23.629200
H -13.187000 -9.289100 -24.332600
N -12.226300 -5.561400 -28.290600
C -11.923200 -6.178000 -27.388500
N -11.658100 -3.867800 -24.712400
C -11.559800 -6.991700 -26.255000
C -11.555300 -4.994700 -24.885700
H -11.493500 -8.609200 -27.282700
C -11.409000 -6.411800 -25.028500
N -11.385000 -8.296400 -26.488400
H -11.164000 -8.822400 -25.844700
N -11.110500 -7.239100 -23.954500
H -10.967100 -5.842200 -22.662300
C -10.916300 -6.762400 -22.785000
H -10.799000 -9.403100 -22.542000
C -10.619700 -8.992800 -21.726500
C -10.619200 -7.608000 -21.639200
H -10.369500 -10.691200 -20.682300
C -10.356800 -9.763500 -20.615500
C -10.323700 -7.027500 -20.412700
H -10.315100 -6.100500 -20.338100
C -10.074200 -9.167300 -19.404900
C -10.043000 -7.795500 -19.302800
O -9.834800 -9.972300 -18.332400
H -9.834300 -7.390000 -18.491600
H -9.586600 -9.515800 -17.697600
