28
Fragment
H -9.640300 -22.965400 -25.989900
H -9.586800 -21.224300 -27.829500
C -8.941500 -22.343800 -26.161200
C -8.913500 -21.362300 -27.172100
N -7.807000 -20.667800 -27.058000
N -7.721800 -22.218600 -25.450400
H -7.567800 -19.981600 -27.553300
C -7.097000 -21.208400 -26.026800
H -6.762900 -20.847600 -20.311000
H -6.375400 -20.744400 -22.555700
C -6.288400 -21.574900 -20.694000
C -6.069900 -21.484700 -22.045600
N -5.932300 -22.522100 -19.852500
H -5.880500 -23.026400 -24.559200
C -5.791000 -20.696800 -25.654800
C -5.375600 -22.536000 -22.623800
N -5.322500 -19.631200 -26.153800
C -5.263900 -23.591200 -20.485900
C -5.124300 -22.561800 -24.120900
C -5.042900 -23.608700 -21.787800
N -4.976300 -21.293100 -24.712000
H -4.964400 -24.321300 -19.957400
H -4.640300 -24.380500 -22.170800
H -4.306800 -23.089400 -24.295800
C -4.072400 -19.471100 -25.465100
C -3.856900 -20.485400 -24.621800
H -3.478700 -18.740900 -25.592200
H -3.093000 -20.623900 -24.074900
28
Fragment
H -1.297600 -24.175200 -24.817000
H -1.221800 -22.017600 -26.056200
C -0.554600 -23.586300 -24.892400
C -0.489600 -22.395800 -25.583000
N 0.681000 -23.732200 -24.345500
N 0.729100 -21.834900 -25.507500
H 0.953200 -24.401100 -23.841000
C 1.420300 -22.645800 -24.721200
H 1.926500 -17.188300 -23.667900
H 2.321700 -19.470500 -23.898100
C 2.398100 -17.481100 -24.439500
C 2.610000 -18.870700 -24.575700
H 2.695700 -21.098200 -26.558900
N 2.793200 -16.567800 -25.277300
C 2.825800 -22.480500 -24.294000
C 3.245000 -19.347600 -25.710000
N 3.360100 -23.155200 -23.297800
C 3.429500 -17.034700 -26.404300
C 3.471900 -20.759900 -26.045200
C 3.659900 -18.383900 -26.638100
N 3.671900 -21.626200 -24.833500
H 3.723900 -16.404200 -27.050600
H 4.101900 -18.654500 -27.433600
H 4.271000 -20.828300 -26.625200
C 4.631700 -22.671800 -23.213100
C 4.813800 -21.723700 -24.148500
H 5.290100 -22.962200 -22.592500
H 5.604000 -21.217400 -24.294000
56
Fragment
H -9.640300 -22.965400 -25.989900
H -9.586800 -21.224300 -27.829500
C -8.941500 -22.343800 -26.161200
C -8.913500 -21.362300 -27.172100
N -7.807000 -20.667800 -27.058000
N -7.721800 -22.218600 -25.450400
H -7.567800 -19.981600 -27.553300
C -7.097000 -21.208400 -26.026800
H -6.762900 -20.847600 -20.311000
H -6.375400 -20.744400 -22.555700
C -6.288400 -21.574900 -20.694000
C -6.069900 -21.484700 -22.045600
N -5.932300 -22.522100 -19.852500
H -5.880500 -23.026400 -24.559200
C -5.791000 -20.696800 -25.654800
C -5.375600 -22.536000 -22.623800
N -5.322500 -19.631200 -26.153800
C -5.263900 -23.591200 -20.485900
C -5.124300 -22.561800 -24.120900
C -5.042900 -23.608700 -21.787800
N -4.976300 -21.293100 -24.712000
H -4.964400 -24.321300 -19.957400
H -4.640300 -24.380500 -22.170800
H -4.306800 -23.089400 -24.295800
C -4.072400 -19.471100 -25.465100
C -3.856900 -20.485400 -24.621800
H -3.478700 -18.740900 -25.592200
H -3.093000 -20.623900 -24.074900
H -1.297600 -24.175200 -24.817000
H -1.221800 -22.017600 -26.056200
C -0.554600 -23.586300 -24.892400
C -0.489600 -22.395800 -25.583000
N 0.681000 -23.732200 -24.345500
N 0.729100 -21.834900 -25.507500
H 0.953200 -24.401100 -23.841000
C 1.420300 -22.645800 -24.721200
H 1.926500 -17.188300 -23.667900
H 2.321700 -19.470500 -23.898100
C 2.398100 -17.481100 -24.439500
C 2.610000 -18.870700 -24.575700
H 2.695700 -21.098200 -26.558900
N 2.793200 -16.567800 -25.277300
C 2.825800 -22.480500 -24.294000
C 3.245000 -19.347600 -25.710000
N 3.360100 -23.155200 -23.297800
C 3.429500 -17.034700 -26.404300
C 3.471900 -20.759900 -26.045200
C 3.659900 -18.383900 -26.638100
N 3.671900 -21.626200 -24.833500
H 3.723900 -16.404200 -27.050600
H 4.101900 -18.654500 -27.433600
H 4.271000 -20.828300 -26.625200
C 4.631700 -22.671800 -23.213100
C 4.813800 -21.723700 -24.148500
H 5.290100 -22.962200 -22.592500
H 5.604000 -21.217400 -24.294000
