28
Fragment
H -9.640300 -22.965400 -25.989900
H -9.586800 -21.224300 -27.829500
C -8.941500 -22.343800 -26.161200
C -8.913500 -21.362300 -27.172100
N -7.807000 -20.667800 -27.058000
N -7.721800 -22.218600 -25.450400
H -7.567800 -19.981600 -27.553300
C -7.097000 -21.208400 -26.026800
H -6.762900 -20.847600 -20.311000
H -6.375400 -20.744400 -22.555700
C -6.288400 -21.574900 -20.694000
C -6.069900 -21.484700 -22.045600
N -5.932300 -22.522100 -19.852500
H -5.880500 -23.026400 -24.559200
C -5.791000 -20.696800 -25.654800
C -5.375600 -22.536000 -22.623800
N -5.322500 -19.631200 -26.153800
C -5.263900 -23.591200 -20.485900
C -5.124300 -22.561800 -24.120900
C -5.042900 -23.608700 -21.787800
N -4.976300 -21.293100 -24.712000
H -4.964400 -24.321300 -19.957400
H -4.640300 -24.380500 -22.170800
H -4.306800 -23.089400 -24.295800
C -4.072400 -19.471100 -25.465100
C -3.856900 -20.485400 -24.621800
H -3.478700 -18.740900 -25.592200
H -3.093000 -20.623900 -24.074900
28
Fragment
H -7.199700 -33.430000 -24.783800
H -7.150600 -31.387300 -26.163000
C -6.461100 -32.843000 -24.885100
C -6.433700 -31.713000 -25.630900
N -5.217500 -32.987400 -24.297700
N -5.206100 -31.112800 -25.494600
H -4.958100 -33.627300 -23.750800
C -4.490000 -31.945600 -24.735900
H -4.036000 -26.528900 -23.632900
H -3.614000 -28.784900 -23.927500
C -3.557200 -26.807100 -24.402600
C -3.330200 -28.158300 -24.584900
H -3.195200 -30.444500 -26.535000
C -3.139500 -31.786700 -24.290300
N -3.127300 -25.867500 -25.268100
C -2.681700 -28.593700 -25.748700
N -2.541200 -32.445000 -23.292200
C -2.514000 -26.280900 -26.354500
C -2.431300 -30.084200 -26.019400
C -2.282500 -27.643600 -26.660200
N -2.251400 -30.885100 -24.861100
H -2.209500 -25.625000 -26.971400
H -1.863600 -27.896700 -27.474100
H -1.624200 -30.169200 -26.588400
C -1.243500 -31.963700 -23.205700
C -1.023200 -31.012700 -24.148500
H -0.598400 -32.257700 -22.574100
H -0.216700 -30.532900 -24.303200
56
Fragment
H -9.640300 -22.965400 -25.989900
H -9.586800 -21.224300 -27.829500
C -8.941500 -22.343800 -26.161200
C -8.913500 -21.362300 -27.172100
N -7.807000 -20.667800 -27.058000
N -7.721800 -22.218600 -25.450400
H -7.567800 -19.981600 -27.553300
C -7.097000 -21.208400 -26.026800
H -6.762900 -20.847600 -20.311000
H -6.375400 -20.744400 -22.555700
C -6.288400 -21.574900 -20.694000
C -6.069900 -21.484700 -22.045600
N -5.932300 -22.522100 -19.852500
H -5.880500 -23.026400 -24.559200
C -5.791000 -20.696800 -25.654800
C -5.375600 -22.536000 -22.623800
N -5.322500 -19.631200 -26.153800
C -5.263900 -23.591200 -20.485900
C -5.124300 -22.561800 -24.120900
C -5.042900 -23.608700 -21.787800
N -4.976300 -21.293100 -24.712000
H -4.964400 -24.321300 -19.957400
H -4.640300 -24.380500 -22.170800
H -4.306800 -23.089400 -24.295800
C -4.072400 -19.471100 -25.465100
C -3.856900 -20.485400 -24.621800
H -3.478700 -18.740900 -25.592200
H -3.093000 -20.623900 -24.074900
H -7.199700 -33.430000 -24.783800
H -7.150600 -31.387300 -26.163000
C -6.461100 -32.843000 -24.885100
C -6.433700 -31.713000 -25.630900
N -5.217500 -32.987400 -24.297700
N -5.206100 -31.112800 -25.494600
H -4.958100 -33.627300 -23.750800
C -4.490000 -31.945600 -24.735900
H -4.036000 -26.528900 -23.632900
H -3.614000 -28.784900 -23.927500
C -3.557200 -26.807100 -24.402600
C -3.330200 -28.158300 -24.584900
H -3.195200 -30.444500 -26.535000
C -3.139500 -31.786700 -24.290300
N -3.127300 -25.867500 -25.268100
C -2.681700 -28.593700 -25.748700
N -2.541200 -32.445000 -23.292200
C -2.514000 -26.280900 -26.354500
C -2.431300 -30.084200 -26.019400
C -2.282500 -27.643600 -26.660200
N -2.251400 -30.885100 -24.861100
H -2.209500 -25.625000 -26.971400
H -1.863600 -27.896700 -27.474100
H -1.624200 -30.169200 -26.588400
C -1.243500 -31.963700 -23.205700
C -1.023200 -31.012700 -24.148500
H -0.598400 -32.257700 -22.574100
H -0.216700 -30.532900 -24.303200
