28
Fragment
H -9.640300 -22.965400 -25.989900
H -9.586800 -21.224300 -27.829500
C -8.941500 -22.343800 -26.161200
C -8.913500 -21.362300 -27.172100
N -7.807000 -20.667800 -27.058000
N -7.721800 -22.218600 -25.450400
H -7.567800 -19.981600 -27.553300
C -7.097000 -21.208400 -26.026800
H -6.762900 -20.847600 -20.311000
H -6.375400 -20.744400 -22.555700
C -6.288400 -21.574900 -20.694000
C -6.069900 -21.484700 -22.045600
N -5.932300 -22.522100 -19.852500
H -5.880500 -23.026400 -24.559200
C -5.791000 -20.696800 -25.654800
C -5.375600 -22.536000 -22.623800
N -5.322500 -19.631200 -26.153800
C -5.263900 -23.591200 -20.485900
C -5.124300 -22.561800 -24.120900
C -5.042900 -23.608700 -21.787800
N -4.976300 -21.293100 -24.712000
H -4.964400 -24.321300 -19.957400
H -4.640300 -24.380500 -22.170800
H -4.306800 -23.089400 -24.295800
C -4.072400 -19.471100 -25.465100
C -3.856900 -20.485400 -24.621800
H -3.478700 -18.740900 -25.592200
H -3.093000 -20.623900 -24.074900
28
Fragment
H -15.830800 -21.100200 -34.714600
H -15.757400 -19.522700 -36.666600
C -15.079900 -20.588100 -34.987200
C -15.043900 -19.709500 -36.068100
N -13.824500 -20.590100 -34.370300
N -13.815500 -19.177100 -36.101200
H -13.523500 -18.579300 -36.677600
C -13.108700 -19.721100 -35.097700
H -12.474600 -18.781800 -29.764900
C -12.185700 -19.637200 -30.059500
N -12.117800 -20.637800 -29.133300
H -11.940300 -19.046700 -31.982000
H -11.906800 -21.708400 -33.703700
C -11.870000 -19.779900 -31.381600
C -11.736700 -21.840200 -29.606500
H -11.710400 -22.573700 -29.004400
C -11.692400 -19.392300 -34.896900
C -11.439800 -21.023800 -31.825400
C -11.394700 -22.053400 -30.878900
N -11.137800 -18.434000 -35.512000
C -11.135800 -21.245500 -33.291200
H -11.114800 -22.920100 -31.147800
N -10.860600 -20.086600 -34.044400
H -10.354600 -21.852100 -33.359300
C -9.825200 -18.444600 -34.987200
C -9.638200 -19.438900 -34.129100
H -9.155500 -17.813600 -35.222900
H -8.836700 -19.661100 -33.668700
56
Fragment
H -9.640300 -22.965400 -25.989900
H -9.586800 -21.224300 -27.829500
C -8.941500 -22.343800 -26.161200
C -8.913500 -21.362300 -27.172100
N -7.807000 -20.667800 -27.058000
N -7.721800 -22.218600 -25.450400
H -7.567800 -19.981600 -27.553300
C -7.097000 -21.208400 -26.026800
H -6.762900 -20.847600 -20.311000
H -6.375400 -20.744400 -22.555700
C -6.288400 -21.574900 -20.694000
C -6.069900 -21.484700 -22.045600
N -5.932300 -22.522100 -19.852500
H -5.880500 -23.026400 -24.559200
C -5.791000 -20.696800 -25.654800
C -5.375600 -22.536000 -22.623800
N -5.322500 -19.631200 -26.153800
C -5.263900 -23.591200 -20.485900
C -5.124300 -22.561800 -24.120900
C -5.042900 -23.608700 -21.787800
N -4.976300 -21.293100 -24.712000
H -4.964400 -24.321300 -19.957400
H -4.640300 -24.380500 -22.170800
H -4.306800 -23.089400 -24.295800
C -4.072400 -19.471100 -25.465100
C -3.856900 -20.485400 -24.621800
H -3.478700 -18.740900 -25.592200
H -3.093000 -20.623900 -24.074900
H -15.830800 -21.100200 -34.714600
H -15.757400 -19.522700 -36.666600
C -15.079900 -20.588100 -34.987200
C -15.043900 -19.709500 -36.068100
N -13.824500 -20.590100 -34.370300
N -13.815500 -19.177100 -36.101200
H -13.523500 -18.579300 -36.677600
C -13.108700 -19.721100 -35.097700
H -12.474600 -18.781800 -29.764900
C -12.185700 -19.637200 -30.059500
N -12.117800 -20.637800 -29.133300
H -11.940300 -19.046700 -31.982000
H -11.906800 -21.708400 -33.703700
C -11.870000 -19.779900 -31.381600
C -11.736700 -21.840200 -29.606500
H -11.710400 -22.573700 -29.004400
C -11.692400 -19.392300 -34.896900
C -11.439800 -21.023800 -31.825400
C -11.394700 -22.053400 -30.878900
N -11.137800 -18.434000 -35.512000
C -11.135800 -21.245500 -33.291200
H -11.114800 -22.920100 -31.147800
N -10.860600 -20.086600 -34.044400
H -10.354600 -21.852100 -33.359300
C -9.825200 -18.444600 -34.987200
C -9.638200 -19.438900 -34.129100
H -9.155500 -17.813600 -35.222900
H -8.836700 -19.661100 -33.668700
