20
Fragment
H -26.246700 -20.218500 -26.038500
O -25.584200 -19.938300 -26.575100
C -24.540200 -20.757400 -26.487600
O -24.530100 -21.741000 -25.772000
H -23.713300 -20.088200 -28.241100
C -23.379700 -20.309800 -27.335900
H -22.999100 -19.484000 -26.945600
H -22.633600 -22.156300 -27.906500
C -22.272700 -21.348700 -27.461700
H -21.967600 -21.610000 -26.557100
H -21.387900 -20.563900 -29.164800
C -21.081500 -20.827600 -28.261500
H -20.718400 -20.021400 -27.815400
H -20.356500 -22.689300 -28.791200
C -19.976300 -21.866200 -28.391800
H -19.645400 -22.095500 -27.488300
O -18.814600 -20.413800 -29.929700
C -18.812200 -21.410000 -29.234900
O -17.775600 -22.242800 -29.160900
H -17.079600 -21.944700 -29.726200
28
Fragment
H -16.503200 -19.744400 -31.153700
C -15.796400 -20.336800 -31.381300
H -15.724400 -24.014700 -35.984400
N -15.722500 -21.522300 -30.755500
H -14.971900 -19.098000 -32.772600
C -14.885800 -19.941700 -32.344900
C -14.804500 -23.779300 -36.013400
C -14.710700 -22.339900 -31.074800
H -14.648500 -23.177000 -30.629500
H -14.342400 -23.871300 -38.040100
C -14.051300 -23.705500 -37.151100
N -14.038400 -23.462800 -34.915800
C -13.840600 -20.800600 -32.677200
C -13.744800 -22.023600 -32.028900
H -13.203600 -20.553200 -33.337600
H -13.080200 -23.865800 -32.646200
C -12.827900 -23.203700 -35.404500
N -12.787700 -23.343200 -36.751100
C -12.660500 -23.033600 -32.313300
H -12.197400 -23.250700 -31.465900
H -12.052900 -23.200700 -37.326400
C -11.684300 -22.725900 -34.646000
N -11.669400 -22.585400 -33.287600
N -10.551600 -22.285500 -35.188300
C -10.467400 -21.993700 -32.959000
H -10.169200 -21.751200 -32.090400
C -9.792800 -21.827000 -34.132400
H -8.924700 -21.448900 -34.211200
48
Fragment
H -26.246700 -20.218500 -26.038500
O -25.584200 -19.938300 -26.575100
C -24.540200 -20.757400 -26.487600
O -24.530100 -21.741000 -25.772000
H -23.713300 -20.088200 -28.241100
C -23.379700 -20.309800 -27.335900
H -22.999100 -19.484000 -26.945600
H -22.633600 -22.156300 -27.906500
C -22.272700 -21.348700 -27.461700
H -21.967600 -21.610000 -26.557100
H -21.387900 -20.563900 -29.164800
C -21.081500 -20.827600 -28.261500
H -20.718400 -20.021400 -27.815400
H -20.356500 -22.689300 -28.791200
C -19.976300 -21.866200 -28.391800
H -19.645400 -22.095500 -27.488300
O -18.814600 -20.413800 -29.929700
C -18.812200 -21.410000 -29.234900
O -17.775600 -22.242800 -29.160900
H -17.079600 -21.944700 -29.726200
H -16.503200 -19.744400 -31.153700
C -15.796400 -20.336800 -31.381300
H -15.724400 -24.014700 -35.984400
N -15.722500 -21.522300 -30.755500
H -14.971900 -19.098000 -32.772600
C -14.885800 -19.941700 -32.344900
C -14.804500 -23.779300 -36.013400
C -14.710700 -22.339900 -31.074800
H -14.648500 -23.177000 -30.629500
H -14.342400 -23.871300 -38.040100
C -14.051300 -23.705500 -37.151100
N -14.038400 -23.462800 -34.915800
C -13.840600 -20.800600 -32.677200
C -13.744800 -22.023600 -32.028900
H -13.203600 -20.553200 -33.337600
H -13.080200 -23.865800 -32.646200
C -12.827900 -23.203700 -35.404500
N -12.787700 -23.343200 -36.751100
C -12.660500 -23.033600 -32.313300
H -12.197400 -23.250700 -31.465900
H -12.052900 -23.200700 -37.326400
C -11.684300 -22.725900 -34.646000
N -11.669400 -22.585400 -33.287600
N -10.551600 -22.285500 -35.188300
C -10.467400 -21.993700 -32.959000
H -10.169200 -21.751200 -32.090400
C -9.792800 -21.827000 -34.132400
H -8.924700 -21.448900 -34.211200
