20
Fragment
H -26.246700 -20.218500 -26.038500
O -25.584200 -19.938300 -26.575100
C -24.540200 -20.757400 -26.487600
O -24.530100 -21.741000 -25.772000
H -23.713300 -20.088200 -28.241100
C -23.379700 -20.309800 -27.335900
H -22.999100 -19.484000 -26.945600
H -22.633600 -22.156300 -27.906500
C -22.272700 -21.348700 -27.461700
H -21.967600 -21.610000 -26.557100
H -21.387900 -20.563900 -29.164800
C -21.081500 -20.827600 -28.261500
H -20.718400 -20.021400 -27.815400
H -20.356500 -22.689300 -28.791200
C -19.976300 -21.866200 -28.391800
H -19.645400 -22.095500 -27.488300
O -18.814600 -20.413800 -29.929700
C -18.812200 -21.410000 -29.234900
O -17.775600 -22.242800 -29.160900
H -17.079600 -21.944700 -29.726200
20
Fragment
H -34.254500 -20.218500 -26.038500
O -33.592000 -19.938300 -26.575100
C -32.548000 -20.757400 -26.487600
O -32.537900 -21.741000 -25.772000
H -31.721100 -20.088200 -28.241100
C -31.387500 -20.309800 -27.335900
H -31.006900 -19.484000 -26.945600
H -30.641400 -22.156300 -27.906500
C -30.280500 -21.348700 -27.461700
H -29.975400 -21.610000 -26.557100
H -29.395700 -20.563900 -29.164800
C -29.089300 -20.827600 -28.261500
H -28.726200 -20.021400 -27.815400
H -28.364300 -22.689300 -28.791200
C -27.984100 -21.866200 -28.391800
H -27.653200 -22.095500 -27.488300
O -26.822400 -20.413800 -29.929700
C -26.820000 -21.410000 -29.234900
O -25.783400 -22.242800 -29.160900
H -25.087400 -21.944700 -29.726200
40
Fragment
H -26.246700 -20.218500 -26.038500
O -25.584200 -19.938300 -26.575100
C -24.540200 -20.757400 -26.487600
O -24.530100 -21.741000 -25.772000
H -23.713300 -20.088200 -28.241100
C -23.379700 -20.309800 -27.335900
H -22.999100 -19.484000 -26.945600
H -22.633600 -22.156300 -27.906500
C -22.272700 -21.348700 -27.461700
H -21.967600 -21.610000 -26.557100
H -21.387900 -20.563900 -29.164800
C -21.081500 -20.827600 -28.261500
H -20.718400 -20.021400 -27.815400
H -20.356500 -22.689300 -28.791200
C -19.976300 -21.866200 -28.391800
H -19.645400 -22.095500 -27.488300
O -18.814600 -20.413800 -29.929700
C -18.812200 -21.410000 -29.234900
O -17.775600 -22.242800 -29.160900
H -17.079600 -21.944700 -29.726200
H -34.254500 -20.218500 -26.038500
O -33.592000 -19.938300 -26.575100
C -32.548000 -20.757400 -26.487600
O -32.537900 -21.741000 -25.772000
H -31.721100 -20.088200 -28.241100
C -31.387500 -20.309800 -27.335900
H -31.006900 -19.484000 -26.945600
H -30.641400 -22.156300 -27.906500
C -30.280500 -21.348700 -27.461700
H -29.975400 -21.610000 -26.557100
H -29.395700 -20.563900 -29.164800
C -29.089300 -20.827600 -28.261500
H -28.726200 -20.021400 -27.815400
H -28.364300 -22.689300 -28.791200
C -27.984100 -21.866200 -28.391800
H -27.653200 -22.095500 -27.488300
O -26.822400 -20.413800 -29.929700
C -26.820000 -21.410000 -29.234900
O -25.783400 -22.242800 -29.160900
H -25.087400 -21.944700 -29.726200
