28
Fragment
H -12.278800 -14.585800 -20.972900
H -11.954200 -13.273400 -22.880600
C -11.412500 -14.483500 -21.349300
C -11.219600 -13.718000 -22.473200
H -10.441300 -15.631000 -19.999400
C -10.309600 -15.103300 -20.778400
H -10.270400 -11.956100 -24.189900
H -10.179300 -13.312800 -25.026100
C -9.937500 -13.596900 -23.014500
C -9.769000 -12.804500 -24.282400
H -9.428800 -16.818900 -27.061600
N -9.065700 -14.993900 -21.272300
N -8.971700 -15.047900 -26.099700
C -8.894900 -14.254200 -22.375600
C -8.798900 -16.116700 -26.945900
N -8.383000 -12.488600 -24.644600
H -8.020200 -14.175100 -22.737800
H -8.015600 -10.755100 -23.541400
C -7.875700 -14.323600 -26.260800
C -7.707200 -11.386700 -24.180400
C -7.604800 -16.035800 -27.596900
C -7.554100 -13.104100 -25.548400
H -7.253900 -16.653000 -28.228200
N -7.015000 -14.884700 -27.154000
C -6.509200 -11.382400 -24.819100
N -6.404200 -12.458500 -25.677700
H -6.244400 -14.544400 -27.473500
H -5.833400 -10.727100 -24.691700
28
Fragment
H -19.306800 -14.585800 -20.972900
H -18.982200 -13.273400 -22.880600
C -18.440500 -14.483500 -21.349300
C -18.247600 -13.718000 -22.473200
H -17.469300 -15.631000 -19.999400
C -17.337600 -15.103300 -20.778400
H -17.298400 -11.956100 -24.189900
H -17.207300 -13.312800 -25.026100
C -16.965500 -13.596900 -23.014500
C -16.797000 -12.804500 -24.282400
H -16.456800 -16.818900 -27.061600
N -16.093700 -14.993900 -21.272300
N -15.999700 -15.047900 -26.099700
C -15.922900 -14.254200 -22.375600
C -15.826900 -16.116700 -26.945900
N -15.411000 -12.488600 -24.644600
H -15.048200 -14.175100 -22.737800
H -15.043600 -10.755100 -23.541400
C -14.903700 -14.323600 -26.260800
C -14.735200 -11.386700 -24.180400
C -14.632800 -16.035800 -27.596900
C -14.582100 -13.104100 -25.548400
H -14.281900 -16.653000 -28.228200
N -14.043000 -14.884700 -27.154000
C -13.537200 -11.382400 -24.819100
N -13.432200 -12.458500 -25.677700
H -13.272400 -14.544400 -27.473500
H -12.861400 -10.727100 -24.691700
56
Fragment
H -12.278800 -14.585800 -20.972900
H -11.954200 -13.273400 -22.880600
C -11.412500 -14.483500 -21.349300
C -11.219600 -13.718000 -22.473200
H -10.441300 -15.631000 -19.999400
C -10.309600 -15.103300 -20.778400
H -10.270400 -11.956100 -24.189900
H -10.179300 -13.312800 -25.026100
C -9.937500 -13.596900 -23.014500
C -9.769000 -12.804500 -24.282400
H -9.428800 -16.818900 -27.061600
N -9.065700 -14.993900 -21.272300
N -8.971700 -15.047900 -26.099700
C -8.894900 -14.254200 -22.375600
C -8.798900 -16.116700 -26.945900
N -8.383000 -12.488600 -24.644600
H -8.020200 -14.175100 -22.737800
H -8.015600 -10.755100 -23.541400
C -7.875700 -14.323600 -26.260800
C -7.707200 -11.386700 -24.180400
C -7.604800 -16.035800 -27.596900
C -7.554100 -13.104100 -25.548400
H -7.253900 -16.653000 -28.228200
N -7.015000 -14.884700 -27.154000
C -6.509200 -11.382400 -24.819100
N -6.404200 -12.458500 -25.677700
H -6.244400 -14.544400 -27.473500
H -5.833400 -10.727100 -24.691700
H -19.306800 -14.585800 -20.972900
H -18.982200 -13.273400 -22.880600
C -18.440500 -14.483500 -21.349300
C -18.247600 -13.718000 -22.473200
H -17.469300 -15.631000 -19.999400
C -17.337600 -15.103300 -20.778400
H -17.298400 -11.956100 -24.189900
H -17.207300 -13.312800 -25.026100
C -16.965500 -13.596900 -23.014500
C -16.797000 -12.804500 -24.282400
H -16.456800 -16.818900 -27.061600
N -16.093700 -14.993900 -21.272300
N -15.999700 -15.047900 -26.099700
C -15.922900 -14.254200 -22.375600
C -15.826900 -16.116700 -26.945900
N -15.411000 -12.488600 -24.644600
H -15.048200 -14.175100 -22.737800
H -15.043600 -10.755100 -23.541400
C -14.903700 -14.323600 -26.260800
C -14.735200 -11.386700 -24.180400
C -14.632800 -16.035800 -27.596900
C -14.582100 -13.104100 -25.548400
H -14.281900 -16.653000 -28.228200
N -14.043000 -14.884700 -27.154000
C -13.537200 -11.382400 -24.819100
N -13.432200 -12.458500 -25.677700
H -13.272400 -14.544400 -27.473500
H -12.861400 -10.727100 -24.691700
