20
Fragment
H -26.246700 -20.218500 -26.038500
O -25.584200 -19.938300 -26.575100
C -24.540200 -20.757400 -26.487600
O -24.530100 -21.741000 -25.772000
H -23.713300 -20.088200 -28.241100
C -23.379700 -20.309800 -27.335900
H -22.999100 -19.484000 -26.945600
H -22.633600 -22.156300 -27.906500
C -22.272700 -21.348700 -27.461700
H -21.967600 -21.610000 -26.557100
H -21.387900 -20.563900 -29.164800
C -21.081500 -20.827600 -28.261500
H -20.718400 -20.021400 -27.815400
H -20.356500 -22.689300 -28.791200
C -19.976300 -21.866200 -28.391800
H -19.645400 -22.095500 -27.488300
O -18.814600 -20.413800 -29.929700
C -18.812200 -21.410000 -29.234900
O -17.775600 -22.242800 -29.160900
H -17.079600 -21.944700 -29.726200
20
Fragment
H -18.238900 -20.218500 -26.038500
O -17.576400 -19.938300 -26.575100
C -16.532400 -20.757400 -26.487600
O -16.522300 -21.741000 -25.772000
H -15.705500 -20.088200 -28.241100
C -15.371900 -20.309800 -27.335900
H -14.991300 -19.484000 -26.945600
H -14.625800 -22.156300 -27.906500
C -14.264900 -21.348700 -27.461700
H -13.959800 -21.610000 -26.557100
H -13.380100 -20.563900 -29.164800
C -13.073700 -20.827600 -28.261500
H -12.710600 -20.021400 -27.815400
H -12.348700 -22.689300 -28.791200
C -11.968500 -21.866200 -28.391800
H -11.637600 -22.095500 -27.488300
O -10.806800 -20.413800 -29.929700
C -10.804400 -21.410000 -29.234900
O -9.767800 -22.242800 -29.160900
H -9.071800 -21.944700 -29.726200
40
Fragment
H -26.246700 -20.218500 -26.038500
O -25.584200 -19.938300 -26.575100
C -24.540200 -20.757400 -26.487600
O -24.530100 -21.741000 -25.772000
H -23.713300 -20.088200 -28.241100
C -23.379700 -20.309800 -27.335900
H -22.999100 -19.484000 -26.945600
H -22.633600 -22.156300 -27.906500
C -22.272700 -21.348700 -27.461700
H -21.967600 -21.610000 -26.557100
H -21.387900 -20.563900 -29.164800
C -21.081500 -20.827600 -28.261500
H -20.718400 -20.021400 -27.815400
H -20.356500 -22.689300 -28.791200
C -19.976300 -21.866200 -28.391800
H -19.645400 -22.095500 -27.488300
O -18.814600 -20.413800 -29.929700
C -18.812200 -21.410000 -29.234900
O -17.775600 -22.242800 -29.160900
H -17.079600 -21.944700 -29.726200
H -18.238900 -20.218500 -26.038500
O -17.576400 -19.938300 -26.575100
C -16.532400 -20.757400 -26.487600
O -16.522300 -21.741000 -25.772000
H -15.705500 -20.088200 -28.241100
C -15.371900 -20.309800 -27.335900
H -14.991300 -19.484000 -26.945600
H -14.625800 -22.156300 -27.906500
C -14.264900 -21.348700 -27.461700
H -13.959800 -21.610000 -26.557100
H -13.380100 -20.563900 -29.164800
C -13.073700 -20.827600 -28.261500
H -12.710600 -20.021400 -27.815400
H -12.348700 -22.689300 -28.791200
C -11.968500 -21.866200 -28.391800
H -11.637600 -22.095500 -27.488300
O -10.806800 -20.413800 -29.929700
C -10.804400 -21.410000 -29.234900
O -9.767800 -22.242800 -29.160900
H -9.071800 -21.944700 -29.726200
