20
Fragment
H -26.246700 -20.218500 -26.038500
O -25.584200 -19.938300 -26.575100
C -24.540200 -20.757400 -26.487600
O -24.530100 -21.741000 -25.772000
H -23.713300 -20.088200 -28.241100
C -23.379700 -20.309800 -27.335900
H -22.999100 -19.484000 -26.945600
H -22.633600 -22.156300 -27.906500
C -22.272700 -21.348700 -27.461700
H -21.967600 -21.610000 -26.557100
H -21.387900 -20.563900 -29.164800
C -21.081500 -20.827600 -28.261500
H -20.718400 -20.021400 -27.815400
H -20.356500 -22.689300 -28.791200
C -19.976300 -21.866200 -28.391800
H -19.645400 -22.095500 -27.488300
O -18.814600 -20.413800 -29.929700
C -18.812200 -21.410000 -29.234900
O -17.775600 -22.242800 -29.160900
H -17.079600 -21.944700 -29.726200
20
Fragment
H -24.454300 -15.455500 -26.034800
O -23.758300 -15.157400 -26.600000
C -22.721700 -15.990200 -26.526000
O -22.719300 -16.986400 -25.831300
H -21.888400 -15.304700 -28.272700
C -21.557600 -15.534000 -27.369200
H -21.177300 -14.710900 -26.969700
H -20.815400 -17.378800 -27.945500
C -20.452400 -16.572600 -27.499400
H -20.145900 -16.836300 -26.596100
H -19.566300 -15.790200 -29.203900
C -19.261200 -16.051600 -28.299200
H -18.900200 -15.243900 -27.854500
H -18.534800 -17.916200 -28.815400
C -18.154200 -17.090400 -28.425100
H -17.820600 -17.312000 -27.519900
O -17.003700 -15.659200 -29.989000
C -16.993700 -16.642800 -29.273400
O -15.949700 -17.461900 -29.185800
H -15.287200 -17.181700 -29.722500
40
Fragment
H -26.246700 -20.218500 -26.038500
O -25.584200 -19.938300 -26.575100
C -24.540200 -20.757400 -26.487600
O -24.530100 -21.741000 -25.772000
H -23.713300 -20.088200 -28.241100
C -23.379700 -20.309800 -27.335900
H -22.999100 -19.484000 -26.945600
H -22.633600 -22.156300 -27.906500
C -22.272700 -21.348700 -27.461700
H -21.967600 -21.610000 -26.557100
H -21.387900 -20.563900 -29.164800
C -21.081500 -20.827600 -28.261500
H -20.718400 -20.021400 -27.815400
H -20.356500 -22.689300 -28.791200
C -19.976300 -21.866200 -28.391800
H -19.645400 -22.095500 -27.488300
O -18.814600 -20.413800 -29.929700
C -18.812200 -21.410000 -29.234900
O -17.775600 -22.242800 -29.160900
H -17.079600 -21.944700 -29.726200
H -24.454300 -15.455500 -26.034800
O -23.758300 -15.157400 -26.600000
C -22.721700 -15.990200 -26.526000
O -22.719300 -16.986400 -25.831300
H -21.888400 -15.304700 -28.272700
C -21.557600 -15.534000 -27.369200
H -21.177300 -14.710900 -26.969700
H -20.815400 -17.378800 -27.945500
C -20.452400 -16.572600 -27.499400
H -20.145900 -16.836300 -26.596100
H -19.566300 -15.790200 -29.203900
C -19.261200 -16.051600 -28.299200
H -18.900200 -15.243900 -27.854500
H -18.534800 -17.916200 -28.815400
C -18.154200 -17.090400 -28.425100
H -17.820600 -17.312000 -27.519900
O -17.003700 -15.659200 -29.989000
C -16.993700 -16.642800 -29.273400
O -15.949700 -17.461900 -29.185800
H -15.287200 -17.181700 -29.722500
