28
Fragment
H -12.278800 -14.585800 -20.972900
H -11.954200 -13.273400 -22.880600
C -11.412500 -14.483500 -21.349300
C -11.219600 -13.718000 -22.473200
H -10.441300 -15.631000 -19.999400
C -10.309600 -15.103300 -20.778400
H -10.270400 -11.956100 -24.189900
H -10.179300 -13.312800 -25.026100
C -9.937500 -13.596900 -23.014500
C -9.769000 -12.804500 -24.282400
H -9.428800 -16.818900 -27.061600
N -9.065700 -14.993900 -21.272300
N -8.971700 -15.047900 -26.099700
C -8.894900 -14.254200 -22.375600
C -8.798900 -16.116700 -26.945900
N -8.383000 -12.488600 -24.644600
H -8.020200 -14.175100 -22.737800
H -8.015600 -10.755100 -23.541400
C -7.875700 -14.323600 -26.260800
C -7.707200 -11.386700 -24.180400
C -7.604800 -16.035800 -27.596900
C -7.554100 -13.104100 -25.548400
H -7.253900 -16.653000 -28.228200
N -7.015000 -14.884700 -27.154000
C -6.509200 -11.382400 -24.819100
N -6.404200 -12.458500 -25.677700
H -6.244400 -14.544400 -27.473500
H -5.833400 -10.727100 -24.691700
15
Fragment
O -8.540500 -16.944400 -32.312900
H -7.749400 -18.436500 -30.421300
H -7.477600 -15.795000 -33.967300
C -7.340800 -16.941400 -32.544300
C -6.827100 -18.458300 -30.647800
O -6.797100 -16.227100 -33.504000
C -6.361100 -17.746900 -31.751700
H -6.254200 -19.677100 -29.124200
C -5.939800 -19.197600 -29.881200
C -5.007200 -17.808900 -32.090700
H -4.689900 -17.335500 -32.851000
C -4.584400 -19.239500 -30.219700
C -4.120700 -18.557000 -31.326000
H -3.979200 -19.739800 -29.685700
H -3.201600 -18.598600 -31.563400
43
Fragment
H -12.278800 -14.585800 -20.972900
H -11.954200 -13.273400 -22.880600
C -11.412500 -14.483500 -21.349300
C -11.219600 -13.718000 -22.473200
H -10.441300 -15.631000 -19.999400
C -10.309600 -15.103300 -20.778400
H -10.270400 -11.956100 -24.189900
H -10.179300 -13.312800 -25.026100
C -9.937500 -13.596900 -23.014500
C -9.769000 -12.804500 -24.282400
H -9.428800 -16.818900 -27.061600
N -9.065700 -14.993900 -21.272300
N -8.971700 -15.047900 -26.099700
C -8.894900 -14.254200 -22.375600
C -8.798900 -16.116700 -26.945900
N -8.383000 -12.488600 -24.644600
H -8.020200 -14.175100 -22.737800
H -8.015600 -10.755100 -23.541400
C -7.875700 -14.323600 -26.260800
C -7.707200 -11.386700 -24.180400
C -7.604800 -16.035800 -27.596900
C -7.554100 -13.104100 -25.548400
H -7.253900 -16.653000 -28.228200
N -7.015000 -14.884700 -27.154000
C -6.509200 -11.382400 -24.819100
N -6.404200 -12.458500 -25.677700
H -6.244400 -14.544400 -27.473500
H -5.833400 -10.727100 -24.691700
O -8.540500 -16.944400 -32.312900
H -7.749400 -18.436500 -30.421300
H -7.477600 -15.795000 -33.967300
C -7.340800 -16.941400 -32.544300
C -6.827100 -18.458300 -30.647800
O -6.797100 -16.227100 -33.504000
C -6.361100 -17.746900 -31.751700
H -6.254200 -19.677100 -29.124200
C -5.939800 -19.197600 -29.881200
C -5.007200 -17.808900 -32.090700
H -4.689900 -17.335500 -32.851000
C -4.584400 -19.239500 -30.219700
C -4.120700 -18.557000 -31.326000
H -3.979200 -19.739800 -29.685700
H -3.201600 -18.598600 -31.563400
