28
Fragment
H -12.278800 -14.585800 -20.972900
H -11.954200 -13.273400 -22.880600
C -11.412500 -14.483500 -21.349300
C -11.219600 -13.718000 -22.473200
H -10.441300 -15.631000 -19.999400
C -10.309600 -15.103300 -20.778400
H -10.270400 -11.956100 -24.189900
H -10.179300 -13.312800 -25.026100
C -9.937500 -13.596900 -23.014500
C -9.769000 -12.804500 -24.282400
H -9.428800 -16.818900 -27.061600
N -9.065700 -14.993900 -21.272300
N -8.971700 -15.047900 -26.099700
C -8.894900 -14.254200 -22.375600
C -8.798900 -16.116700 -26.945900
N -8.383000 -12.488600 -24.644600
H -8.020200 -14.175100 -22.737800
H -8.015600 -10.755100 -23.541400
C -7.875700 -14.323600 -26.260800
C -7.707200 -11.386700 -24.180400
C -7.604800 -16.035800 -27.596900
C -7.554100 -13.104100 -25.548400
H -7.253900 -16.653000 -28.228200
N -7.015000 -14.884700 -27.154000
C -6.509200 -11.382400 -24.819100
N -6.404200 -12.458500 -25.677700
H -6.244400 -14.544400 -27.473500
H -5.833400 -10.727100 -24.691700
28
Fragment
H -5.250800 -14.585800 -20.972900
H -4.926200 -13.273400 -22.880600
C -4.384500 -14.483500 -21.349300
C -4.191600 -13.718000 -22.473200
H -3.413300 -15.631000 -19.999400
C -3.281600 -15.103300 -20.778400
H -3.242400 -11.956100 -24.189900
H -3.151300 -13.312800 -25.026100
C -2.909500 -13.596900 -23.014500
C -2.741000 -12.804500 -24.282400
H -2.400800 -16.818900 -27.061600
N -2.037700 -14.993900 -21.272300
N -1.943700 -15.047900 -26.099700
C -1.866900 -14.254200 -22.375600
C -1.770900 -16.116700 -26.945900
N -1.355000 -12.488600 -24.644600
H -0.992200 -14.175100 -22.737800
H -0.987600 -10.755100 -23.541400
C -0.847700 -14.323600 -26.260800
C -0.679200 -11.386700 -24.180400
C -0.576800 -16.035800 -27.596900
C -0.526100 -13.104100 -25.548400
H -0.225900 -16.653000 -28.228200
N 0.013000 -14.884700 -27.154000
C 0.518800 -11.382400 -24.819100
N 0.623800 -12.458500 -25.677700
H 0.783600 -14.544400 -27.473500
H 1.194600 -10.727100 -24.691700
56
Fragment
H -12.278800 -14.585800 -20.972900
H -11.954200 -13.273400 -22.880600
C -11.412500 -14.483500 -21.349300
C -11.219600 -13.718000 -22.473200
H -10.441300 -15.631000 -19.999400
C -10.309600 -15.103300 -20.778400
H -10.270400 -11.956100 -24.189900
H -10.179300 -13.312800 -25.026100
C -9.937500 -13.596900 -23.014500
C -9.769000 -12.804500 -24.282400
H -9.428800 -16.818900 -27.061600
N -9.065700 -14.993900 -21.272300
N -8.971700 -15.047900 -26.099700
C -8.894900 -14.254200 -22.375600
C -8.798900 -16.116700 -26.945900
N -8.383000 -12.488600 -24.644600
H -8.020200 -14.175100 -22.737800
H -8.015600 -10.755100 -23.541400
C -7.875700 -14.323600 -26.260800
C -7.707200 -11.386700 -24.180400
C -7.604800 -16.035800 -27.596900
C -7.554100 -13.104100 -25.548400
H -7.253900 -16.653000 -28.228200
N -7.015000 -14.884700 -27.154000
C -6.509200 -11.382400 -24.819100
N -6.404200 -12.458500 -25.677700
H -6.244400 -14.544400 -27.473500
H -5.833400 -10.727100 -24.691700
H -5.250800 -14.585800 -20.972900
H -4.926200 -13.273400 -22.880600
C -4.384500 -14.483500 -21.349300
C -4.191600 -13.718000 -22.473200
H -3.413300 -15.631000 -19.999400
C -3.281600 -15.103300 -20.778400
H -3.242400 -11.956100 -24.189900
H -3.151300 -13.312800 -25.026100
C -2.909500 -13.596900 -23.014500
C -2.741000 -12.804500 -24.282400
H -2.400800 -16.818900 -27.061600
N -2.037700 -14.993900 -21.272300
N -1.943700 -15.047900 -26.099700
C -1.866900 -14.254200 -22.375600
C -1.770900 -16.116700 -26.945900
N -1.355000 -12.488600 -24.644600
H -0.992200 -14.175100 -22.737800
H -0.987600 -10.755100 -23.541400
C -0.847700 -14.323600 -26.260800
C -0.679200 -11.386700 -24.180400
C -0.576800 -16.035800 -27.596900
C -0.526100 -13.104100 -25.548400
H -0.225900 -16.653000 -28.228200
N 0.013000 -14.884700 -27.154000
C 0.518800 -11.382400 -24.819100
N 0.623800 -12.458500 -25.677700
H 0.783600 -14.544400 -27.473500
H 1.194600 -10.727100 -24.691700
