28
Fragment
H -12.278800 -14.585800 -20.972900
H -11.954200 -13.273400 -22.880600
C -11.412500 -14.483500 -21.349300
C -11.219600 -13.718000 -22.473200
H -10.441300 -15.631000 -19.999400
C -10.309600 -15.103300 -20.778400
H -10.270400 -11.956100 -24.189900
H -10.179300 -13.312800 -25.026100
C -9.937500 -13.596900 -23.014500
C -9.769000 -12.804500 -24.282400
H -9.428800 -16.818900 -27.061600
N -9.065700 -14.993900 -21.272300
N -8.971700 -15.047900 -26.099700
C -8.894900 -14.254200 -22.375600
C -8.798900 -16.116700 -26.945900
N -8.383000 -12.488600 -24.644600
H -8.020200 -14.175100 -22.737800
H -8.015600 -10.755100 -23.541400
C -7.875700 -14.323600 -26.260800
C -7.707200 -11.386700 -24.180400
C -7.604800 -16.035800 -27.596900
C -7.554100 -13.104100 -25.548400
H -7.253900 -16.653000 -28.228200
N -7.015000 -14.884700 -27.154000
C -6.509200 -11.382400 -24.819100
N -6.404200 -12.458500 -25.677700
H -6.244400 -14.544400 -27.473500
H -5.833400 -10.727100 -24.691700
15
Fragment
H -7.847300 -8.129100 -22.823500
H -7.069800 -6.988000 -24.701200
C -6.928300 -8.170800 -23.060900
C -6.464600 -7.488300 -24.167200
H -6.359100 -9.392200 -21.535900
C -6.041800 -8.918900 -22.296200
C -5.109200 -7.530200 -24.505600
H -4.794800 -7.050700 -25.262700
C -4.687900 -8.980900 -22.635100
O -4.251800 -10.500700 -20.882900
C -4.221900 -8.269500 -23.739100
C -3.708200 -9.786300 -21.842600
H -3.571400 -10.932800 -20.419600
H -3.299600 -8.291300 -23.965600
O -2.508500 -9.783300 -22.074000
43
Fragment
H -12.278800 -14.585800 -20.972900
H -11.954200 -13.273400 -22.880600
C -11.412500 -14.483500 -21.349300
C -11.219600 -13.718000 -22.473200
H -10.441300 -15.631000 -19.999400
C -10.309600 -15.103300 -20.778400
H -10.270400 -11.956100 -24.189900
H -10.179300 -13.312800 -25.026100
C -9.937500 -13.596900 -23.014500
C -9.769000 -12.804500 -24.282400
H -9.428800 -16.818900 -27.061600
N -9.065700 -14.993900 -21.272300
N -8.971700 -15.047900 -26.099700
C -8.894900 -14.254200 -22.375600
C -8.798900 -16.116700 -26.945900
N -8.383000 -12.488600 -24.644600
H -8.020200 -14.175100 -22.737800
H -8.015600 -10.755100 -23.541400
C -7.875700 -14.323600 -26.260800
C -7.707200 -11.386700 -24.180400
C -7.604800 -16.035800 -27.596900
C -7.554100 -13.104100 -25.548400
H -7.253900 -16.653000 -28.228200
N -7.015000 -14.884700 -27.154000
C -6.509200 -11.382400 -24.819100
N -6.404200 -12.458500 -25.677700
H -6.244400 -14.544400 -27.473500
H -5.833400 -10.727100 -24.691700
H -7.847300 -8.129100 -22.823500
H -7.069800 -6.988000 -24.701200
C -6.928300 -8.170800 -23.060900
C -6.464600 -7.488300 -24.167200
H -6.359100 -9.392200 -21.535900
C -6.041800 -8.918900 -22.296200
C -5.109200 -7.530200 -24.505600
H -4.794800 -7.050700 -25.262700
C -4.687900 -8.980900 -22.635100
O -4.251800 -10.500700 -20.882900
C -4.221900 -8.269500 -23.739100
C -3.708200 -9.786300 -21.842600
H -3.571400 -10.932800 -20.419600
H -3.299600 -8.291300 -23.965600
O -2.508500 -9.783300 -22.074000
