28
Fragment
H -12.278800 -14.585800 -20.972900
H -11.954200 -13.273400 -22.880600
C -11.412500 -14.483500 -21.349300
C -11.219600 -13.718000 -22.473200
H -10.441300 -15.631000 -19.999400
C -10.309600 -15.103300 -20.778400
H -10.270400 -11.956100 -24.189900
H -10.179300 -13.312800 -25.026100
C -9.937500 -13.596900 -23.014500
C -9.769000 -12.804500 -24.282400
H -9.428800 -16.818900 -27.061600
N -9.065700 -14.993900 -21.272300
N -8.971700 -15.047900 -26.099700
C -8.894900 -14.254200 -22.375600
C -8.798900 -16.116700 -26.945900
N -8.383000 -12.488600 -24.644600
H -8.020200 -14.175100 -22.737800
H -8.015600 -10.755100 -23.541400
C -7.875700 -14.323600 -26.260800
C -7.707200 -11.386700 -24.180400
C -7.604800 -16.035800 -27.596900
C -7.554100 -13.104100 -25.548400
H -7.253900 -16.653000 -28.228200
N -7.015000 -14.884700 -27.154000
C -6.509200 -11.382400 -24.819100
N -6.404200 -12.458500 -25.677700
H -6.244400 -14.544400 -27.473500
H -5.833400 -10.727100 -24.691700
28
Fragment
H -5.215500 -16.000700 -29.695200
H -4.804500 -12.183400 -26.913400
N -4.644700 -14.269200 -28.709200
C -4.539800 -15.345400 -29.567800
N -4.033900 -11.843100 -27.232900
H -3.795000 -10.074800 -26.158700
C -3.494900 -13.623700 -28.838500
C -3.444200 -10.691900 -26.790000
C -3.341700 -15.341000 -30.206500
C -3.173300 -12.404100 -28.126000
H -3.033400 -15.972700 -30.845500
H -3.028800 -12.552600 -31.649100
N -2.666000 -14.239200 -29.742300
C -2.250000 -10.611000 -27.441000
C -2.154100 -12.473600 -32.011300
N -2.077200 -11.679800 -28.287200
N -1.983200 -11.733800 -33.114500
H -1.620200 -9.908800 -27.325300
C -1.279900 -13.923300 -30.104500
C -1.111500 -13.130900 -31.372400
H -0.869700 -13.414900 -29.360800
H -0.778600 -14.771700 -30.197000
C -0.739300 -11.624500 -33.608500
H -0.607700 -11.096800 -34.387500
C 0.170700 -13.009800 -31.913700
C 0.363500 -12.244300 -33.037600
H 0.905200 -13.454400 -31.506300
H 1.229800 -12.141900 -33.413900
56
Fragment
H -12.278800 -14.585800 -20.972900
H -11.954200 -13.273400 -22.880600
C -11.412500 -14.483500 -21.349300
C -11.219600 -13.718000 -22.473200
H -10.441300 -15.631000 -19.999400
C -10.309600 -15.103300 -20.778400
H -10.270400 -11.956100 -24.189900
H -10.179300 -13.312800 -25.026100
C -9.937500 -13.596900 -23.014500
C -9.769000 -12.804500 -24.282400
H -9.428800 -16.818900 -27.061600
N -9.065700 -14.993900 -21.272300
N -8.971700 -15.047900 -26.099700
C -8.894900 -14.254200 -22.375600
C -8.798900 -16.116700 -26.945900
N -8.383000 -12.488600 -24.644600
H -8.020200 -14.175100 -22.737800
H -8.015600 -10.755100 -23.541400
C -7.875700 -14.323600 -26.260800
C -7.707200 -11.386700 -24.180400
C -7.604800 -16.035800 -27.596900
C -7.554100 -13.104100 -25.548400
H -7.253900 -16.653000 -28.228200
N -7.015000 -14.884700 -27.154000
C -6.509200 -11.382400 -24.819100
N -6.404200 -12.458500 -25.677700
H -6.244400 -14.544400 -27.473500
H -5.833400 -10.727100 -24.691700
H -5.215500 -16.000700 -29.695200
H -4.804500 -12.183400 -26.913400
N -4.644700 -14.269200 -28.709200
C -4.539800 -15.345400 -29.567800
N -4.033900 -11.843100 -27.232900
H -3.795000 -10.074800 -26.158700
C -3.494900 -13.623700 -28.838500
C -3.444200 -10.691900 -26.790000
C -3.341700 -15.341000 -30.206500
C -3.173300 -12.404100 -28.126000
H -3.033400 -15.972700 -30.845500
H -3.028800 -12.552600 -31.649100
N -2.666000 -14.239200 -29.742300
C -2.250000 -10.611000 -27.441000
C -2.154100 -12.473600 -32.011300
N -2.077200 -11.679800 -28.287200
N -1.983200 -11.733800 -33.114500
H -1.620200 -9.908800 -27.325300
C -1.279900 -13.923300 -30.104500
C -1.111500 -13.130900 -31.372400
H -0.869700 -13.414900 -29.360800
H -0.778600 -14.771700 -30.197000
C -0.739300 -11.624500 -33.608500
H -0.607700 -11.096800 -34.387500
C 0.170700 -13.009800 -31.913700
C 0.363500 -12.244300 -33.037600
H 0.905200 -13.454400 -31.506300
H 1.229800 -12.141900 -33.413900
