28
Fragment
H -25.628200 -6.842000 -31.801100
C -24.922700 -6.479500 -31.315900
N -24.784100 -6.850200 -30.050000
H -24.219200 -5.384800 -32.855800
C -24.088400 -5.592200 -31.959300
C -23.783000 -6.293700 -29.370500
H -23.666300 -6.532300 -28.478600
C -23.048900 -5.013100 -31.243400
C -22.913600 -5.382800 -29.923600
H -22.416700 -3.800300 -32.770100
H -22.233300 -5.016500 -29.405900
C -22.085500 -4.048100 -31.891800
H -22.022400 -3.242400 -31.355000
H -21.013000 -5.972000 -33.598600
N -20.752900 -4.655400 -32.022600
N -20.463400 -2.828500 -29.584100
C -20.440700 -5.617600 -32.956100
H -20.250200 -1.468700 -28.061100
C -19.827400 -2.067000 -28.634600
C -19.624600 -4.446100 -31.281200
C -19.494900 -3.512200 -30.175000
C -19.147400 -5.949400 -32.761400
H -18.673200 -6.575500 -33.258000
N -18.637300 -5.215800 -31.710100
C -18.493800 -2.313300 -28.653900
N -18.290300 -3.228000 -29.626700
H -17.847300 -1.929200 -28.105000
H -17.488900 -3.586600 -29.867400
20
Fragment
H -16.610600 -0.782600 -25.610900
O -16.083600 -1.406300 -26.184500
C -15.163300 -2.062700 -25.492900
H -15.071700 -3.708100 -26.674500
O -14.964500 -1.874500 -24.315100
C -14.433900 -3.056600 -26.343800
H -14.063400 -2.593700 -27.111800
H -13.625300 -4.049000 -24.754000
C -13.315800 -3.791700 -25.635800
H -13.120900 -4.605000 -26.127300
H -12.230000 -2.149100 -25.055000
C -12.032300 -2.994600 -25.487200
H -11.671200 -2.802100 -26.366900
H -11.352500 -3.896800 -23.787100
C -10.993900 -3.742200 -24.674400
H -10.849300 -4.608900 -25.085800
C -9.669900 -3.057100 -24.536600
O -9.356000 -2.048300 -25.126000
O -8.871000 -3.676900 -23.695500
H -8.046200 -3.168900 -23.650800
48
Fragment
H -25.628200 -6.842000 -31.801100
C -24.922700 -6.479500 -31.315900
N -24.784100 -6.850200 -30.050000
H -24.219200 -5.384800 -32.855800
C -24.088400 -5.592200 -31.959300
C -23.783000 -6.293700 -29.370500
H -23.666300 -6.532300 -28.478600
C -23.048900 -5.013100 -31.243400
C -22.913600 -5.382800 -29.923600
H -22.416700 -3.800300 -32.770100
H -22.233300 -5.016500 -29.405900
C -22.085500 -4.048100 -31.891800
H -22.022400 -3.242400 -31.355000
H -21.013000 -5.972000 -33.598600
N -20.752900 -4.655400 -32.022600
N -20.463400 -2.828500 -29.584100
C -20.440700 -5.617600 -32.956100
H -20.250200 -1.468700 -28.061100
C -19.827400 -2.067000 -28.634600
C -19.624600 -4.446100 -31.281200
C -19.494900 -3.512200 -30.175000
C -19.147400 -5.949400 -32.761400
H -18.673200 -6.575500 -33.258000
N -18.637300 -5.215800 -31.710100
C -18.493800 -2.313300 -28.653900
N -18.290300 -3.228000 -29.626700
H -17.847300 -1.929200 -28.105000
H -17.488900 -3.586600 -29.867400
H -16.610600 -0.782600 -25.610900
O -16.083600 -1.406300 -26.184500
C -15.163300 -2.062700 -25.492900
H -15.071700 -3.708100 -26.674500
O -14.964500 -1.874500 -24.315100
C -14.433900 -3.056600 -26.343800
H -14.063400 -2.593700 -27.111800
H -13.625300 -4.049000 -24.754000
C -13.315800 -3.791700 -25.635800
H -13.120900 -4.605000 -26.127300
H -12.230000 -2.149100 -25.055000
C -12.032300 -2.994600 -25.487200
H -11.671200 -2.802100 -26.366900
H -11.352500 -3.896800 -23.787100
C -10.993900 -3.742200 -24.674400
H -10.849300 -4.608900 -25.085800
C -9.669900 -3.057100 -24.536600
O -9.356000 -2.048300 -25.126000
O -8.871000 -3.676900 -23.695500
H -8.046200 -3.168900 -23.650800
