28
Fragment
H -5.275700 -14.551800 -18.685200
H -4.736400 -14.082300 -21.047600
C -4.627700 -15.016200 -19.200900
C -4.338300 -14.747400 -20.499700
N -3.858400 -16.047600 -18.736800
H -3.479900 -17.947800 -17.512700
N -3.355800 -15.630400 -20.858400
C -3.106600 -16.398500 -19.769700
H -2.929300 -15.677500 -21.656500
H -2.847700 -19.401300 -17.275000
C -2.632400 -18.458200 -17.485000
C -2.146200 -17.480800 -19.790800
H -2.044300 -15.912600 -16.802500
N -1.971000 -18.383900 -18.791700
C -1.736300 -17.893000 -16.411200
C -1.566100 -16.524400 -16.255400
N -1.332800 -17.741900 -20.802400
H -1.126600 -19.680200 -15.652200
C -1.031200 -18.738500 -15.576300
C -0.979200 -19.251600 -19.193000
C -0.692600 -16.070900 -15.293400
H -0.630300 -19.987100 -18.702800
C -0.603100 -18.842900 -20.427000
H -0.576100 -15.133200 -15.197300
C -0.185000 -18.193100 -14.629900
N 0.000700 -16.879700 -14.487100
H 0.068200 -19.257100 -20.956600
H 0.287500 -18.782100 -14.052700
14
Fragment
H 1.176400 -16.412500 -13.377800
O 1.819500 -16.066400 -12.750000
O 2.162300 -18.218800 -12.260100
O 2.371300 -17.391300 -8.710300
C 2.423000 -17.046400 -12.101200
H 3.072600 -15.851600 -10.569300
C 3.397900 -17.946800 -9.066000
C 3.482600 -16.526400 -11.166000
H 3.522900 -19.154300 -7.501100
O 3.984600 -18.898900 -8.389800
C 4.149000 -17.581200 -10.313500
H 4.178300 -16.068200 -11.702100
H 4.270500 -18.398000 -10.859800
H 5.048700 -17.257200 -10.057200
42
Fragment
H -5.275700 -14.551800 -18.685200
H -4.736400 -14.082300 -21.047600
C -4.627700 -15.016200 -19.200900
C -4.338300 -14.747400 -20.499700
N -3.858400 -16.047600 -18.736800
H -3.479900 -17.947800 -17.512700
N -3.355800 -15.630400 -20.858400
C -3.106600 -16.398500 -19.769700
H -2.929300 -15.677500 -21.656500
H -2.847700 -19.401300 -17.275000
C -2.632400 -18.458200 -17.485000
C -2.146200 -17.480800 -19.790800
H -2.044300 -15.912600 -16.802500
N -1.971000 -18.383900 -18.791700
C -1.736300 -17.893000 -16.411200
C -1.566100 -16.524400 -16.255400
N -1.332800 -17.741900 -20.802400
H -1.126600 -19.680200 -15.652200
C -1.031200 -18.738500 -15.576300
C -0.979200 -19.251600 -19.193000
C -0.692600 -16.070900 -15.293400
H -0.630300 -19.987100 -18.702800
C -0.603100 -18.842900 -20.427000
H -0.576100 -15.133200 -15.197300
C -0.185000 -18.193100 -14.629900
N 0.000700 -16.879700 -14.487100
H 0.068200 -19.257100 -20.956600
H 0.287500 -18.782100 -14.052700
H 1.176400 -16.412500 -13.377800
O 1.819500 -16.066400 -12.750000
O 2.162300 -18.218800 -12.260100
O 2.371300 -17.391300 -8.710300
C 2.423000 -17.046400 -12.101200
H 3.072600 -15.851600 -10.569300
C 3.397900 -17.946800 -9.066000
C 3.482600 -16.526400 -11.166000
H 3.522900 -19.154300 -7.501100
O 3.984600 -18.898900 -8.389800
C 4.149000 -17.581200 -10.313500
H 4.178300 -16.068200 -11.702100
H 4.270500 -18.398000 -10.859800
H 5.048700 -17.257200 -10.057200
