28
Fragment
H -25.628200 -6.842000 -31.801100
C -24.922700 -6.479500 -31.315900
N -24.784100 -6.850200 -30.050000
H -24.219200 -5.384800 -32.855800
C -24.088400 -5.592200 -31.959300
C -23.783000 -6.293700 -29.370500
H -23.666300 -6.532300 -28.478600
C -23.048900 -5.013100 -31.243400
C -22.913600 -5.382800 -29.923600
H -22.416700 -3.800300 -32.770100
H -22.233300 -5.016500 -29.405900
C -22.085500 -4.048100 -31.891800
H -22.022400 -3.242400 -31.355000
H -21.013000 -5.972000 -33.598600
N -20.752900 -4.655400 -32.022600
N -20.463400 -2.828500 -29.584100
C -20.440700 -5.617600 -32.956100
H -20.250200 -1.468700 -28.061100
C -19.827400 -2.067000 -28.634600
C -19.624600 -4.446100 -31.281200
C -19.494900 -3.512200 -30.175000
C -19.147400 -5.949400 -32.761400
H -18.673200 -6.575500 -33.258000
N -18.637300 -5.215800 -31.710100
C -18.493800 -2.313300 -28.653900
N -18.290300 -3.228000 -29.626700
H -17.847300 -1.929200 -28.105000
H -17.488900 -3.586600 -29.867400
20
Fragment
H -25.083200 -11.220900 -36.598100
O -24.556200 -10.597200 -37.171600
C -23.635900 -9.940800 -36.480100
H -23.544300 -8.295400 -37.661600
O -23.437100 -10.129000 -35.302200
C -22.906500 -8.946900 -37.330900
H -22.536000 -9.409800 -38.098900
H -22.097900 -7.954500 -35.741100
C -21.788400 -8.211800 -36.622900
H -21.593500 -7.398500 -37.114500
H -20.702600 -9.854400 -36.042100
C -20.504900 -9.008900 -36.474300
H -20.143800 -9.201400 -37.354000
H -19.825100 -8.106700 -34.774200
C -19.466500 -8.261300 -35.661500
H -19.321900 -7.394600 -36.072900
C -18.142500 -8.946400 -35.523700
O -17.828600 -9.955200 -36.113100
O -17.343600 -8.326600 -34.682600
H -16.518800 -8.834600 -34.638000
48
Fragment
H -25.628200 -6.842000 -31.801100
C -24.922700 -6.479500 -31.315900
N -24.784100 -6.850200 -30.050000
H -24.219200 -5.384800 -32.855800
C -24.088400 -5.592200 -31.959300
C -23.783000 -6.293700 -29.370500
H -23.666300 -6.532300 -28.478600
C -23.048900 -5.013100 -31.243400
C -22.913600 -5.382800 -29.923600
H -22.416700 -3.800300 -32.770100
H -22.233300 -5.016500 -29.405900
C -22.085500 -4.048100 -31.891800
H -22.022400 -3.242400 -31.355000
H -21.013000 -5.972000 -33.598600
N -20.752900 -4.655400 -32.022600
N -20.463400 -2.828500 -29.584100
C -20.440700 -5.617600 -32.956100
H -20.250200 -1.468700 -28.061100
C -19.827400 -2.067000 -28.634600
C -19.624600 -4.446100 -31.281200
C -19.494900 -3.512200 -30.175000
C -19.147400 -5.949400 -32.761400
H -18.673200 -6.575500 -33.258000
N -18.637300 -5.215800 -31.710100
C -18.493800 -2.313300 -28.653900
N -18.290300 -3.228000 -29.626700
H -17.847300 -1.929200 -28.105000
H -17.488900 -3.586600 -29.867400
H -25.083200 -11.220900 -36.598100
O -24.556200 -10.597200 -37.171600
C -23.635900 -9.940800 -36.480100
H -23.544300 -8.295400 -37.661600
O -23.437100 -10.129000 -35.302200
C -22.906500 -8.946900 -37.330900
H -22.536000 -9.409800 -38.098900
H -22.097900 -7.954500 -35.741100
C -21.788400 -8.211800 -36.622900
H -21.593500 -7.398500 -37.114500
H -20.702600 -9.854400 -36.042100
C -20.504900 -9.008900 -36.474300
H -20.143800 -9.201400 -37.354000
H -19.825100 -8.106700 -34.774200
C -19.466500 -8.261300 -35.661500
H -19.321900 -7.394600 -36.072900
C -18.142500 -8.946400 -35.523700
O -17.828600 -9.955200 -36.113100
O -17.343600 -8.326600 -34.682600
H -16.518800 -8.834600 -34.638000
