28
Fragment
H -5.275700 -14.551800 -18.685200
H -4.736400 -14.082300 -21.047600
C -4.627700 -15.016200 -19.200900
C -4.338300 -14.747400 -20.499700
N -3.858400 -16.047600 -18.736800
H -3.479900 -17.947800 -17.512700
N -3.355800 -15.630400 -20.858400
C -3.106600 -16.398500 -19.769700
H -2.929300 -15.677500 -21.656500
H -2.847700 -19.401300 -17.275000
C -2.632400 -18.458200 -17.485000
C -2.146200 -17.480800 -19.790800
H -2.044300 -15.912600 -16.802500
N -1.971000 -18.383900 -18.791700
C -1.736300 -17.893000 -16.411200
C -1.566100 -16.524400 -16.255400
N -1.332800 -17.741900 -20.802400
H -1.126600 -19.680200 -15.652200
C -1.031200 -18.738500 -15.576300
C -0.979200 -19.251600 -19.193000
C -0.692600 -16.070900 -15.293400
H -0.630300 -19.987100 -18.702800
C -0.603100 -18.842900 -20.427000
H -0.576100 -15.133200 -15.197300
C -0.185000 -18.193100 -14.629900
N 0.000700 -16.879700 -14.487100
H 0.068200 -19.257100 -20.956600
H 0.287500 -18.782100 -14.052700
14
Fragment
H -3.232700 -14.379300 -28.051200
O -2.589500 -14.033200 -27.423500
O -2.246700 -16.185600 -26.933500
O -2.037800 -15.358100 -23.383700
C -1.986000 -15.013200 -26.774600
H -1.336400 -13.818400 -25.242700
C -1.011200 -15.913600 -23.739400
C -0.926400 -14.493200 -25.839500
H -0.886200 -17.121100 -22.174500
O -0.424400 -16.865700 -23.063300
C -0.260000 -15.548000 -24.987000
H -0.230800 -14.035100 -26.375500
H -0.138500 -16.364800 -25.533200
H 0.639600 -15.224000 -24.730600
42
Fragment
H -5.275700 -14.551800 -18.685200
H -4.736400 -14.082300 -21.047600
C -4.627700 -15.016200 -19.200900
C -4.338300 -14.747400 -20.499700
N -3.858400 -16.047600 -18.736800
H -3.479900 -17.947800 -17.512700
N -3.355800 -15.630400 -20.858400
C -3.106600 -16.398500 -19.769700
H -2.929300 -15.677500 -21.656500
H -2.847700 -19.401300 -17.275000
C -2.632400 -18.458200 -17.485000
C -2.146200 -17.480800 -19.790800
H -2.044300 -15.912600 -16.802500
N -1.971000 -18.383900 -18.791700
C -1.736300 -17.893000 -16.411200
C -1.566100 -16.524400 -16.255400
N -1.332800 -17.741900 -20.802400
H -1.126600 -19.680200 -15.652200
C -1.031200 -18.738500 -15.576300
C -0.979200 -19.251600 -19.193000
C -0.692600 -16.070900 -15.293400
H -0.630300 -19.987100 -18.702800
C -0.603100 -18.842900 -20.427000
H -0.576100 -15.133200 -15.197300
C -0.185000 -18.193100 -14.629900
N 0.000700 -16.879700 -14.487100
H 0.068200 -19.257100 -20.956600
H 0.287500 -18.782100 -14.052700
H -3.232700 -14.379300 -28.051200
O -2.589500 -14.033200 -27.423500
O -2.246700 -16.185600 -26.933500
O -2.037800 -15.358100 -23.383700
C -1.986000 -15.013200 -26.774600
H -1.336400 -13.818400 -25.242700
C -1.011200 -15.913600 -23.739400
C -0.926400 -14.493200 -25.839500
H -0.886200 -17.121100 -22.174500
O -0.424400 -16.865700 -23.063300
C -0.260000 -15.548000 -24.987000
H -0.230800 -14.035100 -26.375500
H -0.138500 -16.364800 -25.533200
H 0.639600 -15.224000 -24.730600
