28
Fragment
H -7.247800 -13.542600 -17.891200
C -6.515600 -13.119500 -17.459000
H -6.509700 -13.983700 -15.573600
C -6.116600 -13.370600 -16.184500
N -5.713200 -12.170900 -18.031600
H -5.552500 -11.550300 -21.369800
H -5.177800 -10.206100 -19.467400
N -5.038400 -12.564300 -15.956800
C -4.830100 -11.859900 -17.095100
C -4.691800 -11.947100 -21.300100
H -4.576700 -12.524200 -15.177700
N -4.425900 -13.006700 -22.066300
C -4.197900 -10.185600 -19.606200
H -3.980500 -9.366700 -20.118300
C -3.789400 -11.389600 -20.408400
C -3.763700 -10.891800 -17.206500
N -3.535200 -10.126800 -18.310500
C -3.223300 -13.575000 -21.950500
H -3.018700 -14.328900 -22.490800
N -2.895900 -10.610100 -16.242800
C -2.550100 -11.994900 -20.297800
C -2.458300 -9.322200 -18.027500
C -2.265700 -13.105300 -21.071200
C -2.084100 -9.632000 -16.759000
H -2.057200 -8.680300 -18.601500
H -1.900500 -11.650600 -19.695700
H -1.423400 -13.539900 -20.999100
H -1.360800 -9.227400 -16.294300
28
Fragment
H -10.634600 -12.478600 -28.189100
H -10.572000 -8.166200 -23.484200
H -10.094900 -10.055500 -24.787600
H -9.938200 -13.025800 -25.881900
C -9.911300 -12.074100 -27.724400
C -9.729700 -8.600800 -23.412200
C -9.537100 -12.383900 -26.455900
C -9.445300 -9.711200 -24.185600
N -9.099500 -11.096000 -28.240600
H -8.976700 -7.377200 -21.992600
C -8.772100 -8.131000 -22.532900
N -8.460200 -11.579200 -26.172800
C -8.231700 -10.814200 -27.276900
C -8.206000 -10.316500 -24.075000
H -8.014900 -12.339300 -24.365000
C -7.797500 -11.520400 -24.877200
N -7.569500 -8.699400 -22.417100
H -7.418700 -9.181900 -29.305600
C -7.303600 -9.759000 -23.183200
C -7.165300 -9.846200 -27.388200
N -6.957000 -9.141800 -28.526600
H -6.817600 -11.500000 -25.016000
H -6.442900 -10.155700 -23.113500
N -6.282200 -9.535200 -26.451700
C -5.878900 -8.335500 -28.298800
H -5.485700 -7.722400 -28.909700
C -5.479800 -8.586500 -27.024400
H -4.747600 -8.163500 -26.592100
56
Fragment
H -7.247800 -13.542600 -17.891200
C -6.515600 -13.119500 -17.459000
H -6.509700 -13.983700 -15.573600
C -6.116600 -13.370600 -16.184500
N -5.713200 -12.170900 -18.031600
H -5.552500 -11.550300 -21.369800
H -5.177800 -10.206100 -19.467400
N -5.038400 -12.564300 -15.956800
C -4.830100 -11.859900 -17.095100
C -4.691800 -11.947100 -21.300100
H -4.576700 -12.524200 -15.177700
N -4.425900 -13.006700 -22.066300
C -4.197900 -10.185600 -19.606200
H -3.980500 -9.366700 -20.118300
C -3.789400 -11.389600 -20.408400
C -3.763700 -10.891800 -17.206500
N -3.535200 -10.126800 -18.310500
C -3.223300 -13.575000 -21.950500
H -3.018700 -14.328900 -22.490800
N -2.895900 -10.610100 -16.242800
C -2.550100 -11.994900 -20.297800
C -2.458300 -9.322200 -18.027500
C -2.265700 -13.105300 -21.071200
C -2.084100 -9.632000 -16.759000
H -2.057200 -8.680300 -18.601500
H -1.900500 -11.650600 -19.695700
H -1.423400 -13.539900 -20.999100
H -1.360800 -9.227400 -16.294300
H -10.634600 -12.478600 -28.189100
H -10.572000 -8.166200 -23.484200
H -10.094900 -10.055500 -24.787600
H -9.938200 -13.025800 -25.881900
C -9.911300 -12.074100 -27.724400
C -9.729700 -8.600800 -23.412200
C -9.537100 -12.383900 -26.455900
C -9.445300 -9.711200 -24.185600
N -9.099500 -11.096000 -28.240600
H -8.976700 -7.377200 -21.992600
C -8.772100 -8.131000 -22.532900
N -8.460200 -11.579200 -26.172800
C -8.231700 -10.814200 -27.276900
C -8.206000 -10.316500 -24.075000
H -8.014900 -12.339300 -24.365000
C -7.797500 -11.520400 -24.877200
N -7.569500 -8.699400 -22.417100
H -7.418700 -9.181900 -29.305600
C -7.303600 -9.759000 -23.183200
C -7.165300 -9.846200 -27.388200
N -6.957000 -9.141800 -28.526600
H -6.817600 -11.500000 -25.016000
H -6.442900 -10.155700 -23.113500
N -6.282200 -9.535200 -26.451700
C -5.878900 -8.335500 -28.298800
H -5.485700 -7.722400 -28.909700
C -5.479800 -8.586500 -27.024400
H -4.747600 -8.163500 -26.592100
