28
Fragment
H -7.247800 -13.542600 -17.891200
C -6.515600 -13.119500 -17.459000
H -6.509700 -13.983700 -15.573600
C -6.116600 -13.370600 -16.184500
N -5.713200 -12.170900 -18.031600
H -5.552500 -11.550300 -21.369800
H -5.177800 -10.206100 -19.467400
N -5.038400 -12.564300 -15.956800
C -4.830100 -11.859900 -17.095100
C -4.691800 -11.947100 -21.300100
H -4.576700 -12.524200 -15.177700
N -4.425900 -13.006700 -22.066300
C -4.197900 -10.185600 -19.606200
H -3.980500 -9.366700 -20.118300
C -3.789400 -11.389600 -20.408400
C -3.763700 -10.891800 -17.206500
N -3.535200 -10.126800 -18.310500
C -3.223300 -13.575000 -21.950500
H -3.018700 -14.328900 -22.490800
N -2.895900 -10.610100 -16.242800
C -2.550100 -11.994900 -20.297800
C -2.458300 -9.322200 -18.027500
C -2.265700 -13.105300 -21.071200
C -2.084100 -9.632000 -16.759000
H -2.057200 -8.680300 -18.601500
H -1.900500 -11.650600 -19.695700
H -1.423400 -13.539900 -20.999100
H -1.360800 -9.227400 -16.294300
32
Fragment
O -11.499800 -13.694100 -34.766900
H -10.473600 -15.098900 -36.237600
H -10.365500 -14.073700 -32.111000
C -10.312100 -13.924600 -34.790700
O -9.764700 -14.746100 -35.662600
H -9.524500 -12.431300 -33.601200
C -9.455800 -14.195500 -32.482300
H -9.422500 -14.500600 -29.762300
H -9.339200 -15.156500 -32.687800
C -9.332100 -13.385700 -33.780800
H -8.571800 -12.832300 -31.197700
C -8.530600 -14.634400 -30.171000
H -8.471400 -15.069100 -27.495200
H -8.453300 -15.589800 -30.420700
C -8.431500 -13.783800 -31.434500
H -8.410300 -13.456000 -34.135000
H -7.583500 -15.485500 -25.176100
C -7.562400 -15.157700 -27.876700
H -7.540600 -13.351700 -28.890500
H -7.522500 -13.872300 -31.816000
C -7.463300 -14.307000 -29.140200
H -7.422000 -16.109200 -28.113500
C -6.661800 -15.555800 -25.530300
H -6.654600 -13.785000 -26.623300
H -6.571400 -14.440900 -29.548800
C -6.538100 -14.745900 -26.828800
H -6.469300 -16.510200 -25.709900
O -6.229200 -14.195300 -23.648500
C -5.681800 -15.016800 -24.520400
H -5.628400 -14.867700 -27.200100
H -5.520300 -13.842500 -23.073500
O -4.494100 -15.247300 -24.544300
60
Fragment
H -7.247800 -13.542600 -17.891200
C -6.515600 -13.119500 -17.459000
H -6.509700 -13.983700 -15.573600
C -6.116600 -13.370600 -16.184500
N -5.713200 -12.170900 -18.031600
H -5.552500 -11.550300 -21.369800
H -5.177800 -10.206100 -19.467400
N -5.038400 -12.564300 -15.956800
C -4.830100 -11.859900 -17.095100
C -4.691800 -11.947100 -21.300100
H -4.576700 -12.524200 -15.177700
N -4.425900 -13.006700 -22.066300
C -4.197900 -10.185600 -19.606200
H -3.980500 -9.366700 -20.118300
C -3.789400 -11.389600 -20.408400
C -3.763700 -10.891800 -17.206500
N -3.535200 -10.126800 -18.310500
C -3.223300 -13.575000 -21.950500
H -3.018700 -14.328900 -22.490800
N -2.895900 -10.610100 -16.242800
C -2.550100 -11.994900 -20.297800
C -2.458300 -9.322200 -18.027500
C -2.265700 -13.105300 -21.071200
C -2.084100 -9.632000 -16.759000
H -2.057200 -8.680300 -18.601500
H -1.900500 -11.650600 -19.695700
H -1.423400 -13.539900 -20.999100
H -1.360800 -9.227400 -16.294300
O -11.499800 -13.694100 -34.766900
H -10.473600 -15.098900 -36.237600
H -10.365500 -14.073700 -32.111000
C -10.312100 -13.924600 -34.790700
O -9.764700 -14.746100 -35.662600
H -9.524500 -12.431300 -33.601200
C -9.455800 -14.195500 -32.482300
H -9.422500 -14.500600 -29.762300
H -9.339200 -15.156500 -32.687800
C -9.332100 -13.385700 -33.780800
H -8.571800 -12.832300 -31.197700
C -8.530600 -14.634400 -30.171000
H -8.471400 -15.069100 -27.495200
H -8.453300 -15.589800 -30.420700
C -8.431500 -13.783800 -31.434500
H -8.410300 -13.456000 -34.135000
H -7.583500 -15.485500 -25.176100
C -7.562400 -15.157700 -27.876700
H -7.540600 -13.351700 -28.890500
H -7.522500 -13.872300 -31.816000
C -7.463300 -14.307000 -29.140200
H -7.422000 -16.109200 -28.113500
C -6.661800 -15.555800 -25.530300
H -6.654600 -13.785000 -26.623300
H -6.571400 -14.440900 -29.548800
C -6.538100 -14.745900 -26.828800
H -6.469300 -16.510200 -25.709900
O -6.229200 -14.195300 -23.648500
C -5.681800 -15.016800 -24.520400
H -5.628400 -14.867700 -27.200100
H -5.520300 -13.842500 -23.073500
O -4.494100 -15.247300 -24.544300
