28
Fragment
H -5.275700 -14.551800 -18.685200
H -4.736400 -14.082300 -21.047600
C -4.627700 -15.016200 -19.200900
C -4.338300 -14.747400 -20.499700
N -3.858400 -16.047600 -18.736800
H -3.479900 -17.947800 -17.512700
N -3.355800 -15.630400 -20.858400
C -3.106600 -16.398500 -19.769700
H -2.929300 -15.677500 -21.656500
H -2.847700 -19.401300 -17.275000
C -2.632400 -18.458200 -17.485000
C -2.146200 -17.480800 -19.790800
H -2.044300 -15.912600 -16.802500
N -1.971000 -18.383900 -18.791700
C -1.736300 -17.893000 -16.411200
C -1.566100 -16.524400 -16.255400
N -1.332800 -17.741900 -20.802400
H -1.126600 -19.680200 -15.652200
C -1.031200 -18.738500 -15.576300
C -0.979200 -19.251600 -19.193000
C -0.692600 -16.070900 -15.293400
H -0.630300 -19.987100 -18.702800
C -0.603100 -18.842900 -20.427000
H -0.576100 -15.133200 -15.197300
C -0.185000 -18.193100 -14.629900
N 0.000700 -16.879700 -14.487100
H 0.068200 -19.257100 -20.956600
H 0.287500 -18.782100 -14.052700
28
Fragment
H 1.048800 -19.202100 -29.967600
H 1.268100 -18.727100 -23.063700
N 1.335700 -21.104500 -29.533200
C 1.521300 -19.791100 -29.390400
H 1.912500 -22.851000 -28.823000
C 1.939400 -19.141300 -23.593300
H 1.966600 -17.997100 -25.317500
C 2.029000 -21.913300 -28.726900
C 2.315500 -18.732600 -24.827300
C 2.367600 -19.245700 -28.444000
H 2.463000 -18.304000 -28.368100
N 2.669100 -20.242300 -23.217900
C 2.902500 -21.459800 -27.764900
C 3.072700 -20.091200 -27.609100
N 3.307300 -19.600300 -25.228600
H 3.380700 -22.071600 -27.217800
C 3.482600 -20.503400 -24.229500
C 3.968700 -19.526000 -26.535300
H 4.184100 -18.582900 -26.745300
H 4.265700 -22.306700 -22.363800
C 4.442900 -21.585700 -24.250600
N 4.692200 -22.353800 -23.161900
H 4.816300 -20.036400 -26.507600
N 5.194800 -21.936600 -25.283500
C 5.674700 -23.236800 -23.520600
C 5.964100 -22.968000 -24.819400
H 6.072800 -23.901900 -22.972700
H 6.612100 -23.432400 -25.335200
56
Fragment
H -5.275700 -14.551800 -18.685200
H -4.736400 -14.082300 -21.047600
C -4.627700 -15.016200 -19.200900
C -4.338300 -14.747400 -20.499700
N -3.858400 -16.047600 -18.736800
H -3.479900 -17.947800 -17.512700
N -3.355800 -15.630400 -20.858400
C -3.106600 -16.398500 -19.769700
H -2.929300 -15.677500 -21.656500
H -2.847700 -19.401300 -17.275000
C -2.632400 -18.458200 -17.485000
C -2.146200 -17.480800 -19.790800
H -2.044300 -15.912600 -16.802500
N -1.971000 -18.383900 -18.791700
C -1.736300 -17.893000 -16.411200
C -1.566100 -16.524400 -16.255400
N -1.332800 -17.741900 -20.802400
H -1.126600 -19.680200 -15.652200
C -1.031200 -18.738500 -15.576300
C -0.979200 -19.251600 -19.193000
C -0.692600 -16.070900 -15.293400
H -0.630300 -19.987100 -18.702800
C -0.603100 -18.842900 -20.427000
H -0.576100 -15.133200 -15.197300
C -0.185000 -18.193100 -14.629900
N 0.000700 -16.879700 -14.487100
H 0.068200 -19.257100 -20.956600
H 0.287500 -18.782100 -14.052700
H 1.048800 -19.202100 -29.967600
H 1.268100 -18.727100 -23.063700
N 1.335700 -21.104500 -29.533200
C 1.521300 -19.791100 -29.390400
H 1.912500 -22.851000 -28.823000
C 1.939400 -19.141300 -23.593300
H 1.966600 -17.997100 -25.317500
C 2.029000 -21.913300 -28.726900
C 2.315500 -18.732600 -24.827300
C 2.367600 -19.245700 -28.444000
H 2.463000 -18.304000 -28.368100
N 2.669100 -20.242300 -23.217900
C 2.902500 -21.459800 -27.764900
C 3.072700 -20.091200 -27.609100
N 3.307300 -19.600300 -25.228600
H 3.380700 -22.071600 -27.217800
C 3.482600 -20.503400 -24.229500
C 3.968700 -19.526000 -26.535300
H 4.184100 -18.582900 -26.745300
H 4.265700 -22.306700 -22.363800
C 4.442900 -21.585700 -24.250600
N 4.692200 -22.353800 -23.161900
H 4.816300 -20.036400 -26.507600
N 5.194800 -21.936600 -25.283500
C 5.674700 -23.236800 -23.520600
C 5.964100 -22.968000 -24.819400
H 6.072800 -23.901900 -22.972700
H 6.612100 -23.432400 -25.335200
