28
Fragment
H -25.628200 -6.842000 -31.801100
C -24.922700 -6.479500 -31.315900
N -24.784100 -6.850200 -30.050000
H -24.219200 -5.384800 -32.855800
C -24.088400 -5.592200 -31.959300
C -23.783000 -6.293700 -29.370500
H -23.666300 -6.532300 -28.478600
C -23.048900 -5.013100 -31.243400
C -22.913600 -5.382800 -29.923600
H -22.416700 -3.800300 -32.770100
H -22.233300 -5.016500 -29.405900
C -22.085500 -4.048100 -31.891800
H -22.022400 -3.242400 -31.355000
H -21.013000 -5.972000 -33.598600
N -20.752900 -4.655400 -32.022600
N -20.463400 -2.828500 -29.584100
C -20.440700 -5.617600 -32.956100
H -20.250200 -1.468700 -28.061100
C -19.827400 -2.067000 -28.634600
C -19.624600 -4.446100 -31.281200
C -19.494900 -3.512200 -30.175000
C -19.147400 -5.949400 -32.761400
H -18.673200 -6.575500 -33.258000
N -18.637300 -5.215800 -31.710100
C -18.493800 -2.313300 -28.653900
N -18.290300 -3.228000 -29.626700
H -17.847300 -1.929200 -28.105000
H -17.488900 -3.586600 -29.867400
20
Fragment
H -17.021800 -5.569600 -31.284700
O -16.197000 -6.077600 -31.240100
O -15.712000 -4.449000 -29.809600
C -15.398100 -5.457800 -30.398900
H -14.218700 -7.009600 -29.849800
C -14.074100 -6.142900 -30.261100
H -13.715500 -6.297500 -31.148500
H -13.396800 -5.202800 -28.568700
C -13.035700 -5.395300 -29.448300
H -12.838000 -4.549800 -29.880500
H -11.947100 -7.005700 -28.808200
C -11.752200 -6.192400 -29.299800
H -11.442700 -6.449700 -30.181600
H -11.004600 -4.994400 -27.823800
C -10.634100 -5.457300 -28.591800
O -10.103500 -4.275200 -30.620400
H -9.996300 -6.108800 -28.261000
C -9.904700 -4.463400 -29.442600
O -8.984400 -3.807000 -28.751100
H -8.457400 -3.183300 -29.324600
48
Fragment
H -25.628200 -6.842000 -31.801100
C -24.922700 -6.479500 -31.315900
N -24.784100 -6.850200 -30.050000
H -24.219200 -5.384800 -32.855800
C -24.088400 -5.592200 -31.959300
C -23.783000 -6.293700 -29.370500
H -23.666300 -6.532300 -28.478600
C -23.048900 -5.013100 -31.243400
C -22.913600 -5.382800 -29.923600
H -22.416700 -3.800300 -32.770100
H -22.233300 -5.016500 -29.405900
C -22.085500 -4.048100 -31.891800
H -22.022400 -3.242400 -31.355000
H -21.013000 -5.972000 -33.598600
N -20.752900 -4.655400 -32.022600
N -20.463400 -2.828500 -29.584100
C -20.440700 -5.617600 -32.956100
H -20.250200 -1.468700 -28.061100
C -19.827400 -2.067000 -28.634600
C -19.624600 -4.446100 -31.281200
C -19.494900 -3.512200 -30.175000
C -19.147400 -5.949400 -32.761400
H -18.673200 -6.575500 -33.258000
N -18.637300 -5.215800 -31.710100
C -18.493800 -2.313300 -28.653900
N -18.290300 -3.228000 -29.626700
H -17.847300 -1.929200 -28.105000
H -17.488900 -3.586600 -29.867400
H -17.021800 -5.569600 -31.284700
O -16.197000 -6.077600 -31.240100
O -15.712000 -4.449000 -29.809600
C -15.398100 -5.457800 -30.398900
H -14.218700 -7.009600 -29.849800
C -14.074100 -6.142900 -30.261100
H -13.715500 -6.297500 -31.148500
H -13.396800 -5.202800 -28.568700
C -13.035700 -5.395300 -29.448300
H -12.838000 -4.549800 -29.880500
H -11.947100 -7.005700 -28.808200
C -11.752200 -6.192400 -29.299800
H -11.442700 -6.449700 -30.181600
H -11.004600 -4.994400 -27.823800
C -10.634100 -5.457300 -28.591800
O -10.103500 -4.275200 -30.620400
H -9.996300 -6.108800 -28.261000
C -9.904700 -4.463400 -29.442600
O -8.984400 -3.807000 -28.751100
H -8.457400 -3.183300 -29.324600
