28
Fragment
H -25.628200 -6.842000 -31.801100
C -24.922700 -6.479500 -31.315900
N -24.784100 -6.850200 -30.050000
H -24.219200 -5.384800 -32.855800
C -24.088400 -5.592200 -31.959300
C -23.783000 -6.293700 -29.370500
H -23.666300 -6.532300 -28.478600
C -23.048900 -5.013100 -31.243400
C -22.913600 -5.382800 -29.923600
H -22.416700 -3.800300 -32.770100
H -22.233300 -5.016500 -29.405900
C -22.085500 -4.048100 -31.891800
H -22.022400 -3.242400 -31.355000
H -21.013000 -5.972000 -33.598600
N -20.752900 -4.655400 -32.022600
N -20.463400 -2.828500 -29.584100
C -20.440700 -5.617600 -32.956100
H -20.250200 -1.468700 -28.061100
C -19.827400 -2.067000 -28.634600
C -19.624600 -4.446100 -31.281200
C -19.494900 -3.512200 -30.175000
C -19.147400 -5.949400 -32.761400
H -18.673200 -6.575500 -33.258000
N -18.637300 -5.215800 -31.710100
C -18.493800 -2.313300 -28.653900
N -18.290300 -3.228000 -29.626700
H -17.847300 -1.929200 -28.105000
H -17.488900 -3.586600 -29.867400
28
Fragment
H -25.628200 -11.643400 -31.801100
C -24.922700 -11.280900 -31.315900
N -24.784100 -11.651600 -30.050000
H -24.219200 -10.186200 -32.855800
C -24.088400 -10.393600 -31.959300
C -23.783000 -11.095100 -29.370500
H -23.666300 -11.333700 -28.478600
C -23.048900 -9.814500 -31.243400
C -22.913600 -10.184200 -29.923600
H -22.416700 -8.601700 -32.770100
H -22.233300 -9.817900 -29.405900
C -22.085500 -8.849500 -31.891800
H -22.022400 -8.043800 -31.355000
H -21.013000 -10.773400 -33.598600
N -20.752900 -9.456800 -32.022600
N -20.463400 -7.629900 -29.584100
C -20.440700 -10.419000 -32.956100
H -20.250200 -6.270100 -28.061100
C -19.827400 -6.868400 -28.634600
C -19.624600 -9.247500 -31.281200
C -19.494900 -8.313600 -30.175000
C -19.147400 -10.750800 -32.761400
H -18.673200 -11.376900 -33.258000
N -18.637300 -10.017200 -31.710100
C -18.493800 -7.114700 -28.653900
N -18.290300 -8.029400 -29.626700
H -17.847300 -6.730600 -28.105000
H -17.488900 -8.388000 -29.867400
56
Fragment
H -25.628200 -6.842000 -31.801100
C -24.922700 -6.479500 -31.315900
N -24.784100 -6.850200 -30.050000
H -24.219200 -5.384800 -32.855800
C -24.088400 -5.592200 -31.959300
C -23.783000 -6.293700 -29.370500
H -23.666300 -6.532300 -28.478600
C -23.048900 -5.013100 -31.243400
C -22.913600 -5.382800 -29.923600
H -22.416700 -3.800300 -32.770100
H -22.233300 -5.016500 -29.405900
C -22.085500 -4.048100 -31.891800
H -22.022400 -3.242400 -31.355000
H -21.013000 -5.972000 -33.598600
N -20.752900 -4.655400 -32.022600
N -20.463400 -2.828500 -29.584100
C -20.440700 -5.617600 -32.956100
H -20.250200 -1.468700 -28.061100
C -19.827400 -2.067000 -28.634600
C -19.624600 -4.446100 -31.281200
C -19.494900 -3.512200 -30.175000
C -19.147400 -5.949400 -32.761400
H -18.673200 -6.575500 -33.258000
N -18.637300 -5.215800 -31.710100
C -18.493800 -2.313300 -28.653900
N -18.290300 -3.228000 -29.626700
H -17.847300 -1.929200 -28.105000
H -17.488900 -3.586600 -29.867400
H -25.628200 -11.643400 -31.801100
C -24.922700 -11.280900 -31.315900
N -24.784100 -11.651600 -30.050000
H -24.219200 -10.186200 -32.855800
C -24.088400 -10.393600 -31.959300
C -23.783000 -11.095100 -29.370500
H -23.666300 -11.333700 -28.478600
C -23.048900 -9.814500 -31.243400
C -22.913600 -10.184200 -29.923600
H -22.416700 -8.601700 -32.770100
H -22.233300 -9.817900 -29.405900
C -22.085500 -8.849500 -31.891800
H -22.022400 -8.043800 -31.355000
H -21.013000 -10.773400 -33.598600
N -20.752900 -9.456800 -32.022600
N -20.463400 -7.629900 -29.584100
C -20.440700 -10.419000 -32.956100
H -20.250200 -6.270100 -28.061100
C -19.827400 -6.868400 -28.634600
C -19.624600 -9.247500 -31.281200
C -19.494900 -8.313600 -30.175000
C -19.147400 -10.750800 -32.761400
H -18.673200 -11.376900 -33.258000
N -18.637300 -10.017200 -31.710100
C -18.493800 -7.114700 -28.653900
N -18.290300 -8.029400 -29.626700
H -17.847300 -6.730600 -28.105000
H -17.488900 -8.388000 -29.867400
