28
Fragment
H -5.275700 -14.551800 -18.685200
H -4.736400 -14.082300 -21.047600
C -4.627700 -15.016200 -19.200900
C -4.338300 -14.747400 -20.499700
N -3.858400 -16.047600 -18.736800
H -3.479900 -17.947800 -17.512700
N -3.355800 -15.630400 -20.858400
C -3.106600 -16.398500 -19.769700
H -2.929300 -15.677500 -21.656500
H -2.847700 -19.401300 -17.275000
C -2.632400 -18.458200 -17.485000
C -2.146200 -17.480800 -19.790800
H -2.044300 -15.912600 -16.802500
N -1.971000 -18.383900 -18.791700
C -1.736300 -17.893000 -16.411200
C -1.566100 -16.524400 -16.255400
N -1.332800 -17.741900 -20.802400
H -1.126600 -19.680200 -15.652200
C -1.031200 -18.738500 -15.576300
C -0.979200 -19.251600 -19.193000
C -0.692600 -16.070900 -15.293400
H -0.630300 -19.987100 -18.702800
C -0.603100 -18.842900 -20.427000
H -0.576100 -15.133200 -15.197300
C -0.185000 -18.193100 -14.629900
N 0.000700 -16.879700 -14.487100
H 0.068200 -19.257100 -20.956600
H 0.287500 -18.782100 -14.052700
28
Fragment
H -8.602200 -8.181100 -29.967600
H -8.382900 -7.706100 -23.063700
N -8.315400 -10.083600 -29.533200
C -8.129700 -8.770200 -29.390400
H -7.738600 -11.830100 -28.823000
C -7.711600 -8.120300 -23.593300
H -7.684400 -6.976200 -25.317500
C -7.622000 -10.892400 -28.726900
C -7.335500 -7.711600 -24.827300
C -7.283400 -8.224700 -28.444000
H -7.188000 -7.283000 -28.368100
N -6.981900 -9.221300 -23.217900
C -6.748500 -10.438800 -27.764900
C -6.578300 -9.070200 -27.609100
N -6.343700 -8.579300 -25.228600
H -6.270300 -11.050700 -27.217800
C -6.168400 -9.482400 -24.229500
C -5.682300 -8.505100 -26.535300
H -5.466900 -7.561900 -26.745300
H -5.385400 -11.285700 -22.363800
C -5.208100 -10.564700 -24.250600
N -4.958800 -11.332900 -23.161900
H -4.834700 -9.015400 -26.507600
N -4.456300 -10.915700 -25.283500
C -3.976300 -12.215900 -23.520600
C -3.686900 -11.947100 -24.819400
H -3.578300 -12.881000 -22.972700
H -3.038900 -12.411400 -25.335200
56
Fragment
H -5.275700 -14.551800 -18.685200
H -4.736400 -14.082300 -21.047600
C -4.627700 -15.016200 -19.200900
C -4.338300 -14.747400 -20.499700
N -3.858400 -16.047600 -18.736800
H -3.479900 -17.947800 -17.512700
N -3.355800 -15.630400 -20.858400
C -3.106600 -16.398500 -19.769700
H -2.929300 -15.677500 -21.656500
H -2.847700 -19.401300 -17.275000
C -2.632400 -18.458200 -17.485000
C -2.146200 -17.480800 -19.790800
H -2.044300 -15.912600 -16.802500
N -1.971000 -18.383900 -18.791700
C -1.736300 -17.893000 -16.411200
C -1.566100 -16.524400 -16.255400
N -1.332800 -17.741900 -20.802400
H -1.126600 -19.680200 -15.652200
C -1.031200 -18.738500 -15.576300
C -0.979200 -19.251600 -19.193000
C -0.692600 -16.070900 -15.293400
H -0.630300 -19.987100 -18.702800
C -0.603100 -18.842900 -20.427000
H -0.576100 -15.133200 -15.197300
C -0.185000 -18.193100 -14.629900
N 0.000700 -16.879700 -14.487100
H 0.068200 -19.257100 -20.956600
H 0.287500 -18.782100 -14.052700
H -8.602200 -8.181100 -29.967600
H -8.382900 -7.706100 -23.063700
N -8.315400 -10.083600 -29.533200
C -8.129700 -8.770200 -29.390400
H -7.738600 -11.830100 -28.823000
C -7.711600 -8.120300 -23.593300
H -7.684400 -6.976200 -25.317500
C -7.622000 -10.892400 -28.726900
C -7.335500 -7.711600 -24.827300
C -7.283400 -8.224700 -28.444000
H -7.188000 -7.283000 -28.368100
N -6.981900 -9.221300 -23.217900
C -6.748500 -10.438800 -27.764900
C -6.578300 -9.070200 -27.609100
N -6.343700 -8.579300 -25.228600
H -6.270300 -11.050700 -27.217800
C -6.168400 -9.482400 -24.229500
C -5.682300 -8.505100 -26.535300
H -5.466900 -7.561900 -26.745300
H -5.385400 -11.285700 -22.363800
C -5.208100 -10.564700 -24.250600
N -4.958800 -11.332900 -23.161900
H -4.834700 -9.015400 -26.507600
N -4.456300 -10.915700 -25.283500
C -3.976300 -12.215900 -23.520600
C -3.686900 -11.947100 -24.819400
H -3.578300 -12.881000 -22.972700
H -3.038900 -12.411400 -25.335200
