28
Fragment
H -7.247800 -13.542600 -17.891200
C -6.515600 -13.119500 -17.459000
H -6.509700 -13.983700 -15.573600
C -6.116600 -13.370600 -16.184500
N -5.713200 -12.170900 -18.031600
H -5.552500 -11.550300 -21.369800
H -5.177800 -10.206100 -19.467400
N -5.038400 -12.564300 -15.956800
C -4.830100 -11.859900 -17.095100
C -4.691800 -11.947100 -21.300100
H -4.576700 -12.524200 -15.177700
N -4.425900 -13.006700 -22.066300
C -4.197900 -10.185600 -19.606200
H -3.980500 -9.366700 -20.118300
C -3.789400 -11.389600 -20.408400
C -3.763700 -10.891800 -17.206500
N -3.535200 -10.126800 -18.310500
C -3.223300 -13.575000 -21.950500
H -3.018700 -14.328900 -22.490800
N -2.895900 -10.610100 -16.242800
C -2.550100 -11.994900 -20.297800
C -2.458300 -9.322200 -18.027500
C -2.265700 -13.105300 -21.071200
C -2.084100 -9.632000 -16.759000
H -2.057200 -8.680300 -18.601500
H -1.900500 -11.650600 -19.695700
H -1.423400 -13.539900 -20.999100
H -1.360800 -9.227400 -16.294300
32
Fragment
O -11.962500 -15.722300 -19.939100
H -10.936300 -17.127100 -21.409800
H -10.828200 -16.101900 -17.283300
C -10.774800 -15.952800 -19.962900
O -10.227400 -16.774300 -20.834800
H -9.987300 -14.459400 -18.773500
C -9.918600 -16.223700 -17.654600
H -9.885300 -16.528700 -14.934500
H -9.802000 -17.184600 -17.860100
C -9.794800 -15.413800 -18.953000
H -9.034600 -14.860400 -16.369900
C -8.993300 -16.662600 -15.343200
H -8.934200 -17.097300 -12.667400
H -8.916100 -17.617900 -15.592900
C -8.894200 -15.811900 -16.606700
H -8.873100 -15.484100 -19.307300
H -8.046300 -17.513600 -10.348300
C -8.025100 -17.185800 -13.048900
H -8.003300 -15.379800 -14.062700
H -7.985200 -15.900500 -16.988200
C -7.926000 -16.335200 -14.312400
H -7.884800 -18.137300 -13.285700
C -7.124500 -17.583900 -10.702500
H -7.117400 -15.813100 -11.795500
H -7.034100 -16.469000 -14.721000
C -7.000800 -16.774100 -12.001000
H -6.932100 -18.538300 -10.882100
O -6.692000 -16.223500 -8.820800
C -6.144500 -17.045000 -9.692600
H -6.091100 -16.895900 -12.372300
H -5.983100 -15.870700 -8.245700
O -4.956800 -17.275500 -9.716500
60
Fragment
H -7.247800 -13.542600 -17.891200
C -6.515600 -13.119500 -17.459000
H -6.509700 -13.983700 -15.573600
C -6.116600 -13.370600 -16.184500
N -5.713200 -12.170900 -18.031600
H -5.552500 -11.550300 -21.369800
H -5.177800 -10.206100 -19.467400
N -5.038400 -12.564300 -15.956800
C -4.830100 -11.859900 -17.095100
C -4.691800 -11.947100 -21.300100
H -4.576700 -12.524200 -15.177700
N -4.425900 -13.006700 -22.066300
C -4.197900 -10.185600 -19.606200
H -3.980500 -9.366700 -20.118300
C -3.789400 -11.389600 -20.408400
C -3.763700 -10.891800 -17.206500
N -3.535200 -10.126800 -18.310500
C -3.223300 -13.575000 -21.950500
H -3.018700 -14.328900 -22.490800
N -2.895900 -10.610100 -16.242800
C -2.550100 -11.994900 -20.297800
C -2.458300 -9.322200 -18.027500
C -2.265700 -13.105300 -21.071200
C -2.084100 -9.632000 -16.759000
H -2.057200 -8.680300 -18.601500
H -1.900500 -11.650600 -19.695700
H -1.423400 -13.539900 -20.999100
H -1.360800 -9.227400 -16.294300
O -11.962500 -15.722300 -19.939100
H -10.936300 -17.127100 -21.409800
H -10.828200 -16.101900 -17.283300
C -10.774800 -15.952800 -19.962900
O -10.227400 -16.774300 -20.834800
H -9.987300 -14.459400 -18.773500
C -9.918600 -16.223700 -17.654600
H -9.885300 -16.528700 -14.934500
H -9.802000 -17.184600 -17.860100
C -9.794800 -15.413800 -18.953000
H -9.034600 -14.860400 -16.369900
C -8.993300 -16.662600 -15.343200
H -8.934200 -17.097300 -12.667400
H -8.916100 -17.617900 -15.592900
C -8.894200 -15.811900 -16.606700
H -8.873100 -15.484100 -19.307300
H -8.046300 -17.513600 -10.348300
C -8.025100 -17.185800 -13.048900
H -8.003300 -15.379800 -14.062700
H -7.985200 -15.900500 -16.988200
C -7.926000 -16.335200 -14.312400
H -7.884800 -18.137300 -13.285700
C -7.124500 -17.583900 -10.702500
H -7.117400 -15.813100 -11.795500
H -7.034100 -16.469000 -14.721000
C -7.000800 -16.774100 -12.001000
H -6.932100 -18.538300 -10.882100
O -6.692000 -16.223500 -8.820800
C -6.144500 -17.045000 -9.692600
H -6.091100 -16.895900 -12.372300
H -5.983100 -15.870700 -8.245700
O -4.956800 -17.275500 -9.716500
