28
Fragment
H -7.316000 -8.971900 -23.675200
N -6.649200 -10.435300 -24.952100
C -6.633600 -9.569000 -23.882100
H -6.629000 -12.110000 -27.107600
N -5.893200 -12.501600 -26.849400
H -5.541100 -13.990100 -28.245500
C -5.498700 -11.090800 -24.884100
C -5.485900 -9.705100 -23.171400
C -5.246500 -13.527400 -27.494700
H -5.241900 -9.236500 -22.406700
H -5.210800 -12.689000 -22.212100
C -5.095600 -12.133500 -25.812400
H -4.839900 -14.303100 -20.607800
N -4.755300 -10.679900 -23.815500
C -4.350100 -12.842300 -21.895400
C -4.117500 -13.814300 -20.929900
C -4.086900 -13.728800 -26.812600
N -3.990100 -12.860800 -25.753000
H -3.448000 -14.366500 -27.033000
C -3.394100 -11.043400 -23.445700
C -3.282200 -12.104200 -22.379700
H -2.936000 -10.246900 -23.135500
H -2.932700 -11.354900 -24.240100
N -2.899100 -14.076000 -20.444600
C -2.015800 -12.375800 -21.867400
C -1.870400 -13.360800 -20.916800
H -1.275900 -11.896400 -22.164200
H -1.019000 -13.537900 -20.587900
15
Fragment
H -11.527800 -5.314100 -24.000300
H -11.016500 -6.861500 -22.354700
C -10.639000 -5.503200 -23.801600
C -10.333400 -6.428000 -22.814000
H -9.829600 -4.238400 -25.156900
C -9.621900 -4.857800 -24.494900
O -9.527100 -8.478500 -21.002800
C -9.002700 -6.708800 -22.509400
C -8.676300 -7.744800 -21.479700
C -8.298200 -5.138000 -24.200600
C -7.985400 -6.054900 -23.203900
H -7.617900 -4.712500 -24.670500
O -7.396700 -7.806600 -21.184100
H -7.174500 -8.517600 -20.595900
H -7.095500 -6.233000 -22.999600
43
Fragment
H -7.316000 -8.971900 -23.675200
N -6.649200 -10.435300 -24.952100
C -6.633600 -9.569000 -23.882100
H -6.629000 -12.110000 -27.107600
N -5.893200 -12.501600 -26.849400
H -5.541100 -13.990100 -28.245500
C -5.498700 -11.090800 -24.884100
C -5.485900 -9.705100 -23.171400
C -5.246500 -13.527400 -27.494700
H -5.241900 -9.236500 -22.406700
H -5.210800 -12.689000 -22.212100
C -5.095600 -12.133500 -25.812400
H -4.839900 -14.303100 -20.607800
N -4.755300 -10.679900 -23.815500
C -4.350100 -12.842300 -21.895400
C -4.117500 -13.814300 -20.929900
C -4.086900 -13.728800 -26.812600
N -3.990100 -12.860800 -25.753000
H -3.448000 -14.366500 -27.033000
C -3.394100 -11.043400 -23.445700
C -3.282200 -12.104200 -22.379700
H -2.936000 -10.246900 -23.135500
H -2.932700 -11.354900 -24.240100
N -2.899100 -14.076000 -20.444600
C -2.015800 -12.375800 -21.867400
C -1.870400 -13.360800 -20.916800
H -1.275900 -11.896400 -22.164200
H -1.019000 -13.537900 -20.587900
H -11.527800 -5.314100 -24.000300
H -11.016500 -6.861500 -22.354700
C -10.639000 -5.503200 -23.801600
C -10.333400 -6.428000 -22.814000
H -9.829600 -4.238400 -25.156900
C -9.621900 -4.857800 -24.494900
O -9.527100 -8.478500 -21.002800
C -9.002700 -6.708800 -22.509400
C -8.676300 -7.744800 -21.479700
C -8.298200 -5.138000 -24.200600
C -7.985400 -6.054900 -23.203900
H -7.617900 -4.712500 -24.670500
O -7.396700 -7.806600 -21.184100
H -7.174500 -8.517600 -20.595900
H -7.095500 -6.233000 -22.999600
