28
Fragment
H -7.316000 -8.971900 -23.675200
N -6.649200 -10.435300 -24.952100
C -6.633600 -9.569000 -23.882100
H -6.629000 -12.110000 -27.107600
N -5.893200 -12.501600 -26.849400
H -5.541100 -13.990100 -28.245500
C -5.498700 -11.090800 -24.884100
C -5.485900 -9.705100 -23.171400
C -5.246500 -13.527400 -27.494700
H -5.241900 -9.236500 -22.406700
H -5.210800 -12.689000 -22.212100
C -5.095600 -12.133500 -25.812400
H -4.839900 -14.303100 -20.607800
N -4.755300 -10.679900 -23.815500
C -4.350100 -12.842300 -21.895400
C -4.117500 -13.814300 -20.929900
C -4.086900 -13.728800 -26.812600
N -3.990100 -12.860800 -25.753000
H -3.448000 -14.366500 -27.033000
C -3.394100 -11.043400 -23.445700
C -3.282200 -12.104200 -22.379700
H -2.936000 -10.246900 -23.135500
H -2.932700 -11.354900 -24.240100
N -2.899100 -14.076000 -20.444600
C -2.015800 -12.375800 -21.867400
C -1.870400 -13.360800 -20.916800
H -1.275900 -11.896400 -22.164200
H -1.019000 -13.537900 -20.587900
28
Fragment
H -7.402800 -8.435100 -32.710600
H -7.145900 -10.076700 -31.134300
C -6.551400 -8.612200 -32.381600
C -6.406000 -9.597300 -31.431000
N -5.522600 -7.897000 -32.853800
H -5.489100 -10.618100 -29.058300
H -5.485700 -11.726200 -30.162900
C -5.139600 -9.868800 -30.918700
C -5.027700 -10.929600 -29.852700
H -4.973800 -7.606600 -26.265500
N -4.431700 -9.112300 -27.545400
C -4.334900 -8.244300 -26.485900
C -4.304300 -8.158800 -32.368500
C -4.071700 -9.130800 -31.403000
N -3.666400 -11.293200 -29.483000
H -3.581900 -7.670000 -32.690600
C -3.326200 -9.839600 -27.486000
H -3.210900 -9.284000 -31.086300
H -3.179900 -12.736600 -30.891800
C -3.175300 -8.445600 -25.803800
C -2.935800 -12.267900 -30.127100
C -2.923100 -10.882300 -28.414300
H -2.880700 -7.982900 -25.052900
N -2.528600 -9.471500 -26.449100
H -1.792800 -9.863100 -26.190900
C -1.788200 -12.404000 -29.416300
N -1.772500 -11.537700 -28.346400
H -1.105700 -13.001200 -29.623300
56
Fragment
H -7.316000 -8.971900 -23.675200
N -6.649200 -10.435300 -24.952100
C -6.633600 -9.569000 -23.882100
H -6.629000 -12.110000 -27.107600
N -5.893200 -12.501600 -26.849400
H -5.541100 -13.990100 -28.245500
C -5.498700 -11.090800 -24.884100
C -5.485900 -9.705100 -23.171400
C -5.246500 -13.527400 -27.494700
H -5.241900 -9.236500 -22.406700
H -5.210800 -12.689000 -22.212100
C -5.095600 -12.133500 -25.812400
H -4.839900 -14.303100 -20.607800
N -4.755300 -10.679900 -23.815500
C -4.350100 -12.842300 -21.895400
C -4.117500 -13.814300 -20.929900
C -4.086900 -13.728800 -26.812600
N -3.990100 -12.860800 -25.753000
H -3.448000 -14.366500 -27.033000
C -3.394100 -11.043400 -23.445700
C -3.282200 -12.104200 -22.379700
H -2.936000 -10.246900 -23.135500
H -2.932700 -11.354900 -24.240100
N -2.899100 -14.076000 -20.444600
C -2.015800 -12.375800 -21.867400
C -1.870400 -13.360800 -20.916800
H -1.275900 -11.896400 -22.164200
H -1.019000 -13.537900 -20.587900
H -7.402800 -8.435100 -32.710600
H -7.145900 -10.076700 -31.134300
C -6.551400 -8.612200 -32.381600
C -6.406000 -9.597300 -31.431000
N -5.522600 -7.897000 -32.853800
H -5.489100 -10.618100 -29.058300
H -5.485700 -11.726200 -30.162900
C -5.139600 -9.868800 -30.918700
C -5.027700 -10.929600 -29.852700
H -4.973800 -7.606600 -26.265500
N -4.431700 -9.112300 -27.545400
C -4.334900 -8.244300 -26.485900
C -4.304300 -8.158800 -32.368500
C -4.071700 -9.130800 -31.403000
N -3.666400 -11.293200 -29.483000
H -3.581900 -7.670000 -32.690600
C -3.326200 -9.839600 -27.486000
H -3.210900 -9.284000 -31.086300
H -3.179900 -12.736600 -30.891800
C -3.175300 -8.445600 -25.803800
C -2.935800 -12.267900 -30.127100
C -2.923100 -10.882300 -28.414300
H -2.880700 -7.982900 -25.052900
N -2.528600 -9.471500 -26.449100
H -1.792800 -9.863100 -26.190900
C -1.788200 -12.404000 -29.416300
N -1.772500 -11.537700 -28.346400
H -1.105700 -13.001200 -29.623300
