13
Fragment
O -8.894000 -14.974600 -31.424900
O -8.519200 -17.060700 -31.925500
N -8.263100 -15.992300 -31.427100
N -7.011700 -15.933200 -30.744500
H -6.863900 -13.960100 -30.116900
C -6.498200 -14.814700 -30.160900
H -6.272500 -17.830600 -30.898600
C -6.137700 -16.967600 -30.579000
C -5.329100 -15.257400 -29.664800
N -5.095700 -16.581000 -29.916600
O -4.659300 -13.259200 -28.835900
N -4.385100 -14.447300 -28.956800
O -3.373600 -14.970400 -28.509000
13
Fragment
O -12.135900 -22.088600 -31.105900
O -11.761100 -20.002500 -30.605300
N -11.505000 -21.071000 -31.103700
N -10.253600 -21.130100 -31.786300
H -10.105800 -23.103100 -32.413900
C -9.740100 -22.248500 -32.369900
H -9.514500 -19.232600 -31.632200
C -9.379600 -20.095700 -31.951800
C -8.571100 -21.805900 -32.866000
N -8.337600 -20.482200 -32.614200
O -7.901300 -23.804000 -33.694900
N -7.627000 -22.616000 -33.574000
O -6.615500 -22.092900 -34.021800
26
Fragment
O -8.894000 -14.974600 -31.424900
O -8.519200 -17.060700 -31.925500
N -8.263100 -15.992300 -31.427100
N -7.011700 -15.933200 -30.744500
H -6.863900 -13.960100 -30.116900
C -6.498200 -14.814700 -30.160900
H -6.272500 -17.830600 -30.898600
C -6.137700 -16.967600 -30.579000
C -5.329100 -15.257400 -29.664800
N -5.095700 -16.581000 -29.916600
O -4.659300 -13.259200 -28.835900
N -4.385100 -14.447300 -28.956800
O -3.373600 -14.970400 -28.509000
O -12.135900 -22.088600 -31.105900
O -11.761100 -20.002500 -30.605300
N -11.505000 -21.071000 -31.103700
N -10.253600 -21.130100 -31.786300
H -10.105800 -23.103100 -32.413900
C -9.740100 -22.248500 -32.369900
H -9.514500 -19.232600 -31.632200
C -9.379600 -20.095700 -31.951800
C -8.571100 -21.805900 -32.866000
N -8.337600 -20.482200 -32.614200
O -7.901300 -23.804000 -33.694900
N -7.627000 -22.616000 -33.574000
O -6.615500 -22.092900 -34.021800
