15
Fragment
O -16.740400 -17.793600 -32.860500
N -15.756600 -18.298800 -32.311300
O -15.552400 -19.497000 -32.237200
N -14.895500 -16.086900 -31.824500
C -14.770700 -17.408900 -31.772200
O -13.840500 -13.513500 -31.746100
C -13.809900 -15.722100 -31.186900
N -13.695200 -17.899700 -31.176900
N -13.440800 -14.349200 -30.942400
N -13.064900 -16.772200 -30.791500
O -12.764300 -14.118200 -29.966300
H -11.884300 -16.548900 -29.184600
C -11.773700 -16.848500 -30.088600
H -11.462200 -17.757100 -30.088600
H -11.133200 -16.290300 -30.535500
15
Fragment
O -9.955200 -17.793600 -32.860500
N -8.971400 -18.298800 -32.311300
O -8.767200 -19.497000 -32.237200
N -8.110300 -16.086900 -31.824500
C -7.985500 -17.408900 -31.772200
O -7.055300 -13.513500 -31.746100
C -7.024700 -15.722100 -31.186900
N -6.910000 -17.899700 -31.176900
N -6.655600 -14.349200 -30.942400
N -6.279700 -16.772200 -30.791500
O -5.979100 -14.118200 -29.966300
H -5.099100 -16.548900 -29.184600
C -4.988500 -16.848500 -30.088600
H -4.677000 -17.757100 -30.088600
H -4.348000 -16.290300 -30.535500
30
Fragment
O -16.740400 -17.793600 -32.860500
N -15.756600 -18.298800 -32.311300
O -15.552400 -19.497000 -32.237200
N -14.895500 -16.086900 -31.824500
C -14.770700 -17.408900 -31.772200
O -13.840500 -13.513500 -31.746100
C -13.809900 -15.722100 -31.186900
N -13.695200 -17.899700 -31.176900
N -13.440800 -14.349200 -30.942400
N -13.064900 -16.772200 -30.791500
O -12.764300 -14.118200 -29.966300
H -11.884300 -16.548900 -29.184600
C -11.773700 -16.848500 -30.088600
H -11.462200 -17.757100 -30.088600
H -11.133200 -16.290300 -30.535500
O -9.955200 -17.793600 -32.860500
N -8.971400 -18.298800 -32.311300
O -8.767200 -19.497000 -32.237200
N -8.110300 -16.086900 -31.824500
C -7.985500 -17.408900 -31.772200
O -7.055300 -13.513500 -31.746100
C -7.024700 -15.722100 -31.186900
N -6.910000 -17.899700 -31.176900
N -6.655600 -14.349200 -30.942400
N -6.279700 -16.772200 -30.791500
O -5.979100 -14.118200 -29.966300
H -5.099100 -16.548900 -29.184600
C -4.988500 -16.848500 -30.088600
H -4.677000 -17.757100 -30.088600
H -4.348000 -16.290300 -30.535500
