13
Fragment
O -8.894000 -14.974600 -31.424900
O -8.519200 -17.060700 -31.925500
N -8.263100 -15.992300 -31.427100
N -7.011700 -15.933200 -30.744500
H -6.863900 -13.960100 -30.116900
C -6.498200 -14.814700 -30.160900
H -6.272500 -17.830600 -30.898600
C -6.137700 -16.967600 -30.579000
C -5.329100 -15.257400 -29.664800
N -5.095700 -16.581000 -29.916600
O -4.659300 -13.259200 -28.835900
N -4.385100 -14.447300 -28.956800
O -3.373600 -14.970400 -28.509000
18
Fragment
O -7.369000 -19.769500 -26.029500
N -6.381500 -19.756400 -26.730900
O -6.218100 -20.490700 -27.686100
H -6.011200 -18.367500 -24.547500
C -5.322600 -18.212700 -25.152400
C -5.301200 -18.814000 -26.392200
O -4.896000 -17.254000 -22.637600
H -4.307900 -19.020900 -28.155500
C -4.298800 -18.604700 -27.323900
C -4.272900 -17.371200 -24.854100
N -4.213200 -16.771000 -23.512000
O -3.443600 -15.842300 -23.349600
C -3.286000 -17.745900 -26.951200
C -3.246500 -17.117000 -25.728900
H -2.551400 -16.541900 -25.504200
O -2.218800 -18.084700 -28.970100
N -2.170800 -17.525600 -27.891000
O -1.254000 -16.798100 -27.524800
31
Fragment
O -8.894000 -14.974600 -31.424900
O -8.519200 -17.060700 -31.925500
N -8.263100 -15.992300 -31.427100
N -7.011700 -15.933200 -30.744500
H -6.863900 -13.960100 -30.116900
C -6.498200 -14.814700 -30.160900
H -6.272500 -17.830600 -30.898600
C -6.137700 -16.967600 -30.579000
C -5.329100 -15.257400 -29.664800
N -5.095700 -16.581000 -29.916600
O -4.659300 -13.259200 -28.835900
N -4.385100 -14.447300 -28.956800
O -3.373600 -14.970400 -28.509000
O -7.369000 -19.769500 -26.029500
N -6.381500 -19.756400 -26.730900
O -6.218100 -20.490700 -27.686100
H -6.011200 -18.367500 -24.547500
C -5.322600 -18.212700 -25.152400
C -5.301200 -18.814000 -26.392200
O -4.896000 -17.254000 -22.637600
H -4.307900 -19.020900 -28.155500
C -4.298800 -18.604700 -27.323900
C -4.272900 -17.371200 -24.854100
N -4.213200 -16.771000 -23.512000
O -3.443600 -15.842300 -23.349600
C -3.286000 -17.745900 -26.951200
C -3.246500 -17.117000 -25.728900
H -2.551400 -16.541900 -25.504200
O -2.218800 -18.084700 -28.970100
N -2.170800 -17.525600 -27.891000
O -1.254000 -16.798100 -27.524800
