13
Fragment
O -8.894000 -14.974600 -31.424900
O -8.519200 -17.060700 -31.925500
N -8.263100 -15.992300 -31.427100
N -7.011700 -15.933200 -30.744500
H -6.863900 -13.960100 -30.116900
C -6.498200 -14.814700 -30.160900
H -6.272500 -17.830600 -30.898600
C -6.137700 -16.967600 -30.579000
C -5.329100 -15.257400 -29.664800
N -5.095700 -16.581000 -29.916600
O -4.659300 -13.259200 -28.835900
N -4.385100 -14.447300 -28.956800
O -3.373600 -14.970400 -28.509000
18
Fragment
O -14.955800 -14.970400 -37.946600
N -14.038900 -14.242900 -38.312800
O -13.991000 -13.683800 -39.391900
H -13.658300 -15.226600 -35.926000
C -12.963300 -14.651500 -36.150700
C -12.923700 -14.022600 -37.373000
O -12.766200 -15.926200 -33.771400
N -11.996500 -14.997500 -33.933800
C -11.936900 -14.397300 -35.275900
C -11.910900 -13.163800 -37.745700
H -11.901800 -12.747600 -38.577300
O -11.313800 -14.514500 -33.059400
C -10.908500 -12.954500 -36.814000
C -10.887100 -13.555800 -35.574200
H -10.198500 -13.401000 -34.969300
O -9.991700 -11.277800 -38.107900
N -9.828300 -12.012100 -37.152700
O -8.840800 -11.999000 -36.451300
31
Fragment
O -8.894000 -14.974600 -31.424900
O -8.519200 -17.060700 -31.925500
N -8.263100 -15.992300 -31.427100
N -7.011700 -15.933200 -30.744500
H -6.863900 -13.960100 -30.116900
C -6.498200 -14.814700 -30.160900
H -6.272500 -17.830600 -30.898600
C -6.137700 -16.967600 -30.579000
C -5.329100 -15.257400 -29.664800
N -5.095700 -16.581000 -29.916600
O -4.659300 -13.259200 -28.835900
N -4.385100 -14.447300 -28.956800
O -3.373600 -14.970400 -28.509000
O -14.955800 -14.970400 -37.946600
N -14.038900 -14.242900 -38.312800
O -13.991000 -13.683800 -39.391900
H -13.658300 -15.226600 -35.926000
C -12.963300 -14.651500 -36.150700
C -12.923700 -14.022600 -37.373000
O -12.766200 -15.926200 -33.771400
N -11.996500 -14.997500 -33.933800
C -11.936900 -14.397300 -35.275900
C -11.910900 -13.163800 -37.745700
H -11.901800 -12.747600 -38.577300
O -11.313800 -14.514500 -33.059400
C -10.908500 -12.954500 -36.814000
C -10.887100 -13.555800 -35.574200
H -10.198500 -13.401000 -34.969300
O -9.991700 -11.277800 -38.107900
N -9.828300 -12.012100 -37.152700
O -8.840800 -11.999000 -36.451300
