15
Fragment
O -16.740400 -17.793600 -32.860500
N -15.756600 -18.298800 -32.311300
O -15.552400 -19.497000 -32.237200
N -14.895500 -16.086900 -31.824500
C -14.770700 -17.408900 -31.772200
O -13.840500 -13.513500 -31.746100
C -13.809900 -15.722100 -31.186900
N -13.695200 -17.899700 -31.176900
N -13.440800 -14.349200 -30.942400
N -13.064900 -16.772200 -30.791500
O -12.764300 -14.118200 -29.966300
H -11.884300 -16.548900 -29.184600
C -11.773700 -16.848500 -30.088600
H -11.462200 -17.757100 -30.088600
H -11.133200 -16.290300 -30.535500
15
Fragment
O -20.133000 -9.841400 -27.268500
N -19.149200 -9.336200 -27.817700
O -18.945000 -8.138000 -27.891800
N -18.288100 -11.548100 -28.304500
C -18.163300 -10.226100 -28.356800
O -17.233100 -14.121500 -28.382900
C -17.202500 -11.912900 -28.942100
N -17.087800 -9.735300 -28.952100
N -16.833400 -13.285800 -29.186600
N -16.457500 -10.862800 -29.337500
O -16.156900 -13.516800 -30.162700
H -15.276900 -11.086100 -30.944400
C -15.166300 -10.786500 -30.040400
H -14.854800 -9.877900 -30.040400
H -14.525800 -11.344700 -29.593500
30
Fragment
O -16.740400 -17.793600 -32.860500
N -15.756600 -18.298800 -32.311300
O -15.552400 -19.497000 -32.237200
N -14.895500 -16.086900 -31.824500
C -14.770700 -17.408900 -31.772200
O -13.840500 -13.513500 -31.746100
C -13.809900 -15.722100 -31.186900
N -13.695200 -17.899700 -31.176900
N -13.440800 -14.349200 -30.942400
N -13.064900 -16.772200 -30.791500
O -12.764300 -14.118200 -29.966300
H -11.884300 -16.548900 -29.184600
C -11.773700 -16.848500 -30.088600
H -11.462200 -17.757100 -30.088600
H -11.133200 -16.290300 -30.535500
O -20.133000 -9.841400 -27.268500
N -19.149200 -9.336200 -27.817700
O -18.945000 -8.138000 -27.891800
N -18.288100 -11.548100 -28.304500
C -18.163300 -10.226100 -28.356800
O -17.233100 -14.121500 -28.382900
C -17.202500 -11.912900 -28.942100
N -17.087800 -9.735300 -28.952100
N -16.833400 -13.285800 -29.186600
N -16.457500 -10.862800 -29.337500
O -16.156900 -13.516800 -30.162700
H -15.276900 -11.086100 -30.944400
C -15.166300 -10.786500 -30.040400
H -14.854800 -9.877900 -30.040400
H -14.525800 -11.344700 -29.593500
