15
Fragment
O -16.740400 -17.793600 -32.860500
N -15.756600 -18.298800 -32.311300
O -15.552400 -19.497000 -32.237200
N -14.895500 -16.086900 -31.824500
C -14.770700 -17.408900 -31.772200
O -13.840500 -13.513500 -31.746100
C -13.809900 -15.722100 -31.186900
N -13.695200 -17.899700 -31.176900
N -13.440800 -14.349200 -30.942400
N -13.064900 -16.772200 -30.791500
O -12.764300 -14.118200 -29.966300
H -11.884300 -16.548900 -29.184600
C -11.773700 -16.848500 -30.088600
H -11.462200 -17.757100 -30.088600
H -11.133200 -16.290300 -30.535500
15
Fragment
O -23.525600 -17.793600 -32.860500
N -22.541800 -18.298800 -32.311300
O -22.337600 -19.497000 -32.237200
N -21.680700 -16.086900 -31.824500
C -21.555900 -17.408900 -31.772200
O -20.625700 -13.513500 -31.746100
C -20.595100 -15.722100 -31.186900
N -20.480400 -17.899700 -31.176900
N -20.226000 -14.349200 -30.942400
N -19.850100 -16.772200 -30.791500
O -19.549500 -14.118200 -29.966300
H -18.669500 -16.548900 -29.184600
C -18.558900 -16.848500 -30.088600
H -18.247400 -17.757100 -30.088600
H -17.918400 -16.290300 -30.535500
30
Fragment
O -16.740400 -17.793600 -32.860500
N -15.756600 -18.298800 -32.311300
O -15.552400 -19.497000 -32.237200
N -14.895500 -16.086900 -31.824500
C -14.770700 -17.408900 -31.772200
O -13.840500 -13.513500 -31.746100
C -13.809900 -15.722100 -31.186900
N -13.695200 -17.899700 -31.176900
N -13.440800 -14.349200 -30.942400
N -13.064900 -16.772200 -30.791500
O -12.764300 -14.118200 -29.966300
H -11.884300 -16.548900 -29.184600
C -11.773700 -16.848500 -30.088600
H -11.462200 -17.757100 -30.088600
H -11.133200 -16.290300 -30.535500
O -23.525600 -17.793600 -32.860500
N -22.541800 -18.298800 -32.311300
O -22.337600 -19.497000 -32.237200
N -21.680700 -16.086900 -31.824500
C -21.555900 -17.408900 -31.772200
O -20.625700 -13.513500 -31.746100
C -20.595100 -15.722100 -31.186900
N -20.480400 -17.899700 -31.176900
N -20.226000 -14.349200 -30.942400
N -19.850100 -16.772200 -30.791500
O -19.549500 -14.118200 -29.966300
H -18.669500 -16.548900 -29.184600
C -18.558900 -16.848500 -30.088600
H -18.247400 -17.757100 -30.088600
H -17.918400 -16.290300 -30.535500
