13
Fragment
O -8.894000 -14.974600 -31.424900
O -8.519200 -17.060700 -31.925500
N -8.263100 -15.992300 -31.427100
N -7.011700 -15.933200 -30.744500
H -6.863900 -13.960100 -30.116900
C -6.498200 -14.814700 -30.160900
H -6.272500 -17.830600 -30.898600
C -6.137700 -16.967600 -30.579000
C -5.329100 -15.257400 -29.664800
N -5.095700 -16.581000 -29.916600
O -4.659300 -13.259200 -28.835900
N -4.385100 -14.447300 -28.956800
O -3.373600 -14.970400 -28.509000
13
Fragment
O -2.410100 -14.974600 -31.424900
O -2.035300 -17.060700 -31.925500
N -1.779200 -15.992300 -31.427100
N -0.527800 -15.933200 -30.744500
H -0.380000 -13.960100 -30.116900
C -0.014300 -14.814700 -30.160900
H 0.211400 -17.830600 -30.898600
C 0.346200 -16.967600 -30.579000
C 1.154800 -15.257400 -29.664800
N 1.388200 -16.581000 -29.916600
O 1.824600 -13.259200 -28.835900
N 2.098800 -14.447300 -28.956800
O 3.110300 -14.970400 -28.509000
26
Fragment
O -8.894000 -14.974600 -31.424900
O -8.519200 -17.060700 -31.925500
N -8.263100 -15.992300 -31.427100
N -7.011700 -15.933200 -30.744500
H -6.863900 -13.960100 -30.116900
C -6.498200 -14.814700 -30.160900
H -6.272500 -17.830600 -30.898600
C -6.137700 -16.967600 -30.579000
C -5.329100 -15.257400 -29.664800
N -5.095700 -16.581000 -29.916600
O -4.659300 -13.259200 -28.835900
N -4.385100 -14.447300 -28.956800
O -3.373600 -14.970400 -28.509000
O -2.410100 -14.974600 -31.424900
O -2.035300 -17.060700 -31.925500
N -1.779200 -15.992300 -31.427100
N -0.527800 -15.933200 -30.744500
H -0.380000 -13.960100 -30.116900
C -0.014300 -14.814700 -30.160900
H 0.211400 -17.830600 -30.898600
C 0.346200 -16.967600 -30.579000
C 1.154800 -15.257400 -29.664800
N 1.388200 -16.581000 -29.916600
O 1.824600 -13.259200 -28.835900
N 2.098800 -14.447300 -28.956800
O 3.110300 -14.970400 -28.509000
