31
Fragment
N -15.229800 -34.501900 -7.358100
N -15.033500 -35.193800 -8.549500
H -14.683600 -32.931500 -5.376100
C -14.145300 -33.835800 -7.091100
C -13.898800 -32.958500 -5.928200
C -13.826100 -34.938300 -8.968600
H -13.813400 -36.022200 -10.664300
H -13.691500 -32.073300 -6.233900
N -13.228100 -34.091800 -8.077900
C -13.198800 -35.443600 -10.206900
H -13.160900 -33.302800 -5.419200
H -12.971500 -34.703500 -10.776000
H -12.402400 -35.933000 -9.985900
O -12.381500 -32.285000 -9.904200
N -11.937700 -33.598800 -8.127100
C -11.602100 -32.687300 -9.071000
H -11.350400 -33.869300 -7.560800
H -10.640000 -31.133100 -7.235100
O -10.242900 -34.193300 -10.955900
C -10.208500 -32.145600 -8.911600
C -9.971500 -31.283700 -7.863500
C -9.381300 -33.359400 -10.937700
C -9.193700 -32.368400 -9.852600
C -8.755000 -30.639300 -7.729500
H -8.618000 -33.869300 -12.629600
H -8.608400 -30.062700 -7.014000
O -8.481900 -33.241600 -11.890300
C -7.979300 -31.708000 -9.708600
C -7.762900 -30.851200 -8.655900
H -7.304200 -31.846700 -10.333200
H -6.945800 -30.414700 -8.571200
31
Fragment
N -16.911700 -34.501900 0.342800
N -16.715400 -35.193800 -0.848600
H -16.365500 -32.931500 2.324900
C -15.827200 -33.835800 0.609900
C -15.580700 -32.958500 1.772800
C -15.508000 -34.938300 -1.267600
H -15.495300 -36.022200 -2.963300
H -15.373400 -32.073300 1.467000
N -14.910000 -34.091800 -0.377000
C -14.880700 -35.443600 -2.505900
H -14.842800 -33.302800 2.281800
H -14.653400 -34.703500 -3.075000
H -14.084300 -35.933000 -2.284900
O -14.063400 -32.285000 -2.203200
N -13.619600 -33.598800 -0.426200
C -13.284000 -32.687300 -1.370000
H -13.032300 -33.869300 0.140200
H -12.321900 -31.133100 0.465900
O -11.924800 -34.193300 -3.254900
C -11.890400 -32.145600 -1.210600
C -11.653400 -31.283700 -0.162500
C -11.063200 -33.359400 -3.236700
C -10.875600 -32.368400 -2.151700
C -10.436900 -30.639300 -0.028500
H -10.299900 -33.869300 -4.928600
H -10.290300 -30.062700 0.686900
O -10.163800 -33.241600 -4.189300
C -9.661200 -31.708000 -2.007600
C -9.444800 -30.851200 -0.954900
H -8.986100 -31.846700 -2.632200
H -8.627700 -30.414700 -0.870200
62
Fragment
N -15.229800 -34.501900 -7.358100
N -15.033500 -35.193800 -8.549500
H -14.683600 -32.931500 -5.376100
C -14.145300 -33.835800 -7.091100
C -13.898800 -32.958500 -5.928200
C -13.826100 -34.938300 -8.968600
H -13.813400 -36.022200 -10.664300
H -13.691500 -32.073300 -6.233900
N -13.228100 -34.091800 -8.077900
C -13.198800 -35.443600 -10.206900
H -13.160900 -33.302800 -5.419200
H -12.971500 -34.703500 -10.776000
H -12.402400 -35.933000 -9.985900
O -12.381500 -32.285000 -9.904200
N -11.937700 -33.598800 -8.127100
C -11.602100 -32.687300 -9.071000
H -11.350400 -33.869300 -7.560800
H -10.640000 -31.133100 -7.235100
O -10.242900 -34.193300 -10.955900
C -10.208500 -32.145600 -8.911600
C -9.971500 -31.283700 -7.863500
C -9.381300 -33.359400 -10.937700
C -9.193700 -32.368400 -9.852600
C -8.755000 -30.639300 -7.729500
H -8.618000 -33.869300 -12.629600
H -8.608400 -30.062700 -7.014000
O -8.481900 -33.241600 -11.890300
C -7.979300 -31.708000 -9.708600
C -7.762900 -30.851200 -8.655900
H -7.304200 -31.846700 -10.333200
H -6.945800 -30.414700 -8.571200
N -16.911700 -34.501900 0.342800
N -16.715400 -35.193800 -0.848600
H -16.365500 -32.931500 2.324900
C -15.827200 -33.835800 0.609900
C -15.580700 -32.958500 1.772800
C -15.508000 -34.938300 -1.267600
H -15.495300 -36.022200 -2.963300
H -15.373400 -32.073300 1.467000
N -14.910000 -34.091800 -0.377000
C -14.880700 -35.443600 -2.505900
H -14.842800 -33.302800 2.281800
H -14.653400 -34.703500 -3.075000
H -14.084300 -35.933000 -2.284900
O -14.063400 -32.285000 -2.203200
N -13.619600 -33.598800 -0.426200
C -13.284000 -32.687300 -1.370000
H -13.032300 -33.869300 0.140200
H -12.321900 -31.133100 0.465900
O -11.924800 -34.193300 -3.254900
C -11.890400 -32.145600 -1.210600
C -11.653400 -31.283700 -0.162500
C -11.063200 -33.359400 -3.236700
C -10.875600 -32.368400 -2.151700
C -10.436900 -30.639300 -0.028500
H -10.299900 -33.869300 -4.928600
H -10.290300 -30.062700 0.686900
O -10.163800 -33.241600 -4.189300
C -9.661200 -31.708000 -2.007600
C -9.444800 -30.851200 -0.954900
H -8.986100 -31.846700 -2.632200
H -8.627700 -30.414700 -0.870200
