31
Fragment
N -15.229800 -34.501900 -7.358100
N -15.033500 -35.193800 -8.549500
H -14.683600 -32.931500 -5.376100
C -14.145300 -33.835800 -7.091100
C -13.898800 -32.958500 -5.928200
C -13.826100 -34.938300 -8.968600
H -13.813400 -36.022200 -10.664300
H -13.691500 -32.073300 -6.233900
N -13.228100 -34.091800 -8.077900
C -13.198800 -35.443600 -10.206900
H -13.160900 -33.302800 -5.419200
H -12.971500 -34.703500 -10.776000
H -12.402400 -35.933000 -9.985900
O -12.381500 -32.285000 -9.904200
N -11.937700 -33.598800 -8.127100
C -11.602100 -32.687300 -9.071000
H -11.350400 -33.869300 -7.560800
H -10.640000 -31.133100 -7.235100
O -10.242900 -34.193300 -10.955900
C -10.208500 -32.145600 -8.911600
C -9.971500 -31.283700 -7.863500
C -9.381300 -33.359400 -10.937700
C -9.193700 -32.368400 -9.852600
C -8.755000 -30.639300 -7.729500
H -8.618000 -33.869300 -12.629600
H -8.608400 -30.062700 -7.014000
O -8.481900 -33.241600 -11.890300
C -7.979300 -31.708000 -9.708600
C -7.762900 -30.851200 -8.655900
H -7.304200 -31.846700 -10.333200
H -6.945800 -30.414700 -8.571200
31
Fragment
N -18.145900 -25.768100 -11.208600
N -17.949600 -25.076200 -12.400000
H -17.599700 -27.338500 -9.226500
C -17.061400 -26.434200 -10.941500
C -16.814900 -27.311500 -9.778700
C -16.742200 -25.331700 -12.819000
H -16.729500 -24.247800 -14.514800
H -16.607600 -28.196700 -10.084400
N -16.144200 -26.178200 -11.928400
C -16.114900 -24.826400 -14.057400
H -16.077000 -26.967200 -9.269700
H -15.887600 -25.566500 -14.626500
H -15.318500 -24.337000 -13.836300
O -15.297600 -27.985000 -13.754700
N -14.853800 -26.671200 -11.977600
C -14.518200 -27.582700 -12.921500
H -14.266500 -26.400700 -11.411300
H -13.556100 -29.136900 -11.085600
O -13.159000 -26.076700 -14.806400
C -13.124600 -28.124400 -12.762100
C -12.887600 -28.986300 -11.714000
C -12.297400 -26.910600 -14.788200
C -12.109800 -27.901600 -13.703100
C -11.671100 -29.630700 -11.580000
H -11.534100 -26.400700 -16.480100
H -11.524500 -30.207300 -10.864500
O -11.398000 -27.028400 -15.740800
C -10.895400 -28.562000 -13.559100
C -10.679000 -29.418800 -12.506400
H -10.220300 -28.423300 -14.183700
H -9.861900 -29.855300 -12.421700
62
Fragment
N -15.229800 -34.501900 -7.358100
N -15.033500 -35.193800 -8.549500
H -14.683600 -32.931500 -5.376100
C -14.145300 -33.835800 -7.091100
C -13.898800 -32.958500 -5.928200
C -13.826100 -34.938300 -8.968600
H -13.813400 -36.022200 -10.664300
H -13.691500 -32.073300 -6.233900
N -13.228100 -34.091800 -8.077900
C -13.198800 -35.443600 -10.206900
H -13.160900 -33.302800 -5.419200
H -12.971500 -34.703500 -10.776000
H -12.402400 -35.933000 -9.985900
O -12.381500 -32.285000 -9.904200
N -11.937700 -33.598800 -8.127100
C -11.602100 -32.687300 -9.071000
H -11.350400 -33.869300 -7.560800
H -10.640000 -31.133100 -7.235100
O -10.242900 -34.193300 -10.955900
C -10.208500 -32.145600 -8.911600
C -9.971500 -31.283700 -7.863500
C -9.381300 -33.359400 -10.937700
C -9.193700 -32.368400 -9.852600
C -8.755000 -30.639300 -7.729500
H -8.618000 -33.869300 -12.629600
H -8.608400 -30.062700 -7.014000
O -8.481900 -33.241600 -11.890300
C -7.979300 -31.708000 -9.708600
C -7.762900 -30.851200 -8.655900
H -7.304200 -31.846700 -10.333200
H -6.945800 -30.414700 -8.571200
N -18.145900 -25.768100 -11.208600
N -17.949600 -25.076200 -12.400000
H -17.599700 -27.338500 -9.226500
C -17.061400 -26.434200 -10.941500
C -16.814900 -27.311500 -9.778700
C -16.742200 -25.331700 -12.819000
H -16.729500 -24.247800 -14.514800
H -16.607600 -28.196700 -10.084400
N -16.144200 -26.178200 -11.928400
C -16.114900 -24.826400 -14.057400
H -16.077000 -26.967200 -9.269700
H -15.887600 -25.566500 -14.626500
H -15.318500 -24.337000 -13.836300
O -15.297600 -27.985000 -13.754700
N -14.853800 -26.671200 -11.977600
C -14.518200 -27.582700 -12.921500
H -14.266500 -26.400700 -11.411300
H -13.556100 -29.136900 -11.085600
O -13.159000 -26.076700 -14.806400
C -13.124600 -28.124400 -12.762100
C -12.887600 -28.986300 -11.714000
C -12.297400 -26.910600 -14.788200
C -12.109800 -27.901600 -13.703100
C -11.671100 -29.630700 -11.580000
H -11.534100 -26.400700 -16.480100
H -11.524500 -30.207300 -10.864500
O -11.398000 -27.028400 -15.740800
C -10.895400 -28.562000 -13.559100
C -10.679000 -29.418800 -12.506400
H -10.220300 -28.423300 -14.183700
H -9.861900 -29.855300 -12.421700
