31
Fragment
N -15.229800 -34.501900 -7.358100
N -15.033500 -35.193800 -8.549500
H -14.683600 -32.931500 -5.376100
C -14.145300 -33.835800 -7.091100
C -13.898800 -32.958500 -5.928200
C -13.826100 -34.938300 -8.968600
H -13.813400 -36.022200 -10.664300
H -13.691500 -32.073300 -6.233900
N -13.228100 -34.091800 -8.077900
C -13.198800 -35.443600 -10.206900
H -13.160900 -33.302800 -5.419200
H -12.971500 -34.703500 -10.776000
H -12.402400 -35.933000 -9.985900
O -12.381500 -32.285000 -9.904200
N -11.937700 -33.598800 -8.127100
C -11.602100 -32.687300 -9.071000
H -11.350400 -33.869300 -7.560800
H -10.640000 -31.133100 -7.235100
O -10.242900 -34.193300 -10.955900
C -10.208500 -32.145600 -8.911600
C -9.971500 -31.283700 -7.863500
C -9.381300 -33.359400 -10.937700
C -9.193700 -32.368400 -9.852600
C -8.755000 -30.639300 -7.729500
H -8.618000 -33.869300 -12.629600
H -8.608400 -30.062700 -7.014000
O -8.481900 -33.241600 -11.890300
C -7.979300 -31.708000 -9.708600
C -7.762900 -30.851200 -8.655900
H -7.304200 -31.846700 -10.333200
H -6.945800 -30.414700 -8.571200
31
Fragment
N -22.743900 -34.501900 -7.358100
N -22.547600 -35.193800 -8.549500
H -22.197700 -32.931500 -5.376100
C -21.659400 -33.835800 -7.091100
C -21.412900 -32.958500 -5.928200
C -21.340200 -34.938300 -8.968600
H -21.327500 -36.022200 -10.664300
H -21.205600 -32.073300 -6.233900
N -20.742200 -34.091800 -8.077900
C -20.712900 -35.443600 -10.206900
H -20.675000 -33.302800 -5.419200
H -20.485600 -34.703500 -10.776000
H -19.916500 -35.933000 -9.985900
O -19.895600 -32.285000 -9.904200
N -19.451800 -33.598800 -8.127100
C -19.116200 -32.687300 -9.071000
H -18.864500 -33.869300 -7.560800
H -18.154100 -31.133100 -7.235100
O -17.757000 -34.193300 -10.955900
C -17.722600 -32.145600 -8.911600
C -17.485600 -31.283700 -7.863500
C -16.895400 -33.359400 -10.937700
C -16.707800 -32.368400 -9.852600
C -16.269100 -30.639300 -7.729500
H -16.132100 -33.869300 -12.629600
H -16.122500 -30.062700 -7.014000
O -15.996000 -33.241600 -11.890300
C -15.493400 -31.708000 -9.708600
C -15.277000 -30.851200 -8.655900
H -14.818300 -31.846700 -10.333200
H -14.459900 -30.414700 -8.571200
62
Fragment
N -15.229800 -34.501900 -7.358100
N -15.033500 -35.193800 -8.549500
H -14.683600 -32.931500 -5.376100
C -14.145300 -33.835800 -7.091100
C -13.898800 -32.958500 -5.928200
C -13.826100 -34.938300 -8.968600
H -13.813400 -36.022200 -10.664300
H -13.691500 -32.073300 -6.233900
N -13.228100 -34.091800 -8.077900
C -13.198800 -35.443600 -10.206900
H -13.160900 -33.302800 -5.419200
H -12.971500 -34.703500 -10.776000
H -12.402400 -35.933000 -9.985900
O -12.381500 -32.285000 -9.904200
N -11.937700 -33.598800 -8.127100
C -11.602100 -32.687300 -9.071000
H -11.350400 -33.869300 -7.560800
H -10.640000 -31.133100 -7.235100
O -10.242900 -34.193300 -10.955900
C -10.208500 -32.145600 -8.911600
C -9.971500 -31.283700 -7.863500
C -9.381300 -33.359400 -10.937700
C -9.193700 -32.368400 -9.852600
C -8.755000 -30.639300 -7.729500
H -8.618000 -33.869300 -12.629600
H -8.608400 -30.062700 -7.014000
O -8.481900 -33.241600 -11.890300
C -7.979300 -31.708000 -9.708600
C -7.762900 -30.851200 -8.655900
H -7.304200 -31.846700 -10.333200
H -6.945800 -30.414700 -8.571200
N -22.743900 -34.501900 -7.358100
N -22.547600 -35.193800 -8.549500
H -22.197700 -32.931500 -5.376100
C -21.659400 -33.835800 -7.091100
C -21.412900 -32.958500 -5.928200
C -21.340200 -34.938300 -8.968600
H -21.327500 -36.022200 -10.664300
H -21.205600 -32.073300 -6.233900
N -20.742200 -34.091800 -8.077900
C -20.712900 -35.443600 -10.206900
H -20.675000 -33.302800 -5.419200
H -20.485600 -34.703500 -10.776000
H -19.916500 -35.933000 -9.985900
O -19.895600 -32.285000 -9.904200
N -19.451800 -33.598800 -8.127100
C -19.116200 -32.687300 -9.071000
H -18.864500 -33.869300 -7.560800
H -18.154100 -31.133100 -7.235100
O -17.757000 -34.193300 -10.955900
C -17.722600 -32.145600 -8.911600
C -17.485600 -31.283700 -7.863500
C -16.895400 -33.359400 -10.937700
C -16.707800 -32.368400 -9.852600
C -16.269100 -30.639300 -7.729500
H -16.132100 -33.869300 -12.629600
H -16.122500 -30.062700 -7.014000
O -15.996000 -33.241600 -11.890300
C -15.493400 -31.708000 -9.708600
C -15.277000 -30.851200 -8.655900
H -14.818300 -31.846700 -10.333200
H -14.459900 -30.414700 -8.571200
