31
Fragment
N -15.229800 -34.501900 -7.358100
N -15.033500 -35.193800 -8.549500
H -14.683600 -32.931500 -5.376100
C -14.145300 -33.835800 -7.091100
C -13.898800 -32.958500 -5.928200
C -13.826100 -34.938300 -8.968600
H -13.813400 -36.022200 -10.664300
H -13.691500 -32.073300 -6.233900
N -13.228100 -34.091800 -8.077900
C -13.198800 -35.443600 -10.206900
H -13.160900 -33.302800 -5.419200
H -12.971500 -34.703500 -10.776000
H -12.402400 -35.933000 -9.985900
O -12.381500 -32.285000 -9.904200
N -11.937700 -33.598800 -8.127100
C -11.602100 -32.687300 -9.071000
H -11.350400 -33.869300 -7.560800
H -10.640000 -31.133100 -7.235100
O -10.242900 -34.193300 -10.955900
C -10.208500 -32.145600 -8.911600
C -9.971500 -31.283700 -7.863500
C -9.381300 -33.359400 -10.937700
C -9.193700 -32.368400 -9.852600
C -8.755000 -30.639300 -7.729500
H -8.618000 -33.869300 -12.629600
H -8.608400 -30.062700 -7.014000
O -8.481900 -33.241600 -11.890300
C -7.979300 -31.708000 -9.708600
C -7.762900 -30.851200 -8.655900
H -7.304200 -31.846700 -10.333200
H -6.945800 -30.414700 -8.571200
31
Fragment
N -13.547900 -34.501900 -15.059100
N -13.351600 -35.193800 -16.250500
H -13.001700 -32.931500 -13.077000
C -12.463400 -33.835800 -14.792000
C -12.216900 -32.958500 -13.629200
C -12.144200 -34.938300 -16.669500
H -12.131500 -36.022200 -18.365300
H -12.009600 -32.073300 -13.934900
N -11.546200 -34.091800 -15.778900
C -11.516900 -35.443600 -17.907800
H -11.479000 -33.302800 -13.120200
H -11.289600 -34.703500 -18.476900
H -10.720500 -35.933000 -17.686800
O -10.699600 -32.285000 -17.605200
N -10.255800 -33.598800 -15.828100
C -9.920200 -32.687300 -16.772000
H -9.668500 -33.869300 -15.261800
H -8.958100 -31.133100 -14.936000
O -8.561000 -34.193300 -18.656800
C -8.526600 -32.145600 -16.612500
C -8.289600 -31.283700 -15.564400
C -7.699400 -33.359400 -18.638700
C -7.511800 -32.368400 -17.553600
C -7.073100 -30.639300 -15.430400
H -6.936100 -33.869300 -20.330600
H -6.926500 -30.062700 -14.715000
O -6.800000 -33.241600 -19.591300
C -6.297400 -31.708000 -17.409600
C -6.081000 -30.851200 -16.356900
H -5.622300 -31.846700 -18.034100
H -5.263900 -30.414700 -16.272200
62
Fragment
N -15.229800 -34.501900 -7.358100
N -15.033500 -35.193800 -8.549500
H -14.683600 -32.931500 -5.376100
C -14.145300 -33.835800 -7.091100
C -13.898800 -32.958500 -5.928200
C -13.826100 -34.938300 -8.968600
H -13.813400 -36.022200 -10.664300
H -13.691500 -32.073300 -6.233900
N -13.228100 -34.091800 -8.077900
C -13.198800 -35.443600 -10.206900
H -13.160900 -33.302800 -5.419200
H -12.971500 -34.703500 -10.776000
H -12.402400 -35.933000 -9.985900
O -12.381500 -32.285000 -9.904200
N -11.937700 -33.598800 -8.127100
C -11.602100 -32.687300 -9.071000
H -11.350400 -33.869300 -7.560800
H -10.640000 -31.133100 -7.235100
O -10.242900 -34.193300 -10.955900
C -10.208500 -32.145600 -8.911600
C -9.971500 -31.283700 -7.863500
C -9.381300 -33.359400 -10.937700
C -9.193700 -32.368400 -9.852600
C -8.755000 -30.639300 -7.729500
H -8.618000 -33.869300 -12.629600
H -8.608400 -30.062700 -7.014000
O -8.481900 -33.241600 -11.890300
C -7.979300 -31.708000 -9.708600
C -7.762900 -30.851200 -8.655900
H -7.304200 -31.846700 -10.333200
H -6.945800 -30.414700 -8.571200
N -13.547900 -34.501900 -15.059100
N -13.351600 -35.193800 -16.250500
H -13.001700 -32.931500 -13.077000
C -12.463400 -33.835800 -14.792000
C -12.216900 -32.958500 -13.629200
C -12.144200 -34.938300 -16.669500
H -12.131500 -36.022200 -18.365300
H -12.009600 -32.073300 -13.934900
N -11.546200 -34.091800 -15.778900
C -11.516900 -35.443600 -17.907800
H -11.479000 -33.302800 -13.120200
H -11.289600 -34.703500 -18.476900
H -10.720500 -35.933000 -17.686800
O -10.699600 -32.285000 -17.605200
N -10.255800 -33.598800 -15.828100
C -9.920200 -32.687300 -16.772000
H -9.668500 -33.869300 -15.261800
H -8.958100 -31.133100 -14.936000
O -8.561000 -34.193300 -18.656800
C -8.526600 -32.145600 -16.612500
C -8.289600 -31.283700 -15.564400
C -7.699400 -33.359400 -18.638700
C -7.511800 -32.368400 -17.553600
C -7.073100 -30.639300 -15.430400
H -6.936100 -33.869300 -20.330600
H -6.926500 -30.062700 -14.715000
O -6.800000 -33.241600 -19.591300
C -6.297400 -31.708000 -17.409600
C -6.081000 -30.851200 -16.356900
H -5.622300 -31.846700 -18.034100
H -5.263900 -30.414700 -16.272200
