15
Fragment
O -7.121800 -15.218100 -22.238600
H -7.067000 -17.412700 -21.280200
N -6.813500 -14.847800 -21.119100
C -6.783900 -17.176700 -20.406800
H -6.693300 -19.014200 -19.629500
O -6.667600 -13.669100 -20.826100
C -6.597700 -15.844000 -20.098600
C -6.574500 -18.112900 -19.434300
C -6.203300 -15.427800 -18.838600
C -6.185900 -17.731700 -18.154600
H -6.087300 -14.485100 -18.622900
O -6.017400 -18.689800 -17.222100
C -6.004400 -16.380400 -17.864900
H -5.838500 -18.308500 -16.390400
H -5.745000 -16.101800 -17.000200
31
Fragment
H -13.712300 -17.303500 -14.637000
O -12.935600 -17.637000 -14.775500
H -12.128100 -15.817800 -14.702300
C -11.961000 -16.696100 -14.319000
H -11.951500 -16.648000 -13.341000
O -11.024700 -16.604300 -22.530300
H -10.926600 -18.920200 -21.911900
N -10.726300 -18.477300 -21.263100
C -10.724500 -17.105700 -21.445000
O -10.626100 -17.290300 -16.229800
C -10.611800 -17.169100 -14.786800
H -10.487100 -20.045400 -20.147600
H -10.450300 -17.958900 -14.440900
C -10.445700 -19.110300 -20.096400
C -10.347300 -16.418600 -20.250500
N -10.220800 -15.068900 -19.992700
N -10.117800 -18.515500 -18.981700
C -10.084800 -17.162500 -19.118600
H -9.935700 -14.845600 -15.867600
C -9.900100 -15.018200 -18.723100
N -9.801600 -16.255300 -18.129800
H -9.723600 -14.255700 -18.209100
H -9.679700 -15.599300 -13.700400
C -9.489400 -16.634900 -16.751900
C -9.464200 -16.225300 -14.444000
C -9.244000 -15.486800 -15.777200
H -8.700900 -17.237900 -16.771500
O -8.294100 -16.972500 -14.117300
H -8.156700 -16.932000 -13.319200
O -7.980900 -14.914400 -15.975700
H -7.905000 -14.277500 -15.410200
46
Fragment
O -7.121800 -15.218100 -22.238600
H -7.067000 -17.412700 -21.280200
N -6.813500 -14.847800 -21.119100
C -6.783900 -17.176700 -20.406800
H -6.693300 -19.014200 -19.629500
O -6.667600 -13.669100 -20.826100
C -6.597700 -15.844000 -20.098600
C -6.574500 -18.112900 -19.434300
C -6.203300 -15.427800 -18.838600
C -6.185900 -17.731700 -18.154600
H -6.087300 -14.485100 -18.622900
O -6.017400 -18.689800 -17.222100
C -6.004400 -16.380400 -17.864900
H -5.838500 -18.308500 -16.390400
H -5.745000 -16.101800 -17.000200
H -13.712300 -17.303500 -14.637000
O -12.935600 -17.637000 -14.775500
H -12.128100 -15.817800 -14.702300
C -11.961000 -16.696100 -14.319000
H -11.951500 -16.648000 -13.341000
O -11.024700 -16.604300 -22.530300
H -10.926600 -18.920200 -21.911900
N -10.726300 -18.477300 -21.263100
C -10.724500 -17.105700 -21.445000
O -10.626100 -17.290300 -16.229800
C -10.611800 -17.169100 -14.786800
H -10.487100 -20.045400 -20.147600
H -10.450300 -17.958900 -14.440900
C -10.445700 -19.110300 -20.096400
C -10.347300 -16.418600 -20.250500
N -10.220800 -15.068900 -19.992700
N -10.117800 -18.515500 -18.981700
C -10.084800 -17.162500 -19.118600
H -9.935700 -14.845600 -15.867600
C -9.900100 -15.018200 -18.723100
N -9.801600 -16.255300 -18.129800
H -9.723600 -14.255700 -18.209100
H -9.679700 -15.599300 -13.700400
C -9.489400 -16.634900 -16.751900
C -9.464200 -16.225300 -14.444000
C -9.244000 -15.486800 -15.777200
H -8.700900 -17.237900 -16.771500
O -8.294100 -16.972500 -14.117300
H -8.156700 -16.932000 -13.319200
O -7.980900 -14.914400 -15.975700
H -7.905000 -14.277500 -15.410200
