15
Fragment
O -7.121800 -15.218100 -22.238600
H -7.067000 -17.412700 -21.280200
N -6.813500 -14.847800 -21.119100
C -6.783900 -17.176700 -20.406800
H -6.693300 -19.014200 -19.629500
O -6.667600 -13.669100 -20.826100
C -6.597700 -15.844000 -20.098600
C -6.574500 -18.112900 -19.434300
C -6.203300 -15.427800 -18.838600
C -6.185900 -17.731700 -18.154600
H -6.087300 -14.485100 -18.622900
O -6.017400 -18.689800 -17.222100
C -6.004400 -16.380400 -17.864900
H -5.838500 -18.308500 -16.390400
H -5.745000 -16.101800 -17.000200
31
Fragment
H -10.101500 -19.739500 -17.261600
O -10.025500 -20.376400 -16.696100
H -9.849800 -22.394000 -19.352600
O -9.712400 -22.434400 -18.554500
H -9.305600 -22.699900 -15.900300
C -8.762500 -20.948800 -16.894600
C -8.542200 -21.687200 -18.227800
C -8.517100 -22.096900 -15.919900
H -8.326800 -21.061300 -18.971400
H -8.282900 -19.717600 -14.462700
N -8.204900 -21.717300 -14.542000
C -8.106400 -20.480100 -13.948700
H -8.070800 -20.307500 -16.804200
C -7.921700 -22.624500 -13.553200
N -7.888700 -23.977400 -13.690100
N -7.785700 -20.530800 -12.679100
C -7.659200 -21.880600 -12.421300
C -7.560800 -24.572200 -12.575400
H -7.556200 -23.420800 -18.230900
H -7.519300 -25.507300 -12.524200
C -7.394700 -22.631000 -17.885000
O -7.380400 -22.752300 -16.442000
C -7.282000 -22.567700 -11.226800
N -7.280200 -23.939300 -11.408700
H -7.079800 -24.382100 -10.759900
O -6.981800 -22.066300 -10.141500
H -6.055000 -22.110000 -19.330800
C -6.045500 -22.158000 -18.352800
H -5.878400 -21.279800 -17.969500
O -5.070900 -23.098900 -17.896300
H -4.294200 -22.765400 -18.034800
46
Fragment
O -7.121800 -15.218100 -22.238600
H -7.067000 -17.412700 -21.280200
N -6.813500 -14.847800 -21.119100
C -6.783900 -17.176700 -20.406800
H -6.693300 -19.014200 -19.629500
O -6.667600 -13.669100 -20.826100
C -6.597700 -15.844000 -20.098600
C -6.574500 -18.112900 -19.434300
C -6.203300 -15.427800 -18.838600
C -6.185900 -17.731700 -18.154600
H -6.087300 -14.485100 -18.622900
O -6.017400 -18.689800 -17.222100
C -6.004400 -16.380400 -17.864900
H -5.838500 -18.308500 -16.390400
H -5.745000 -16.101800 -17.000200
H -10.101500 -19.739500 -17.261600
O -10.025500 -20.376400 -16.696100
H -9.849800 -22.394000 -19.352600
O -9.712400 -22.434400 -18.554500
H -9.305600 -22.699900 -15.900300
C -8.762500 -20.948800 -16.894600
C -8.542200 -21.687200 -18.227800
C -8.517100 -22.096900 -15.919900
H -8.326800 -21.061300 -18.971400
H -8.282900 -19.717600 -14.462700
N -8.204900 -21.717300 -14.542000
C -8.106400 -20.480100 -13.948700
H -8.070800 -20.307500 -16.804200
C -7.921700 -22.624500 -13.553200
N -7.888700 -23.977400 -13.690100
N -7.785700 -20.530800 -12.679100
C -7.659200 -21.880600 -12.421300
C -7.560800 -24.572200 -12.575400
H -7.556200 -23.420800 -18.230900
H -7.519300 -25.507300 -12.524200
C -7.394700 -22.631000 -17.885000
O -7.380400 -22.752300 -16.442000
C -7.282000 -22.567700 -11.226800
N -7.280200 -23.939300 -11.408700
H -7.079800 -24.382100 -10.759900
O -6.981800 -22.066300 -10.141500
H -6.055000 -22.110000 -19.330800
C -6.045500 -22.158000 -18.352800
H -5.878400 -21.279800 -17.969500
O -5.070900 -23.098900 -17.896300
H -4.294200 -22.765400 -18.034800
