15
Fragment
O -7.121800 -15.218100 -22.238600
H -7.067000 -17.412700 -21.280200
N -6.813500 -14.847800 -21.119100
C -6.783900 -17.176700 -20.406800
H -6.693300 -19.014200 -19.629500
O -6.667600 -13.669100 -20.826100
C -6.597700 -15.844000 -20.098600
C -6.574500 -18.112900 -19.434300
C -6.203300 -15.427800 -18.838600
C -6.185900 -17.731700 -18.154600
H -6.087300 -14.485100 -18.622900
O -6.017400 -18.689800 -17.222100
C -6.004400 -16.380400 -17.864900
H -5.838500 -18.308500 -16.390400
H -5.745000 -16.101800 -17.000200
31
Fragment
H -10.113500 -17.303500 -25.527600
O -9.336800 -17.637000 -25.666100
H -8.529300 -15.817800 -25.592900
C -8.362200 -16.696100 -25.209600
H -8.352700 -16.648000 -24.231600
O -7.426000 -16.604300 -33.420900
H -7.327900 -18.920200 -32.802500
N -7.127500 -18.477300 -32.153700
C -7.125700 -17.105700 -32.335600
O -7.027300 -17.290300 -27.120400
C -7.013000 -17.169100 -25.677400
H -6.888400 -20.045400 -31.038200
H -6.851500 -17.958900 -25.331500
C -6.847000 -19.110300 -30.987000
C -6.748500 -16.418600 -31.141100
N -6.622000 -15.068900 -30.883300
N -6.519000 -18.515500 -29.872300
C -6.486000 -17.162500 -30.009200
H -6.336900 -14.845600 -26.758200
C -6.301300 -15.018200 -29.613700
N -6.202900 -16.255300 -29.020400
H -6.124800 -14.255700 -29.099700
H -6.081000 -15.599300 -24.591000
C -5.890600 -16.634900 -27.642500
C -5.865500 -16.225300 -25.334600
C -5.645300 -15.486800 -26.667800
H -5.102100 -17.237900 -27.662100
O -4.695300 -16.972500 -25.007900
H -4.558000 -16.932000 -24.209800
O -4.382200 -14.914400 -26.866300
H -4.306200 -14.277500 -26.300800
46
Fragment
O -7.121800 -15.218100 -22.238600
H -7.067000 -17.412700 -21.280200
N -6.813500 -14.847800 -21.119100
C -6.783900 -17.176700 -20.406800
H -6.693300 -19.014200 -19.629500
O -6.667600 -13.669100 -20.826100
C -6.597700 -15.844000 -20.098600
C -6.574500 -18.112900 -19.434300
C -6.203300 -15.427800 -18.838600
C -6.185900 -17.731700 -18.154600
H -6.087300 -14.485100 -18.622900
O -6.017400 -18.689800 -17.222100
C -6.004400 -16.380400 -17.864900
H -5.838500 -18.308500 -16.390400
H -5.745000 -16.101800 -17.000200
H -10.113500 -17.303500 -25.527600
O -9.336800 -17.637000 -25.666100
H -8.529300 -15.817800 -25.592900
C -8.362200 -16.696100 -25.209600
H -8.352700 -16.648000 -24.231600
O -7.426000 -16.604300 -33.420900
H -7.327900 -18.920200 -32.802500
N -7.127500 -18.477300 -32.153700
C -7.125700 -17.105700 -32.335600
O -7.027300 -17.290300 -27.120400
C -7.013000 -17.169100 -25.677400
H -6.888400 -20.045400 -31.038200
H -6.851500 -17.958900 -25.331500
C -6.847000 -19.110300 -30.987000
C -6.748500 -16.418600 -31.141100
N -6.622000 -15.068900 -30.883300
N -6.519000 -18.515500 -29.872300
C -6.486000 -17.162500 -30.009200
H -6.336900 -14.845600 -26.758200
C -6.301300 -15.018200 -29.613700
N -6.202900 -16.255300 -29.020400
H -6.124800 -14.255700 -29.099700
H -6.081000 -15.599300 -24.591000
C -5.890600 -16.634900 -27.642500
C -5.865500 -16.225300 -25.334600
C -5.645300 -15.486800 -26.667800
H -5.102100 -17.237900 -27.662100
O -4.695300 -16.972500 -25.007900
H -4.558000 -16.932000 -24.209800
O -4.382200 -14.914400 -26.866300
H -4.306200 -14.277500 -26.300800
