15
Fragment
O -7.121800 -15.218100 -22.238600
H -7.067000 -17.412700 -21.280200
N -6.813500 -14.847800 -21.119100
C -6.783900 -17.176700 -20.406800
H -6.693300 -19.014200 -19.629500
O -6.667600 -13.669100 -20.826100
C -6.597700 -15.844000 -20.098600
C -6.574500 -18.112900 -19.434300
C -6.203300 -15.427800 -18.838600
C -6.185900 -17.731700 -18.154600
H -6.087300 -14.485100 -18.622900
O -6.017400 -18.689800 -17.222100
C -6.004400 -16.380400 -17.864900
H -5.838500 -18.308500 -16.390400
H -5.745000 -16.101800 -17.000200
31
Fragment
H -6.511600 -17.303500 -14.637000
O -5.734900 -17.637000 -14.775500
H -4.927400 -15.817800 -14.702300
C -4.760300 -16.696100 -14.319000
H -4.750800 -16.648000 -13.341000
O -3.824000 -16.604300 -22.530300
H -3.725900 -18.920200 -21.911900
N -3.525600 -18.477300 -21.263100
C -3.523800 -17.105700 -21.445000
O -3.425400 -17.290300 -16.229800
C -3.411100 -17.169100 -14.786800
H -3.286400 -20.045400 -20.147600
H -3.249600 -17.958900 -14.440900
C -3.245000 -19.110300 -20.096400
C -3.146600 -16.418600 -20.250500
N -3.020100 -15.068900 -19.992700
N -2.917100 -18.515500 -18.981700
C -2.884100 -17.162500 -19.118600
H -2.735000 -14.845600 -15.867600
C -2.699400 -15.018200 -18.723100
N -2.600900 -16.255300 -18.129800
H -2.522900 -14.255700 -18.209100
H -2.479000 -15.599300 -13.700400
C -2.288700 -16.634900 -16.751900
C -2.263500 -16.225300 -14.444000
C -2.043300 -15.486800 -15.777200
H -1.500200 -17.237900 -16.771500
O -1.093400 -16.972500 -14.117300
H -0.956000 -16.932000 -13.319200
O -0.780200 -14.914400 -15.975700
H -0.704300 -14.277500 -15.410200
46
Fragment
O -7.121800 -15.218100 -22.238600
H -7.067000 -17.412700 -21.280200
N -6.813500 -14.847800 -21.119100
C -6.783900 -17.176700 -20.406800
H -6.693300 -19.014200 -19.629500
O -6.667600 -13.669100 -20.826100
C -6.597700 -15.844000 -20.098600
C -6.574500 -18.112900 -19.434300
C -6.203300 -15.427800 -18.838600
C -6.185900 -17.731700 -18.154600
H -6.087300 -14.485100 -18.622900
O -6.017400 -18.689800 -17.222100
C -6.004400 -16.380400 -17.864900
H -5.838500 -18.308500 -16.390400
H -5.745000 -16.101800 -17.000200
H -6.511600 -17.303500 -14.637000
O -5.734900 -17.637000 -14.775500
H -4.927400 -15.817800 -14.702300
C -4.760300 -16.696100 -14.319000
H -4.750800 -16.648000 -13.341000
O -3.824000 -16.604300 -22.530300
H -3.725900 -18.920200 -21.911900
N -3.525600 -18.477300 -21.263100
C -3.523800 -17.105700 -21.445000
O -3.425400 -17.290300 -16.229800
C -3.411100 -17.169100 -14.786800
H -3.286400 -20.045400 -20.147600
H -3.249600 -17.958900 -14.440900
C -3.245000 -19.110300 -20.096400
C -3.146600 -16.418600 -20.250500
N -3.020100 -15.068900 -19.992700
N -2.917100 -18.515500 -18.981700
C -2.884100 -17.162500 -19.118600
H -2.735000 -14.845600 -15.867600
C -2.699400 -15.018200 -18.723100
N -2.600900 -16.255300 -18.129800
H -2.522900 -14.255700 -18.209100
H -2.479000 -15.599300 -13.700400
C -2.288700 -16.634900 -16.751900
C -2.263500 -16.225300 -14.444000
C -2.043300 -15.486800 -15.777200
H -1.500200 -17.237900 -16.771500
O -1.093400 -16.972500 -14.117300
H -0.956000 -16.932000 -13.319200
O -0.780200 -14.914400 -15.975700
H -0.704300 -14.277500 -15.410200
