8
Fragment
H -6.688600 -22.570000 -15.179100
O -6.496400 -23.800000 -13.180900
O -6.492500 -23.434800 -15.383600
C -6.377300 -24.177400 -14.315200
C -6.061800 -25.649600 -14.670900
O -5.946600 -26.392200 -13.602500
O -5.942700 -26.027000 -15.805300
H -5.750500 -27.257000 -13.807000
21
Fragment
H -13.707600 -28.524300 -8.177900
H -13.277900 -26.307000 -8.927700
C -12.998100 -28.283000 -8.728600
N -12.756000 -27.025200 -9.111200
N -12.111900 -29.159300 -9.220800
C -11.629600 -27.068700 -9.908400
C -11.261900 -28.384600 -9.954300
O -11.188400 -24.838800 -10.576900
C -10.919100 -26.039600 -10.579300
H -10.447400 -30.705100 -11.205100
N -10.164200 -28.799800 -10.666600
N -9.808200 -26.533400 -11.269900
C -9.782600 -30.212600 -10.719100
H -9.716600 -30.558900 -9.826300
C -9.419200 -27.875400 -11.365000
H -9.229100 -24.681000 -11.763500
H -9.107300 -25.697400 -12.950000
C -8.978000 -25.574400 -12.006700
H -8.933800 -30.298100 -11.159600
O -8.449800 -28.197600 -12.031900
H -8.054000 -25.717400 -11.789600
29
Fragment
H -6.688600 -22.570000 -15.179100
O -6.496400 -23.800000 -13.180900
O -6.492500 -23.434800 -15.383600
C -6.377300 -24.177400 -14.315200
C -6.061800 -25.649600 -14.670900
O -5.946600 -26.392200 -13.602500
O -5.942700 -26.027000 -15.805300
H -5.750500 -27.257000 -13.807000
H -13.707600 -28.524300 -8.177900
H -13.277900 -26.307000 -8.927700
C -12.998100 -28.283000 -8.728600
N -12.756000 -27.025200 -9.111200
N -12.111900 -29.159300 -9.220800
C -11.629600 -27.068700 -9.908400
C -11.261900 -28.384600 -9.954300
O -11.188400 -24.838800 -10.576900
C -10.919100 -26.039600 -10.579300
H -10.447400 -30.705100 -11.205100
N -10.164200 -28.799800 -10.666600
N -9.808200 -26.533400 -11.269900
C -9.782600 -30.212600 -10.719100
H -9.716600 -30.558900 -9.826300
C -9.419200 -27.875400 -11.365000
H -9.229100 -24.681000 -11.763500
H -9.107300 -25.697400 -12.950000
C -8.978000 -25.574400 -12.006700
H -8.933800 -30.298100 -11.159600
O -8.449800 -28.197600 -12.031900
H -8.054000 -25.717400 -11.789600
