8
Fragment
H -6.688600 -22.570000 -15.179100
O -6.496400 -23.800000 -13.180900
O -6.492500 -23.434800 -15.383600
C -6.377300 -24.177400 -14.315200
C -6.061800 -25.649600 -14.670900
O -5.946600 -26.392200 -13.602500
O -5.942700 -26.027000 -15.805300
H -5.750500 -27.257000 -13.807000
21
Fragment
H -12.870500 -29.607200 -13.009000
H -12.440800 -31.824500 -13.758700
C -12.161000 -29.848500 -13.559600
N -11.919000 -31.106300 -13.942200
N -11.274900 -28.972200 -14.051800
C -10.792500 -31.062800 -14.739400
C -10.424900 -29.746900 -14.785300
O -10.351300 -33.292700 -15.407900
C -10.082000 -32.091900 -15.410400
H -9.610400 -27.426400 -16.036100
N -9.327100 -29.331700 -15.497600
N -8.971100 -31.598100 -16.100900
C -8.945500 -27.918900 -15.550100
H -8.879600 -27.572600 -14.657300
C -8.582100 -30.256100 -16.196000
H -8.392000 -33.450500 -16.594500
H -8.270200 -32.434100 -17.781000
C -8.140900 -32.557100 -16.837700
H -8.096800 -27.833400 -15.990700
O -7.612700 -29.933900 -16.863000
H -7.217000 -32.414100 -16.620600
29
Fragment
H -6.688600 -22.570000 -15.179100
O -6.496400 -23.800000 -13.180900
O -6.492500 -23.434800 -15.383600
C -6.377300 -24.177400 -14.315200
C -6.061800 -25.649600 -14.670900
O -5.946600 -26.392200 -13.602500
O -5.942700 -26.027000 -15.805300
H -5.750500 -27.257000 -13.807000
H -12.870500 -29.607200 -13.009000
H -12.440800 -31.824500 -13.758700
C -12.161000 -29.848500 -13.559600
N -11.919000 -31.106300 -13.942200
N -11.274900 -28.972200 -14.051800
C -10.792500 -31.062800 -14.739400
C -10.424900 -29.746900 -14.785300
O -10.351300 -33.292700 -15.407900
C -10.082000 -32.091900 -15.410400
H -9.610400 -27.426400 -16.036100
N -9.327100 -29.331700 -15.497600
N -8.971100 -31.598100 -16.100900
C -8.945500 -27.918900 -15.550100
H -8.879600 -27.572600 -14.657300
C -8.582100 -30.256100 -16.196000
H -8.392000 -33.450500 -16.594500
H -8.270200 -32.434100 -17.781000
C -8.140900 -32.557100 -16.837700
H -8.096800 -27.833400 -15.990700
O -7.612700 -29.933900 -16.863000
H -7.217000 -32.414100 -16.620600
