8
Fragment
H -6.688600 -22.570000 -15.179100
O -6.496400 -23.800000 -13.180900
O -6.492500 -23.434800 -15.383600
C -6.377300 -24.177400 -14.315200
C -6.061800 -25.649600 -14.670900
O -5.946600 -26.392200 -13.602500
O -5.942700 -26.027000 -15.805300
H -5.750500 -27.257000 -13.807000
21
Fragment
H -7.050000 -29.607200 -13.009000
H -6.620300 -31.824500 -13.758700
C -6.340500 -29.848500 -13.559600
N -6.098500 -31.106300 -13.942200
N -5.454400 -28.972200 -14.051800
C -4.972000 -31.062800 -14.739400
C -4.604400 -29.746900 -14.785300
O -4.530800 -33.292700 -15.407900
C -4.261500 -32.091900 -15.410400
H -3.789900 -27.426400 -16.036100
N -3.506600 -29.331700 -15.497600
N -3.150600 -31.598100 -16.100900
C -3.125000 -27.918900 -15.550100
H -3.059100 -27.572600 -14.657300
C -2.761600 -30.256100 -16.196000
H -2.571500 -33.450500 -16.594500
H -2.449700 -32.434100 -17.781000
C -2.320400 -32.557100 -16.837700
H -2.276300 -27.833400 -15.990700
O -1.792200 -29.933900 -16.863000
H -1.396500 -32.414100 -16.620600
29
Fragment
H -6.688600 -22.570000 -15.179100
O -6.496400 -23.800000 -13.180900
O -6.492500 -23.434800 -15.383600
C -6.377300 -24.177400 -14.315200
C -6.061800 -25.649600 -14.670900
O -5.946600 -26.392200 -13.602500
O -5.942700 -26.027000 -15.805300
H -5.750500 -27.257000 -13.807000
H -7.050000 -29.607200 -13.009000
H -6.620300 -31.824500 -13.758700
C -6.340500 -29.848500 -13.559600
N -6.098500 -31.106300 -13.942200
N -5.454400 -28.972200 -14.051800
C -4.972000 -31.062800 -14.739400
C -4.604400 -29.746900 -14.785300
O -4.530800 -33.292700 -15.407900
C -4.261500 -32.091900 -15.410400
H -3.789900 -27.426400 -16.036100
N -3.506600 -29.331700 -15.497600
N -3.150600 -31.598100 -16.100900
C -3.125000 -27.918900 -15.550100
H -3.059100 -27.572600 -14.657300
C -2.761600 -30.256100 -16.196000
H -2.571500 -33.450500 -16.594500
H -2.449700 -32.434100 -17.781000
C -2.320400 -32.557100 -16.837700
H -2.276300 -27.833400 -15.990700
O -1.792200 -29.933900 -16.863000
H -1.396500 -32.414100 -16.620600
