8
Fragment
H -6.688600 -22.570000 -15.179100
O -6.496400 -23.800000 -13.180900
O -6.492500 -23.434800 -15.383600
C -6.377300 -24.177400 -14.315200
C -6.061800 -25.649600 -14.670900
O -5.946600 -26.392200 -13.602500
O -5.942700 -26.027000 -15.805300
H -5.750500 -27.257000 -13.807000
21
Fragment
H -10.205600 -24.109600 -17.196500
O -9.809800 -21.629400 -16.954200
H -9.325800 -19.528900 -17.826500
C -9.281600 -24.252600 -16.979400
H -9.152300 -24.129600 -16.036100
H -9.030500 -25.146000 -17.222600
C -8.840400 -21.951600 -17.621100
H -8.543000 -19.268100 -19.159800
C -8.477000 -19.614400 -18.267000
N -8.451400 -23.293600 -17.716200
N -8.095400 -21.027200 -18.319500
H -7.812200 -19.121900 -17.781000
C -7.340500 -23.787400 -18.406800
O -7.071200 -24.988200 -18.409200
C -6.997700 -21.442400 -19.031800
C -6.630000 -22.758300 -19.077700
N -6.147700 -20.667700 -19.765300
N -5.503600 -22.801800 -19.874900
C -5.261500 -21.544000 -20.257500
H -4.981700 -23.520000 -20.058400
H -4.552000 -21.302700 -20.808200
29
Fragment
H -6.688600 -22.570000 -15.179100
O -6.496400 -23.800000 -13.180900
O -6.492500 -23.434800 -15.383600
C -6.377300 -24.177400 -14.315200
C -6.061800 -25.649600 -14.670900
O -5.946600 -26.392200 -13.602500
O -5.942700 -26.027000 -15.805300
H -5.750500 -27.257000 -13.807000
H -10.205600 -24.109600 -17.196500
O -9.809800 -21.629400 -16.954200
H -9.325800 -19.528900 -17.826500
C -9.281600 -24.252600 -16.979400
H -9.152300 -24.129600 -16.036100
H -9.030500 -25.146000 -17.222600
C -8.840400 -21.951600 -17.621100
H -8.543000 -19.268100 -19.159800
C -8.477000 -19.614400 -18.267000
N -8.451400 -23.293600 -17.716200
N -8.095400 -21.027200 -18.319500
H -7.812200 -19.121900 -17.781000
C -7.340500 -23.787400 -18.406800
O -7.071200 -24.988200 -18.409200
C -6.997700 -21.442400 -19.031800
C -6.630000 -22.758300 -19.077700
N -6.147700 -20.667700 -19.765300
N -5.503600 -22.801800 -19.874900
C -5.261500 -21.544000 -20.257500
H -4.981700 -23.520000 -20.058400
H -4.552000 -21.302700 -20.808200
