8
Fragment
H -6.688600 -22.570000 -15.179100
O -6.496400 -23.800000 -13.180900
O -6.492500 -23.434800 -15.383600
C -6.377300 -24.177400 -14.315200
C -6.061800 -25.649600 -14.670900
O -5.946600 -26.392200 -13.602500
O -5.942700 -26.027000 -15.805300
H -5.750500 -27.257000 -13.807000
21
Fragment
H -5.222100 -17.412900 -12.365500
O -4.826400 -19.893100 -12.123100
H -4.342300 -21.993600 -12.995400
C -4.298200 -17.269900 -12.148400
H -4.168900 -17.392900 -11.205100
H -4.047100 -16.376500 -12.391600
C -3.857000 -19.570900 -12.790100
H -3.559500 -22.254400 -14.328800
C -3.493600 -21.908100 -13.436000
N -3.468000 -18.228900 -12.885200
N -3.112000 -20.495300 -13.488500
H -2.828700 -22.400600 -12.950000
C -2.357100 -17.735100 -13.575700
O -2.087800 -16.534300 -13.578200
C -2.014200 -20.080100 -14.200800
C -1.646600 -18.764200 -14.246700
N -1.164200 -20.854800 -14.934300
N -0.520100 -18.720700 -15.043900
C -0.278100 -19.978500 -15.426500
H 0.001700 -18.002500 -15.227400
H 0.431400 -20.219800 -15.977100
29
Fragment
H -6.688600 -22.570000 -15.179100
O -6.496400 -23.800000 -13.180900
O -6.492500 -23.434800 -15.383600
C -6.377300 -24.177400 -14.315200
C -6.061800 -25.649600 -14.670900
O -5.946600 -26.392200 -13.602500
O -5.942700 -26.027000 -15.805300
H -5.750500 -27.257000 -13.807000
H -5.222100 -17.412900 -12.365500
O -4.826400 -19.893100 -12.123100
H -4.342300 -21.993600 -12.995400
C -4.298200 -17.269900 -12.148400
H -4.168900 -17.392900 -11.205100
H -4.047100 -16.376500 -12.391600
C -3.857000 -19.570900 -12.790100
H -3.559500 -22.254400 -14.328800
C -3.493600 -21.908100 -13.436000
N -3.468000 -18.228900 -12.885200
N -3.112000 -20.495300 -13.488500
H -2.828700 -22.400600 -12.950000
C -2.357100 -17.735100 -13.575700
O -2.087800 -16.534300 -13.578200
C -2.014200 -20.080100 -14.200800
C -1.646600 -18.764200 -14.246700
N -1.164200 -20.854800 -14.934300
N -0.520100 -18.720700 -15.043900
C -0.278100 -19.978500 -15.426500
H 0.001700 -18.002500 -15.227400
H 0.431400 -20.219800 -15.977100
