21
Fragment
H -20.010900 -17.682500 -13.624000
H -19.565400 -16.813800 -14.952200
H -19.496300 -16.226000 -13.467800
C -19.446000 -17.048500 -13.953100
N -18.341100 -19.149900 -15.672000
N -18.081100 -17.586700 -13.818400
H -17.672000 -20.635100 -16.925000
C -17.652400 -18.596000 -14.633900
O -17.565400 -16.194700 -12.090700
C -17.497800 -20.059100 -16.172100
C -17.246000 -17.107600 -12.827100
C -16.412800 -19.159600 -14.510800
N -16.339800 -20.103600 -15.510900
N -15.980100 -17.708400 -12.728400
H -15.681400 -20.662000 -15.674900
C -15.491900 -18.760800 -13.512700
H -15.438800 -17.286400 -10.811300
C -15.118600 -17.168400 -11.670800
H -14.963500 -16.198200 -11.778200
O -14.366800 -19.226700 -13.317400
H -14.310200 -17.601500 -11.612200
21
Fragment
H -27.981600 -17.682500 -13.624000
H -27.536100 -16.813800 -14.952200
H -27.467000 -16.226000 -13.467800
C -27.416700 -17.048500 -13.953100
N -26.311800 -19.149900 -15.672000
N -26.051800 -17.586700 -13.818400
H -25.642700 -20.635100 -16.925000
C -25.623100 -18.596000 -14.633900
O -25.536100 -16.194700 -12.090700
C -25.468500 -20.059100 -16.172100
C -25.216700 -17.107600 -12.827100
C -24.383500 -19.159600 -14.510800
N -24.310500 -20.103600 -15.510900
N -23.950800 -17.708400 -12.728400
H -23.652100 -20.662000 -15.674900
C -23.462600 -18.760800 -13.512700
H -23.409500 -17.286400 -10.811300
C -23.089300 -17.168400 -11.670800
H -22.934200 -16.198200 -11.778200
O -22.337500 -19.226700 -13.317400
H -22.280900 -17.601500 -11.612200
42
Fragment
H -20.010900 -17.682500 -13.624000
H -19.565400 -16.813800 -14.952200
H -19.496300 -16.226000 -13.467800
C -19.446000 -17.048500 -13.953100
N -18.341100 -19.149900 -15.672000
N -18.081100 -17.586700 -13.818400
H -17.672000 -20.635100 -16.925000
C -17.652400 -18.596000 -14.633900
O -17.565400 -16.194700 -12.090700
C -17.497800 -20.059100 -16.172100
C -17.246000 -17.107600 -12.827100
C -16.412800 -19.159600 -14.510800
N -16.339800 -20.103600 -15.510900
N -15.980100 -17.708400 -12.728400
H -15.681400 -20.662000 -15.674900
C -15.491900 -18.760800 -13.512700
H -15.438800 -17.286400 -10.811300
C -15.118600 -17.168400 -11.670800
H -14.963500 -16.198200 -11.778200
O -14.366800 -19.226700 -13.317400
H -14.310200 -17.601500 -11.612200
H -27.981600 -17.682500 -13.624000
H -27.536100 -16.813800 -14.952200
H -27.467000 -16.226000 -13.467800
C -27.416700 -17.048500 -13.953100
N -26.311800 -19.149900 -15.672000
N -26.051800 -17.586700 -13.818400
H -25.642700 -20.635100 -16.925000
C -25.623100 -18.596000 -14.633900
O -25.536100 -16.194700 -12.090700
C -25.468500 -20.059100 -16.172100
C -25.216700 -17.107600 -12.827100
C -24.383500 -19.159600 -14.510800
N -24.310500 -20.103600 -15.510900
N -23.950800 -17.708400 -12.728400
H -23.652100 -20.662000 -15.674900
C -23.462600 -18.760800 -13.512700
H -23.409500 -17.286400 -10.811300
C -23.089300 -17.168400 -11.670800
H -22.934200 -16.198200 -11.778200
O -22.337500 -19.226700 -13.317400
H -22.280900 -17.601500 -11.612200
