21
Fragment
H -20.010900 -17.682500 -13.624000
H -19.565400 -16.813800 -14.952200
H -19.496300 -16.226000 -13.467800
C -19.446000 -17.048500 -13.953100
N -18.341100 -19.149900 -15.672000
N -18.081100 -17.586700 -13.818400
H -17.672000 -20.635100 -16.925000
C -17.652400 -18.596000 -14.633900
O -17.565400 -16.194700 -12.090700
C -17.497800 -20.059100 -16.172100
C -17.246000 -17.107600 -12.827100
C -16.412800 -19.159600 -14.510800
N -16.339800 -20.103600 -15.510900
N -15.980100 -17.708400 -12.728400
H -15.681400 -20.662000 -15.674900
C -15.491900 -18.760800 -13.512700
H -15.438800 -17.286400 -10.811300
C -15.118600 -17.168400 -11.670800
H -14.963500 -16.198200 -11.778200
O -14.366800 -19.226700 -13.317400
H -14.310200 -17.601500 -11.612200
21
Fragment
H -14.345900 -23.564900 -17.686800
O -14.289300 -21.939700 -15.981600
H -13.692600 -24.968200 -17.520800
C -13.537500 -23.998000 -17.628200
H -13.217400 -23.880000 -18.487600
C -13.164200 -22.405600 -15.786300
H -12.974700 -20.504400 -13.624000
N -12.676100 -23.458000 -16.570500
N -12.316300 -21.062800 -13.788100
C -12.243300 -22.006900 -14.788200
C -11.410100 -24.058800 -16.471900
C -11.158300 -21.107300 -13.126900
O -11.090800 -24.971700 -17.208300
C -11.003700 -22.570400 -14.665100
H -10.984100 -20.531300 -12.373900
N -10.575000 -23.579700 -15.480600
N -10.315000 -22.016500 -13.626900
C -9.210100 -24.117900 -15.345800
H -9.159800 -24.940400 -15.831200
H -9.090800 -24.352600 -14.346700
H -8.645300 -23.483900 -15.674900
42
Fragment
H -20.010900 -17.682500 -13.624000
H -19.565400 -16.813800 -14.952200
H -19.496300 -16.226000 -13.467800
C -19.446000 -17.048500 -13.953100
N -18.341100 -19.149900 -15.672000
N -18.081100 -17.586700 -13.818400
H -17.672000 -20.635100 -16.925000
C -17.652400 -18.596000 -14.633900
O -17.565400 -16.194700 -12.090700
C -17.497800 -20.059100 -16.172100
C -17.246000 -17.107600 -12.827100
C -16.412800 -19.159600 -14.510800
N -16.339800 -20.103600 -15.510900
N -15.980100 -17.708400 -12.728400
H -15.681400 -20.662000 -15.674900
C -15.491900 -18.760800 -13.512700
H -15.438800 -17.286400 -10.811300
C -15.118600 -17.168400 -11.670800
H -14.963500 -16.198200 -11.778200
O -14.366800 -19.226700 -13.317400
H -14.310200 -17.601500 -11.612200
H -14.345900 -23.564900 -17.686800
O -14.289300 -21.939700 -15.981600
H -13.692600 -24.968200 -17.520800
C -13.537500 -23.998000 -17.628200
H -13.217400 -23.880000 -18.487600
C -13.164200 -22.405600 -15.786300
H -12.974700 -20.504400 -13.624000
N -12.676100 -23.458000 -16.570500
N -12.316300 -21.062800 -13.788100
C -12.243300 -22.006900 -14.788200
C -11.410100 -24.058800 -16.471900
C -11.158300 -21.107300 -13.126900
O -11.090800 -24.971700 -17.208300
C -11.003700 -22.570400 -14.665100
H -10.984100 -20.531300 -12.373900
N -10.575000 -23.579700 -15.480600
N -10.315000 -22.016500 -13.626900
C -9.210100 -24.117900 -15.345800
H -9.159800 -24.940400 -15.831200
H -9.090800 -24.352600 -14.346700
H -8.645300 -23.483900 -15.674900
