21
Fragment
H -20.010900 -17.682500 -13.624000
H -19.565400 -16.813800 -14.952200
H -19.496300 -16.226000 -13.467800
C -19.446000 -17.048500 -13.953100
N -18.341100 -19.149900 -15.672000
N -18.081100 -17.586700 -13.818400
H -17.672000 -20.635100 -16.925000
C -17.652400 -18.596000 -14.633900
O -17.565400 -16.194700 -12.090700
C -17.497800 -20.059100 -16.172100
C -17.246000 -17.107600 -12.827100
C -16.412800 -19.159600 -14.510800
N -16.339800 -20.103600 -15.510900
N -15.980100 -17.708400 -12.728400
H -15.681400 -20.662000 -15.674900
C -15.491900 -18.760800 -13.512700
H -15.438800 -17.286400 -10.811300
C -15.118600 -17.168400 -11.670800
H -14.963500 -16.198200 -11.778200
O -14.366800 -19.226700 -13.317400
H -14.310200 -17.601500 -11.612200
12
Fragment
H -12.618000 -16.799000 -9.727300
O -12.013700 -18.625000 -11.175600
C -11.745300 -17.073600 -9.438200
H -11.633800 -15.729400 -7.988900
C -11.278700 -18.184700 -10.306400
C -11.174900 -16.426800 -8.431300
O -10.072100 -18.694100 -10.157000
C -9.840300 -16.633300 -7.841400
H -9.749600 -18.262800 -9.405000
O -9.613600 -15.895500 -6.796400
O -8.991300 -17.414000 -8.267200
H -8.617900 -15.989400 -6.475100
33
Fragment
H -20.010900 -17.682500 -13.624000
H -19.565400 -16.813800 -14.952200
H -19.496300 -16.226000 -13.467800
C -19.446000 -17.048500 -13.953100
N -18.341100 -19.149900 -15.672000
N -18.081100 -17.586700 -13.818400
H -17.672000 -20.635100 -16.925000
C -17.652400 -18.596000 -14.633900
O -17.565400 -16.194700 -12.090700
C -17.497800 -20.059100 -16.172100
C -17.246000 -17.107600 -12.827100
C -16.412800 -19.159600 -14.510800
N -16.339800 -20.103600 -15.510900
N -15.980100 -17.708400 -12.728400
H -15.681400 -20.662000 -15.674900
C -15.491900 -18.760800 -13.512700
H -15.438800 -17.286400 -10.811300
C -15.118600 -17.168400 -11.670800
H -14.963500 -16.198200 -11.778200
O -14.366800 -19.226700 -13.317400
H -14.310200 -17.601500 -11.612200
H -12.618000 -16.799000 -9.727300
O -12.013700 -18.625000 -11.175600
C -11.745300 -17.073600 -9.438200
H -11.633800 -15.729400 -7.988900
C -11.278700 -18.184700 -10.306400
C -11.174900 -16.426800 -8.431300
O -10.072100 -18.694100 -10.157000
C -9.840300 -16.633300 -7.841400
H -9.749600 -18.262800 -9.405000
O -9.613600 -15.895500 -6.796400
O -8.991300 -17.414000 -8.267200
H -8.617900 -15.989400 -6.475100
