21
Fragment
H -23.068800 -11.759800 -24.520800
H -22.962300 -13.900400 -23.412400
N -22.400800 -12.447100 -24.701700
C -22.350700 -13.630100 -24.086800
O -21.432300 -10.327800 -26.710300
C -21.360200 -12.423200 -25.609900
N -21.338800 -14.395600 -24.526200
C -20.929700 -11.438500 -26.531900
C -20.736100 -13.628500 -25.471300
N -19.811400 -11.847600 -27.267700
H -19.728100 -10.064600 -28.215800
H -19.674300 -15.958000 -26.521900
N -19.634500 -13.966500 -26.215000
H -19.477300 -11.311900 -29.188300
C -19.291800 -10.938300 -28.301000
C -19.153300 -13.081700 -27.157800
C -19.059400 -15.309400 -26.118800
H -18.916100 -15.536900 -25.175900
H -18.325000 -10.833000 -28.186900
H -18.203100 -15.333100 -26.594900
O -18.196900 -13.347300 -27.866500
21
Fragment
H -20.685900 -13.403900 -33.007200
H -20.579400 -11.263300 -31.898900
N -20.017900 -12.716600 -33.188200
C -19.967800 -11.533600 -32.573200
O -19.049500 -14.835900 -35.196700
C -18.977400 -12.740500 -34.096400
N -18.955900 -10.768100 -33.012700
C -18.546800 -13.725200 -35.018300
C -18.353200 -11.535200 -33.957700
N -17.428500 -13.316100 -35.754100
H -17.345200 -15.099100 -36.702200
H -17.291400 -9.205700 -35.008300
N -17.251600 -11.197200 -34.701500
H -17.094500 -13.851800 -37.674800
C -16.908900 -14.225400 -36.787400
C -16.770400 -12.082000 -35.644300
C -16.676500 -9.854300 -34.605200
H -16.533200 -9.626800 -33.662400
H -15.942100 -14.330700 -36.673400
H -15.820200 -9.830600 -35.081300
O -15.814000 -11.816400 -36.352900
42
Fragment
H -23.068800 -11.759800 -24.520800
H -22.962300 -13.900400 -23.412400
N -22.400800 -12.447100 -24.701700
C -22.350700 -13.630100 -24.086800
O -21.432300 -10.327800 -26.710300
C -21.360200 -12.423200 -25.609900
N -21.338800 -14.395600 -24.526200
C -20.929700 -11.438500 -26.531900
C -20.736100 -13.628500 -25.471300
N -19.811400 -11.847600 -27.267700
H -19.728100 -10.064600 -28.215800
H -19.674300 -15.958000 -26.521900
N -19.634500 -13.966500 -26.215000
H -19.477300 -11.311900 -29.188300
C -19.291800 -10.938300 -28.301000
C -19.153300 -13.081700 -27.157800
C -19.059400 -15.309400 -26.118800
H -18.916100 -15.536900 -25.175900
H -18.325000 -10.833000 -28.186900
H -18.203100 -15.333100 -26.594900
O -18.196900 -13.347300 -27.866500
H -20.685900 -13.403900 -33.007200
H -20.579400 -11.263300 -31.898900
N -20.017900 -12.716600 -33.188200
C -19.967800 -11.533600 -32.573200
O -19.049500 -14.835900 -35.196700
C -18.977400 -12.740500 -34.096400
N -18.955900 -10.768100 -33.012700
C -18.546800 -13.725200 -35.018300
C -18.353200 -11.535200 -33.957700
N -17.428500 -13.316100 -35.754100
H -17.345200 -15.099100 -36.702200
H -17.291400 -9.205700 -35.008300
N -17.251600 -11.197200 -34.701500
H -17.094500 -13.851800 -37.674800
C -16.908900 -14.225400 -36.787400
C -16.770400 -12.082000 -35.644300
C -16.676500 -9.854300 -34.605200
H -16.533200 -9.626800 -33.662400
H -15.942100 -14.330700 -36.673400
H -15.820200 -9.830600 -35.081300
O -15.814000 -11.816400 -36.352900
