21
Fragment
H -20.010900 -17.682500 -13.624000
H -19.565400 -16.813800 -14.952200
H -19.496300 -16.226000 -13.467800
C -19.446000 -17.048500 -13.953100
N -18.341100 -19.149900 -15.672000
N -18.081100 -17.586700 -13.818400
H -17.672000 -20.635100 -16.925000
C -17.652400 -18.596000 -14.633900
O -17.565400 -16.194700 -12.090700
C -17.497800 -20.059100 -16.172100
C -17.246000 -17.107600 -12.827100
C -16.412800 -19.159600 -14.510800
N -16.339800 -20.103600 -15.510900
N -15.980100 -17.708400 -12.728400
H -15.681400 -20.662000 -15.674900
C -15.491900 -18.760800 -13.512700
H -15.438800 -17.286400 -10.811300
C -15.118600 -17.168400 -11.670800
H -14.963500 -16.198200 -11.778200
O -14.366800 -19.226700 -13.317400
H -14.310200 -17.601500 -11.612200
21
Fragment
H -27.517200 -15.409200 -17.686800
O -27.460700 -13.784000 -15.981600
H -26.863900 -16.812500 -17.520800
C -26.708800 -15.842300 -17.628200
H -26.388700 -15.724300 -18.487600
C -26.335500 -14.249800 -15.786300
H -26.146000 -12.348700 -13.624000
N -25.847400 -15.302300 -16.570500
N -25.487700 -12.907100 -13.788100
C -25.414600 -13.851100 -14.788200
C -24.581400 -15.903100 -16.471900
C -24.329700 -12.951600 -13.126900
O -24.262100 -16.816000 -17.208300
C -24.175000 -14.414700 -14.665100
H -24.155500 -12.375600 -12.373900
N -23.746300 -15.424000 -15.480600
N -23.486300 -13.860800 -13.626900
C -22.381500 -15.962200 -15.345800
H -22.331100 -16.784700 -15.831200
H -22.262100 -16.196900 -14.346700
H -21.816600 -15.328200 -15.674900
42
Fragment
H -20.010900 -17.682500 -13.624000
H -19.565400 -16.813800 -14.952200
H -19.496300 -16.226000 -13.467800
C -19.446000 -17.048500 -13.953100
N -18.341100 -19.149900 -15.672000
N -18.081100 -17.586700 -13.818400
H -17.672000 -20.635100 -16.925000
C -17.652400 -18.596000 -14.633900
O -17.565400 -16.194700 -12.090700
C -17.497800 -20.059100 -16.172100
C -17.246000 -17.107600 -12.827100
C -16.412800 -19.159600 -14.510800
N -16.339800 -20.103600 -15.510900
N -15.980100 -17.708400 -12.728400
H -15.681400 -20.662000 -15.674900
C -15.491900 -18.760800 -13.512700
H -15.438800 -17.286400 -10.811300
C -15.118600 -17.168400 -11.670800
H -14.963500 -16.198200 -11.778200
O -14.366800 -19.226700 -13.317400
H -14.310200 -17.601500 -11.612200
H -27.517200 -15.409200 -17.686800
O -27.460700 -13.784000 -15.981600
H -26.863900 -16.812500 -17.520800
C -26.708800 -15.842300 -17.628200
H -26.388700 -15.724300 -18.487600
C -26.335500 -14.249800 -15.786300
H -26.146000 -12.348700 -13.624000
N -25.847400 -15.302300 -16.570500
N -25.487700 -12.907100 -13.788100
C -25.414600 -13.851100 -14.788200
C -24.581400 -15.903100 -16.471900
C -24.329700 -12.951600 -13.126900
O -24.262100 -16.816000 -17.208300
C -24.175000 -14.414700 -14.665100
H -24.155500 -12.375600 -12.373900
N -23.746300 -15.424000 -15.480600
N -23.486300 -13.860800 -13.626900
C -22.381500 -15.962200 -15.345800
H -22.331100 -16.784700 -15.831200
H -22.262100 -16.196900 -14.346700
H -21.816600 -15.328200 -15.674900
