21
Fragment
H -7.893900 -32.748600 -24.180500
O -7.351500 -32.350900 -21.674900
C -6.929600 -32.910800 -24.247300
H -6.793700 -31.055400 -19.805000
H -6.712300 -33.767400 -23.823100
H -6.667300 -32.937700 -25.191200
C -6.509200 -31.658300 -22.209400
N -6.202400 -31.828200 -23.567200
H -6.164900 -29.585000 -19.870600
C -6.016700 -30.528900 -20.085900
N -5.825300 -30.675200 -21.523800
C -5.259300 -31.105700 -24.300800
H -5.217700 -30.848500 -19.616800
O -5.077400 -31.321800 -25.496700
C -4.873400 -29.946900 -22.180100
C -4.590900 -30.135400 -23.498600
N -4.078900 -28.971400 -21.643500
N -3.578200 -29.244600 -23.795800
C -3.313500 -28.585800 -22.664800
H -3.169100 -29.133300 -24.567000
H -2.646800 -27.911700 -22.595100
17
Fragment
O -1.778200 -22.049000 -26.577800
H -1.720100 -21.695800 -27.361400
H -1.498400 -24.306300 -25.181000
H -1.136900 -25.750800 -20.958600
H -1.025200 -22.975200 -24.440100
O -0.970700 -26.309700 -23.242300
C -0.785200 -23.620600 -25.151100
C -0.774400 -22.898400 -26.457900
O -0.512300 -25.215600 -21.340900
C -0.375100 -25.437000 -22.649900
O 0.048300 -23.035100 -27.335200
C 0.517500 -24.301300 -24.758700
H 0.521500 -23.621800 -22.816800
H 0.576300 -25.179800 -25.211600
C 0.617200 -24.504900 -23.255900
H 1.279400 -23.749200 -25.064300
H 1.524600 -24.841500 -23.048700
38
Fragment
H -7.893900 -32.748600 -24.180500
O -7.351500 -32.350900 -21.674900
C -6.929600 -32.910800 -24.247300
H -6.793700 -31.055400 -19.805000
H -6.712300 -33.767400 -23.823100
H -6.667300 -32.937700 -25.191200
C -6.509200 -31.658300 -22.209400
N -6.202400 -31.828200 -23.567200
H -6.164900 -29.585000 -19.870600
C -6.016700 -30.528900 -20.085900
N -5.825300 -30.675200 -21.523800
C -5.259300 -31.105700 -24.300800
H -5.217700 -30.848500 -19.616800
O -5.077400 -31.321800 -25.496700
C -4.873400 -29.946900 -22.180100
C -4.590900 -30.135400 -23.498600
N -4.078900 -28.971400 -21.643500
N -3.578200 -29.244600 -23.795800
C -3.313500 -28.585800 -22.664800
H -3.169100 -29.133300 -24.567000
H -2.646800 -27.911700 -22.595100
O -1.778200 -22.049000 -26.577800
H -1.720100 -21.695800 -27.361400
H -1.498400 -24.306300 -25.181000
H -1.136900 -25.750800 -20.958600
H -1.025200 -22.975200 -24.440100
O -0.970700 -26.309700 -23.242300
C -0.785200 -23.620600 -25.151100
C -0.774400 -22.898400 -26.457900
O -0.512300 -25.215600 -21.340900
C -0.375100 -25.437000 -22.649900
O 0.048300 -23.035100 -27.335200
C 0.517500 -24.301300 -24.758700
H 0.521500 -23.621800 -22.816800
H 0.576300 -25.179800 -25.211600
C 0.617200 -24.504900 -23.255900
H 1.279400 -23.749200 -25.064300
H 1.524600 -24.841500 -23.048700
