21
Fragment
H -20.010900 -17.682500 -13.624000
H -19.565400 -16.813800 -14.952200
H -19.496300 -16.226000 -13.467800
C -19.446000 -17.048500 -13.953100
N -18.341100 -19.149900 -15.672000
N -18.081100 -17.586700 -13.818400
H -17.672000 -20.635100 -16.925000
C -17.652400 -18.596000 -14.633900
O -17.565400 -16.194700 -12.090700
C -17.497800 -20.059100 -16.172100
C -17.246000 -17.107600 -12.827100
C -16.412800 -19.159600 -14.510800
N -16.339800 -20.103600 -15.510900
N -15.980100 -17.708400 -12.728400
H -15.681400 -20.662000 -15.674900
C -15.491900 -18.760800 -13.512700
H -15.438800 -17.286400 -10.811300
C -15.118600 -17.168400 -11.670800
H -14.963500 -16.198200 -11.778200
O -14.366800 -19.226700 -13.317400
H -14.310200 -17.601500 -11.612200
12
Fragment
H -14.066400 -14.173500 -13.057600
O -13.693000 -12.748900 -11.265500
O -13.070700 -14.267400 -12.736300
H -12.934800 -11.900000 -10.127700
C -12.844100 -13.529600 -11.691300
O -12.612200 -11.468700 -9.375700
C -11.509500 -13.736000 -11.101400
C -11.405600 -11.978100 -9.226200
H -11.050500 -14.433500 -11.543800
C -10.939100 -13.089200 -10.094500
O -10.670600 -11.537900 -8.357000
H -10.066300 -13.363800 -9.805400
33
Fragment
H -20.010900 -17.682500 -13.624000
H -19.565400 -16.813800 -14.952200
H -19.496300 -16.226000 -13.467800
C -19.446000 -17.048500 -13.953100
N -18.341100 -19.149900 -15.672000
N -18.081100 -17.586700 -13.818400
H -17.672000 -20.635100 -16.925000
C -17.652400 -18.596000 -14.633900
O -17.565400 -16.194700 -12.090700
C -17.497800 -20.059100 -16.172100
C -17.246000 -17.107600 -12.827100
C -16.412800 -19.159600 -14.510800
N -16.339800 -20.103600 -15.510900
N -15.980100 -17.708400 -12.728400
H -15.681400 -20.662000 -15.674900
C -15.491900 -18.760800 -13.512700
H -15.438800 -17.286400 -10.811300
C -15.118600 -17.168400 -11.670800
H -14.963500 -16.198200 -11.778200
O -14.366800 -19.226700 -13.317400
H -14.310200 -17.601500 -11.612200
H -14.066400 -14.173500 -13.057600
O -13.693000 -12.748900 -11.265500
O -13.070700 -14.267400 -12.736300
H -12.934800 -11.900000 -10.127700
C -12.844100 -13.529600 -11.691300
O -12.612200 -11.468700 -9.375700
C -11.509500 -13.736000 -11.101400
C -11.405600 -11.978100 -9.226200
H -11.050500 -14.433500 -11.543800
C -10.939100 -13.089200 -10.094500
O -10.670600 -11.537900 -8.357000
H -10.066300 -13.363800 -9.805400
