21
Fragment
H -7.893900 -32.748600 -24.180500
O -7.351500 -32.350900 -21.674900
C -6.929600 -32.910800 -24.247300
H -6.793700 -31.055400 -19.805000
H -6.712300 -33.767400 -23.823100
H -6.667300 -32.937700 -25.191200
C -6.509200 -31.658300 -22.209400
N -6.202400 -31.828200 -23.567200
H -6.164900 -29.585000 -19.870600
C -6.016700 -30.528900 -20.085900
N -5.825300 -30.675200 -21.523800
C -5.259300 -31.105700 -24.300800
H -5.217700 -30.848500 -19.616800
O -5.077400 -31.321800 -25.496700
C -4.873400 -29.946900 -22.180100
C -4.590900 -30.135400 -23.498600
N -4.078900 -28.971400 -21.643500
N -3.578200 -29.244600 -23.795800
C -3.313500 -28.585800 -22.664800
H -3.169100 -29.133300 -24.567000
H -2.646800 -27.911700 -22.595100
17
Fragment
H -4.250300 -34.790100 -27.998800
H -4.005100 -33.697700 -25.983200
C -3.342800 -34.453400 -27.791500
H -3.302000 -35.128300 -25.835800
H -3.247200 -33.570400 -28.230700
C -3.243200 -34.249900 -26.288700
O -2.774000 -32.983600 -23.712300
C -2.350500 -35.385600 -28.397600
O -2.213400 -35.164100 -29.706600
C -1.951300 -32.846900 -24.589600
C -1.940500 -33.569200 -25.896400
O -1.754900 -36.258300 -27.805100
H -1.700500 -32.923700 -26.607400
H -1.588800 -35.699400 -30.088800
H -1.227300 -34.254800 -25.866500
H -1.005500 -31.644300 -23.686000
O -0.947500 -31.997500 -24.469700
38
Fragment
H -7.893900 -32.748600 -24.180500
O -7.351500 -32.350900 -21.674900
C -6.929600 -32.910800 -24.247300
H -6.793700 -31.055400 -19.805000
H -6.712300 -33.767400 -23.823100
H -6.667300 -32.937700 -25.191200
C -6.509200 -31.658300 -22.209400
N -6.202400 -31.828200 -23.567200
H -6.164900 -29.585000 -19.870600
C -6.016700 -30.528900 -20.085900
N -5.825300 -30.675200 -21.523800
C -5.259300 -31.105700 -24.300800
H -5.217700 -30.848500 -19.616800
O -5.077400 -31.321800 -25.496700
C -4.873400 -29.946900 -22.180100
C -4.590900 -30.135400 -23.498600
N -4.078900 -28.971400 -21.643500
N -3.578200 -29.244600 -23.795800
C -3.313500 -28.585800 -22.664800
H -3.169100 -29.133300 -24.567000
H -2.646800 -27.911700 -22.595100
H -4.250300 -34.790100 -27.998800
H -4.005100 -33.697700 -25.983200
C -3.342800 -34.453400 -27.791500
H -3.302000 -35.128300 -25.835800
H -3.247200 -33.570400 -28.230700
C -3.243200 -34.249900 -26.288700
O -2.774000 -32.983600 -23.712300
C -2.350500 -35.385600 -28.397600
O -2.213400 -35.164100 -29.706600
C -1.951300 -32.846900 -24.589600
C -1.940500 -33.569200 -25.896400
O -1.754900 -36.258300 -27.805100
H -1.700500 -32.923700 -26.607400
H -1.588800 -35.699400 -30.088800
H -1.227300 -34.254800 -25.866500
H -1.005500 -31.644300 -23.686000
O -0.947500 -31.997500 -24.469700
