21
Fragment
H -23.068800 -11.759800 -24.520800
H -22.962300 -13.900400 -23.412400
N -22.400800 -12.447100 -24.701700
C -22.350700 -13.630100 -24.086800
O -21.432300 -10.327800 -26.710300
C -21.360200 -12.423200 -25.609900
N -21.338800 -14.395600 -24.526200
C -20.929700 -11.438500 -26.531900
C -20.736100 -13.628500 -25.471300
N -19.811400 -11.847600 -27.267700
H -19.728100 -10.064600 -28.215800
H -19.674300 -15.958000 -26.521900
N -19.634500 -13.966500 -26.215000
H -19.477300 -11.311900 -29.188300
C -19.291800 -10.938300 -28.301000
C -19.153300 -13.081700 -27.157800
C -19.059400 -15.309400 -26.118800
H -18.916100 -15.536900 -25.175900
H -18.325000 -10.833000 -28.186900
H -18.203100 -15.333100 -26.594900
O -18.196900 -13.347300 -27.866500
21
Fragment
O -19.070500 -20.204300 -23.052300
H -19.064200 -18.218500 -24.323900
H -18.942300 -22.718600 -22.731800
H -18.351300 -18.014700 -25.742800
C -18.207900 -18.242200 -24.800000
C -18.114000 -20.469900 -23.760900
C -17.975500 -22.613300 -22.617800
H -17.790000 -22.239700 -21.730400
N -17.632900 -19.585100 -24.703700
H -17.593000 -17.593600 -24.396900
H -17.539300 -23.487000 -22.703000
N -17.455900 -21.704000 -23.651100
C -16.531300 -19.923100 -25.447500
C -16.337700 -22.113100 -24.386900
N -15.928500 -19.156000 -26.392500
C -15.907100 -21.128400 -25.308800
O -15.835000 -23.223800 -24.208500
C -14.916700 -19.921500 -26.832000
N -14.866600 -21.104500 -26.217000
H -14.305000 -19.651200 -27.506300
H -14.198500 -21.791800 -26.398000
42
Fragment
H -23.068800 -11.759800 -24.520800
H -22.962300 -13.900400 -23.412400
N -22.400800 -12.447100 -24.701700
C -22.350700 -13.630100 -24.086800
O -21.432300 -10.327800 -26.710300
C -21.360200 -12.423200 -25.609900
N -21.338800 -14.395600 -24.526200
C -20.929700 -11.438500 -26.531900
C -20.736100 -13.628500 -25.471300
N -19.811400 -11.847600 -27.267700
H -19.728100 -10.064600 -28.215800
H -19.674300 -15.958000 -26.521900
N -19.634500 -13.966500 -26.215000
H -19.477300 -11.311900 -29.188300
C -19.291800 -10.938300 -28.301000
C -19.153300 -13.081700 -27.157800
C -19.059400 -15.309400 -26.118800
H -18.916100 -15.536900 -25.175900
H -18.325000 -10.833000 -28.186900
H -18.203100 -15.333100 -26.594900
O -18.196900 -13.347300 -27.866500
O -19.070500 -20.204300 -23.052300
H -19.064200 -18.218500 -24.323900
H -18.942300 -22.718600 -22.731800
H -18.351300 -18.014700 -25.742800
C -18.207900 -18.242200 -24.800000
C -18.114000 -20.469900 -23.760900
C -17.975500 -22.613300 -22.617800
H -17.790000 -22.239700 -21.730400
N -17.632900 -19.585100 -24.703700
H -17.593000 -17.593600 -24.396900
H -17.539300 -23.487000 -22.703000
N -17.455900 -21.704000 -23.651100
C -16.531300 -19.923100 -25.447500
C -16.337700 -22.113100 -24.386900
N -15.928500 -19.156000 -26.392500
C -15.907100 -21.128400 -25.308800
O -15.835000 -23.223800 -24.208500
C -14.916700 -19.921500 -26.832000
N -14.866600 -21.104500 -26.217000
H -14.305000 -19.651200 -27.506300
H -14.198500 -21.791800 -26.398000
