21
Fragment
H -7.893900 -32.748600 -24.180500
O -7.351500 -32.350900 -21.674900
C -6.929600 -32.910800 -24.247300
H -6.793700 -31.055400 -19.805000
H -6.712300 -33.767400 -23.823100
H -6.667300 -32.937700 -25.191200
C -6.509200 -31.658300 -22.209400
N -6.202400 -31.828200 -23.567200
H -6.164900 -29.585000 -19.870600
C -6.016700 -30.528900 -20.085900
N -5.825300 -30.675200 -21.523800
C -5.259300 -31.105700 -24.300800
H -5.217700 -30.848500 -19.616800
O -5.077400 -31.321800 -25.496700
C -4.873400 -29.946900 -22.180100
C -4.590900 -30.135400 -23.498600
N -4.078900 -28.971400 -21.643500
N -3.578200 -29.244600 -23.795800
C -3.313500 -28.585800 -22.664800
H -3.169100 -29.133300 -24.567000
H -2.646800 -27.911700 -22.595100
17
Fragment
H -11.436800 -34.889600 -21.143900
H -11.225700 -33.687800 -19.204100
C -10.544800 -34.491800 -20.977900
H -10.511100 -33.632100 -21.466200
C -10.429700 -34.197700 -19.496300
H -10.414700 -35.052700 -18.995500
O -9.939300 -32.911600 -16.931900
C -9.513400 -35.401500 -21.568300
O -9.406400 -35.234400 -22.884400
C -9.188700 -32.692500 -17.850600
C -9.176900 -33.402300 -19.163400
H -9.033700 -32.732700 -19.877900
O -8.874600 -36.225900 -20.948000
H -8.796900 -35.812800 -23.161000
H -8.402800 -34.020100 -19.176300
O -8.264500 -31.758400 -17.775700
H -8.171100 -31.351900 -16.860200
38
Fragment
H -7.893900 -32.748600 -24.180500
O -7.351500 -32.350900 -21.674900
C -6.929600 -32.910800 -24.247300
H -6.793700 -31.055400 -19.805000
H -6.712300 -33.767400 -23.823100
H -6.667300 -32.937700 -25.191200
C -6.509200 -31.658300 -22.209400
N -6.202400 -31.828200 -23.567200
H -6.164900 -29.585000 -19.870600
C -6.016700 -30.528900 -20.085900
N -5.825300 -30.675200 -21.523800
C -5.259300 -31.105700 -24.300800
H -5.217700 -30.848500 -19.616800
O -5.077400 -31.321800 -25.496700
C -4.873400 -29.946900 -22.180100
C -4.590900 -30.135400 -23.498600
N -4.078900 -28.971400 -21.643500
N -3.578200 -29.244600 -23.795800
C -3.313500 -28.585800 -22.664800
H -3.169100 -29.133300 -24.567000
H -2.646800 -27.911700 -22.595100
H -11.436800 -34.889600 -21.143900
H -11.225700 -33.687800 -19.204100
C -10.544800 -34.491800 -20.977900
H -10.511100 -33.632100 -21.466200
C -10.429700 -34.197700 -19.496300
H -10.414700 -35.052700 -18.995500
O -9.939300 -32.911600 -16.931900
C -9.513400 -35.401500 -21.568300
O -9.406400 -35.234400 -22.884400
C -9.188700 -32.692500 -17.850600
C -9.176900 -33.402300 -19.163400
H -9.033700 -32.732700 -19.877900
O -8.874600 -36.225900 -20.948000
H -8.796900 -35.812800 -23.161000
H -8.402800 -34.020100 -19.176300
O -8.264500 -31.758400 -17.775700
H -8.171100 -31.351900 -16.860200
