21
Fragment
H -23.068800 -11.759800 -24.520800
H -22.962300 -13.900400 -23.412400
N -22.400800 -12.447100 -24.701700
C -22.350700 -13.630100 -24.086800
O -21.432300 -10.327800 -26.710300
C -21.360200 -12.423200 -25.609900
N -21.338800 -14.395600 -24.526200
C -20.929700 -11.438500 -26.531900
C -20.736100 -13.628500 -25.471300
N -19.811400 -11.847600 -27.267700
H -19.728100 -10.064600 -28.215800
H -19.674300 -15.958000 -26.521900
N -19.634500 -13.966500 -26.215000
H -19.477300 -11.311900 -29.188300
C -19.291800 -10.938300 -28.301000
C -19.153300 -13.081700 -27.157800
C -19.059400 -15.309400 -26.118800
H -18.916100 -15.536900 -25.175900
H -18.325000 -10.833000 -28.186900
H -18.203100 -15.333100 -26.594900
O -18.196900 -13.347300 -27.866500
11
Fragment
H -23.932300 -11.986300 -21.071900
O -23.378100 -9.850700 -20.289300
O -23.211400 -11.700100 -21.527100
O -22.882800 -8.027700 -22.533900
C -22.840600 -10.488300 -21.156200
C -21.879400 -8.697100 -22.627100
C -21.633800 -9.993300 -21.908600
H -21.360500 -10.680300 -22.567200
H -21.025800 -7.532300 -23.796000
H -20.885400 -9.871700 -21.272200
O -20.866400 -8.351000 -23.382900
32
Fragment
H -23.068800 -11.759800 -24.520800
H -22.962300 -13.900400 -23.412400
N -22.400800 -12.447100 -24.701700
C -22.350700 -13.630100 -24.086800
O -21.432300 -10.327800 -26.710300
C -21.360200 -12.423200 -25.609900
N -21.338800 -14.395600 -24.526200
C -20.929700 -11.438500 -26.531900
C -20.736100 -13.628500 -25.471300
N -19.811400 -11.847600 -27.267700
H -19.728100 -10.064600 -28.215800
H -19.674300 -15.958000 -26.521900
N -19.634500 -13.966500 -26.215000
H -19.477300 -11.311900 -29.188300
C -19.291800 -10.938300 -28.301000
C -19.153300 -13.081700 -27.157800
C -19.059400 -15.309400 -26.118800
H -18.916100 -15.536900 -25.175900
H -18.325000 -10.833000 -28.186900
H -18.203100 -15.333100 -26.594900
O -18.196900 -13.347300 -27.866500
H -23.932300 -11.986300 -21.071900
O -23.378100 -9.850700 -20.289300
O -23.211400 -11.700100 -21.527100
O -22.882800 -8.027700 -22.533900
C -22.840600 -10.488300 -21.156200
C -21.879400 -8.697100 -22.627100
C -21.633800 -9.993300 -21.908600
H -21.360500 -10.680300 -22.567200
H -21.025800 -7.532300 -23.796000
H -20.885400 -9.871700 -21.272200
O -20.866400 -8.351000 -23.382900
