21
Fragment
H -20.010900 -17.682500 -13.624000
H -19.565400 -16.813800 -14.952200
H -19.496300 -16.226000 -13.467800
C -19.446000 -17.048500 -13.953100
N -18.341100 -19.149900 -15.672000
N -18.081100 -17.586700 -13.818400
H -17.672000 -20.635100 -16.925000
C -17.652400 -18.596000 -14.633900
O -17.565400 -16.194700 -12.090700
C -17.497800 -20.059100 -16.172100
C -17.246000 -17.107600 -12.827100
C -16.412800 -19.159600 -14.510800
N -16.339800 -20.103600 -15.510900
N -15.980100 -17.708400 -12.728400
H -15.681400 -20.662000 -15.674900
C -15.491900 -18.760800 -13.512700
H -15.438800 -17.286400 -10.811300
C -15.118600 -17.168400 -11.670800
H -14.963500 -16.198200 -11.778200
O -14.366800 -19.226700 -13.317400
H -14.310200 -17.601500 -11.612200
12
Fragment
H -20.038200 -25.177100 -22.823900
O -19.664800 -23.752500 -21.031800
O -19.042500 -25.270900 -22.502600
H -18.906500 -22.903600 -19.894000
C -18.815800 -24.533200 -21.457600
O -18.584000 -22.472300 -19.142000
C -17.481300 -24.739600 -20.867700
C -17.377400 -22.981700 -18.992600
H -17.022300 -25.437000 -21.310100
C -16.910900 -24.092800 -19.860800
O -16.642400 -22.541400 -18.123400
H -16.038100 -24.367400 -19.571700
33
Fragment
H -20.010900 -17.682500 -13.624000
H -19.565400 -16.813800 -14.952200
H -19.496300 -16.226000 -13.467800
C -19.446000 -17.048500 -13.953100
N -18.341100 -19.149900 -15.672000
N -18.081100 -17.586700 -13.818400
H -17.672000 -20.635100 -16.925000
C -17.652400 -18.596000 -14.633900
O -17.565400 -16.194700 -12.090700
C -17.497800 -20.059100 -16.172100
C -17.246000 -17.107600 -12.827100
C -16.412800 -19.159600 -14.510800
N -16.339800 -20.103600 -15.510900
N -15.980100 -17.708400 -12.728400
H -15.681400 -20.662000 -15.674900
C -15.491900 -18.760800 -13.512700
H -15.438800 -17.286400 -10.811300
C -15.118600 -17.168400 -11.670800
H -14.963500 -16.198200 -11.778200
O -14.366800 -19.226700 -13.317400
H -14.310200 -17.601500 -11.612200
H -20.038200 -25.177100 -22.823900
O -19.664800 -23.752500 -21.031800
O -19.042500 -25.270900 -22.502600
H -18.906500 -22.903600 -19.894000
C -18.815800 -24.533200 -21.457600
O -18.584000 -22.472300 -19.142000
C -17.481300 -24.739600 -20.867700
C -17.377400 -22.981700 -18.992600
H -17.022300 -25.437000 -21.310100
C -16.910900 -24.092800 -19.860800
O -16.642400 -22.541400 -18.123400
H -16.038100 -24.367400 -19.571700
