21
Fragment
H -7.900400 -33.794200 -9.410700
H -7.284500 -35.894000 -8.791000
C -7.214700 -33.762300 -10.078500
N -7.068000 -32.612800 -10.732700
O -6.629900 -36.029900 -9.633300
C -6.434900 -34.886000 -10.312000
H -6.137000 -31.630600 -12.288300
C -6.100300 -32.541600 -11.658600
C -5.441400 -34.822700 -11.280600
C -5.282000 -33.607600 -11.960300
H -4.700300 -36.861200 -10.952600
C -4.586600 -35.978100 -11.540500
H -4.515500 -33.521000 -12.671700
N -3.804900 -35.948400 -12.541800
H -3.143100 -38.322000 -10.961700
N -2.969900 -37.053100 -12.720800
C -2.687700 -38.134300 -11.941200
H -2.225400 -36.480000 -14.634400
C -2.186800 -37.177400 -13.819300
N -1.790600 -38.867800 -12.532700
N -1.472200 -38.261200 -13.748500
21
Fragment
H -3.007200 -33.794200 -9.410700
H -2.391300 -35.894000 -8.791000
C -2.321500 -33.762300 -10.078500
N -2.174800 -32.612800 -10.732700
O -1.736700 -36.029900 -9.633300
C -1.541700 -34.886000 -10.312000
H -1.243800 -31.630600 -12.288300
C -1.207100 -32.541600 -11.658600
C -0.548200 -34.822700 -11.280600
C -0.388800 -33.607600 -11.960300
H 0.192900 -36.861200 -10.952600
C 0.306600 -35.978100 -11.540500
H 0.377700 -33.521000 -12.671700
N 1.088300 -35.948400 -12.541800
H 1.750100 -38.322000 -10.961700
N 1.923300 -37.053100 -12.720800
C 2.205500 -38.134300 -11.941200
H 2.667800 -36.480000 -14.634400
C 2.706400 -37.177400 -13.819300
N 3.102600 -38.867800 -12.532700
N 3.421000 -38.261200 -13.748500
42
Fragment
H -7.900400 -33.794200 -9.410700
H -7.284500 -35.894000 -8.791000
C -7.214700 -33.762300 -10.078500
N -7.068000 -32.612800 -10.732700
O -6.629900 -36.029900 -9.633300
C -6.434900 -34.886000 -10.312000
H -6.137000 -31.630600 -12.288300
C -6.100300 -32.541600 -11.658600
C -5.441400 -34.822700 -11.280600
C -5.282000 -33.607600 -11.960300
H -4.700300 -36.861200 -10.952600
C -4.586600 -35.978100 -11.540500
H -4.515500 -33.521000 -12.671700
N -3.804900 -35.948400 -12.541800
H -3.143100 -38.322000 -10.961700
N -2.969900 -37.053100 -12.720800
C -2.687700 -38.134300 -11.941200
H -2.225400 -36.480000 -14.634400
C -2.186800 -37.177400 -13.819300
N -1.790600 -38.867800 -12.532700
N -1.472200 -38.261200 -13.748500
H -3.007200 -33.794200 -9.410700
H -2.391300 -35.894000 -8.791000
C -2.321500 -33.762300 -10.078500
N -2.174800 -32.612800 -10.732700
O -1.736700 -36.029900 -9.633300
C -1.541700 -34.886000 -10.312000
H -1.243800 -31.630600 -12.288300
C -1.207100 -32.541600 -11.658600
C -0.548200 -34.822700 -11.280600
C -0.388800 -33.607600 -11.960300
H 0.192900 -36.861200 -10.952600
C 0.306600 -35.978100 -11.540500
H 0.377700 -33.521000 -12.671700
N 1.088300 -35.948400 -12.541800
H 1.750100 -38.322000 -10.961700
N 1.923300 -37.053100 -12.720800
C 2.205500 -38.134300 -11.941200
H 2.667800 -36.480000 -14.634400
C 2.706400 -37.177400 -13.819300
N 3.102600 -38.867800 -12.532700
N 3.421000 -38.261200 -13.748500
