21
Fragment
H -7.900400 -33.794200 -9.410700
H -7.284500 -35.894000 -8.791000
C -7.214700 -33.762300 -10.078500
N -7.068000 -32.612800 -10.732700
O -6.629900 -36.029900 -9.633300
C -6.434900 -34.886000 -10.312000
H -6.137000 -31.630600 -12.288300
C -6.100300 -32.541600 -11.658600
C -5.441400 -34.822700 -11.280600
C -5.282000 -33.607600 -11.960300
H -4.700300 -36.861200 -10.952600
C -4.586600 -35.978100 -11.540500
H -4.515500 -33.521000 -12.671700
N -3.804900 -35.948400 -12.541800
H -3.143100 -38.322000 -10.961700
N -2.969900 -37.053100 -12.720800
C -2.687700 -38.134300 -11.941200
H -2.225400 -36.480000 -14.634400
C -2.186800 -37.177400 -13.819300
N -1.790600 -38.867800 -12.532700
N -1.472200 -38.261200 -13.748500
21
Fragment
H -12.793600 -33.794200 -9.410700
H -12.177700 -35.894000 -8.791000
C -12.107900 -33.762300 -10.078500
N -11.961200 -32.612800 -10.732700
O -11.523100 -36.029900 -9.633300
C -11.328100 -34.886000 -10.312000
H -11.030200 -31.630600 -12.288300
C -10.993500 -32.541600 -11.658600
C -10.334600 -34.822700 -11.280600
C -10.175200 -33.607600 -11.960300
H -9.593500 -36.861200 -10.952600
C -9.479800 -35.978100 -11.540500
H -9.408700 -33.521000 -12.671700
N -8.698100 -35.948400 -12.541800
H -8.036300 -38.322000 -10.961700
N -7.863100 -37.053100 -12.720800
C -7.580900 -38.134300 -11.941200
H -7.118600 -36.480000 -14.634400
C -7.080000 -37.177400 -13.819300
N -6.683800 -38.867800 -12.532700
N -6.365400 -38.261200 -13.748500
42
Fragment
H -7.900400 -33.794200 -9.410700
H -7.284500 -35.894000 -8.791000
C -7.214700 -33.762300 -10.078500
N -7.068000 -32.612800 -10.732700
O -6.629900 -36.029900 -9.633300
C -6.434900 -34.886000 -10.312000
H -6.137000 -31.630600 -12.288300
C -6.100300 -32.541600 -11.658600
C -5.441400 -34.822700 -11.280600
C -5.282000 -33.607600 -11.960300
H -4.700300 -36.861200 -10.952600
C -4.586600 -35.978100 -11.540500
H -4.515500 -33.521000 -12.671700
N -3.804900 -35.948400 -12.541800
H -3.143100 -38.322000 -10.961700
N -2.969900 -37.053100 -12.720800
C -2.687700 -38.134300 -11.941200
H -2.225400 -36.480000 -14.634400
C -2.186800 -37.177400 -13.819300
N -1.790600 -38.867800 -12.532700
N -1.472200 -38.261200 -13.748500
H -12.793600 -33.794200 -9.410700
H -12.177700 -35.894000 -8.791000
C -12.107900 -33.762300 -10.078500
N -11.961200 -32.612800 -10.732700
O -11.523100 -36.029900 -9.633300
C -11.328100 -34.886000 -10.312000
H -11.030200 -31.630600 -12.288300
C -10.993500 -32.541600 -11.658600
C -10.334600 -34.822700 -11.280600
C -10.175200 -33.607600 -11.960300
H -9.593500 -36.861200 -10.952600
C -9.479800 -35.978100 -11.540500
H -9.408700 -33.521000 -12.671700
N -8.698100 -35.948400 -12.541800
H -8.036300 -38.322000 -10.961700
N -7.863100 -37.053100 -12.720800
C -7.580900 -38.134300 -11.941200
H -7.118600 -36.480000 -14.634400
C -7.080000 -37.177400 -13.819300
N -6.683800 -38.867800 -12.532700
N -6.365400 -38.261200 -13.748500
