21
Fragment
H -7.900400 -33.794200 -9.410700
H -7.284500 -35.894000 -8.791000
C -7.214700 -33.762300 -10.078500
N -7.068000 -32.612800 -10.732700
O -6.629900 -36.029900 -9.633300
C -6.434900 -34.886000 -10.312000
H -6.137000 -31.630600 -12.288300
C -6.100300 -32.541600 -11.658600
C -5.441400 -34.822700 -11.280600
C -5.282000 -33.607600 -11.960300
H -4.700300 -36.861200 -10.952600
C -4.586600 -35.978100 -11.540500
H -4.515500 -33.521000 -12.671700
N -3.804900 -35.948400 -12.541800
H -3.143100 -38.322000 -10.961700
N -2.969900 -37.053100 -12.720800
C -2.687700 -38.134300 -11.941200
H -2.225400 -36.480000 -14.634400
C -2.186800 -37.177400 -13.819300
N -1.790600 -38.867800 -12.532700
N -1.472200 -38.261200 -13.748500
21
Fragment
N -15.644600 -27.837800 -4.424100
N -15.326100 -27.231200 -5.639900
C -14.929900 -28.921600 -4.353200
H -14.891300 -29.619000 -3.538200
C -14.429000 -27.964700 -6.231400
N -14.146800 -29.045900 -5.451800
H -13.973700 -27.777000 -7.210900
N -13.311800 -30.150600 -5.630800
H -12.601300 -32.578000 -5.500800
C -12.530100 -30.120900 -6.632100
H -12.416400 -29.237800 -7.220000
C -11.834800 -32.491400 -6.212300
C -11.675400 -31.276300 -6.892000
C -11.016500 -33.557400 -6.514000
H -10.979700 -34.468400 -5.884300
C -10.681800 -31.213000 -7.860500
O -10.486800 -30.069100 -8.539300
N -10.048700 -33.486200 -7.439900
C -9.902100 -32.336700 -8.094100
H -9.832300 -30.205000 -9.381600
H -9.216300 -32.304800 -8.761900
42
Fragment
H -7.900400 -33.794200 -9.410700
H -7.284500 -35.894000 -8.791000
C -7.214700 -33.762300 -10.078500
N -7.068000 -32.612800 -10.732700
O -6.629900 -36.029900 -9.633300
C -6.434900 -34.886000 -10.312000
H -6.137000 -31.630600 -12.288300
C -6.100300 -32.541600 -11.658600
C -5.441400 -34.822700 -11.280600
C -5.282000 -33.607600 -11.960300
H -4.700300 -36.861200 -10.952600
C -4.586600 -35.978100 -11.540500
H -4.515500 -33.521000 -12.671700
N -3.804900 -35.948400 -12.541800
H -3.143100 -38.322000 -10.961700
N -2.969900 -37.053100 -12.720800
C -2.687700 -38.134300 -11.941200
H -2.225400 -36.480000 -14.634400
C -2.186800 -37.177400 -13.819300
N -1.790600 -38.867800 -12.532700
N -1.472200 -38.261200 -13.748500
N -15.644600 -27.837800 -4.424100
N -15.326100 -27.231200 -5.639900
C -14.929900 -28.921600 -4.353200
H -14.891300 -29.619000 -3.538200
C -14.429000 -27.964700 -6.231400
N -14.146800 -29.045900 -5.451800
H -13.973700 -27.777000 -7.210900
N -13.311800 -30.150600 -5.630800
H -12.601300 -32.578000 -5.500800
C -12.530100 -30.120900 -6.632100
H -12.416400 -29.237800 -7.220000
C -11.834800 -32.491400 -6.212300
C -11.675400 -31.276300 -6.892000
C -11.016500 -33.557400 -6.514000
H -10.979700 -34.468400 -5.884300
C -10.681800 -31.213000 -7.860500
O -10.486800 -30.069100 -8.539300
N -10.048700 -33.486200 -7.439900
C -9.902100 -32.336700 -8.094100
H -9.832300 -30.205000 -9.381600
H -9.216300 -32.304800 -8.761900
