21
Fragment
H -7.900400 -33.794200 -9.410700
H -7.284500 -35.894000 -8.791000
C -7.214700 -33.762300 -10.078500
N -7.068000 -32.612800 -10.732700
O -6.629900 -36.029900 -9.633300
C -6.434900 -34.886000 -10.312000
H -6.137000 -31.630600 -12.288300
C -6.100300 -32.541600 -11.658600
C -5.441400 -34.822700 -11.280600
C -5.282000 -33.607600 -11.960300
H -4.700300 -36.861200 -10.952600
C -4.586600 -35.978100 -11.540500
H -4.515500 -33.521000 -12.671700
N -3.804900 -35.948400 -12.541800
H -3.143100 -38.322000 -10.961700
N -2.969900 -37.053100 -12.720800
C -2.687700 -38.134300 -11.941200
H -2.225400 -36.480000 -14.634400
C -2.186800 -37.177400 -13.819300
N -1.790600 -38.867800 -12.532700
N -1.472200 -38.261200 -13.748500
21
Fragment
H -4.839800 -43.321300 -13.953800
H -4.223800 -41.221500 -13.334100
C -4.154100 -43.353200 -14.621700
N -4.007400 -44.502700 -15.275900
O -3.569300 -41.085600 -14.176400
C -3.374300 -42.229500 -14.855200
H -3.076400 -45.484900 -16.831400
C -3.039700 -44.573900 -16.201800
C -2.380700 -42.292800 -15.823800
C -2.221400 -43.507900 -16.503400
H -1.639700 -40.254300 -15.495800
C -1.526000 -41.137400 -16.083600
H -1.454800 -43.594500 -17.214900
N -0.744300 -41.167100 -17.085000
H -0.082500 -38.793500 -15.504800
N 0.090700 -40.062400 -17.264000
C 0.372900 -38.981200 -16.484300
H 0.835200 -40.635500 -19.177500
C 0.873800 -39.938100 -18.362500
N 1.270000 -38.247700 -17.075900
N 1.588400 -38.854300 -18.291600
42
Fragment
H -7.900400 -33.794200 -9.410700
H -7.284500 -35.894000 -8.791000
C -7.214700 -33.762300 -10.078500
N -7.068000 -32.612800 -10.732700
O -6.629900 -36.029900 -9.633300
C -6.434900 -34.886000 -10.312000
H -6.137000 -31.630600 -12.288300
C -6.100300 -32.541600 -11.658600
C -5.441400 -34.822700 -11.280600
C -5.282000 -33.607600 -11.960300
H -4.700300 -36.861200 -10.952600
C -4.586600 -35.978100 -11.540500
H -4.515500 -33.521000 -12.671700
N -3.804900 -35.948400 -12.541800
H -3.143100 -38.322000 -10.961700
N -2.969900 -37.053100 -12.720800
C -2.687700 -38.134300 -11.941200
H -2.225400 -36.480000 -14.634400
C -2.186800 -37.177400 -13.819300
N -1.790600 -38.867800 -12.532700
N -1.472200 -38.261200 -13.748500
H -4.839800 -43.321300 -13.953800
H -4.223800 -41.221500 -13.334100
C -4.154100 -43.353200 -14.621700
N -4.007400 -44.502700 -15.275900
O -3.569300 -41.085600 -14.176400
C -3.374300 -42.229500 -14.855200
H -3.076400 -45.484900 -16.831400
C -3.039700 -44.573900 -16.201800
C -2.380700 -42.292800 -15.823800
C -2.221400 -43.507900 -16.503400
H -1.639700 -40.254300 -15.495800
C -1.526000 -41.137400 -16.083600
H -1.454800 -43.594500 -17.214900
N -0.744300 -41.167100 -17.085000
H -0.082500 -38.793500 -15.504800
N 0.090700 -40.062400 -17.264000
C 0.372900 -38.981200 -16.484300
H 0.835200 -40.635500 -19.177500
C 0.873800 -39.938100 -18.362500
N 1.270000 -38.247700 -17.075900
N 1.588400 -38.854300 -18.291600
