7
Fragment
N -8.406600 -19.062700 -33.054800
N -8.231700 -20.272000 -32.642700
N -7.735300 -18.290500 -32.195400
H -7.678000 -17.433200 -32.233700
N -7.467400 -20.307900 -31.533000
C -7.173000 -19.059800 -31.277500
H -6.652300 -18.761300 -30.566900
34
Fragment
H -14.634300 -21.830000 -34.912900
C -13.683000 -21.953900 -34.923000
H -13.597100 -18.989300 -34.586800
H -13.473700 -22.850200 -34.649200
H -13.350800 -21.805300 -35.810700
C -13.087100 -19.581700 -34.006100
C -13.038500 -20.976500 -33.978100
H -12.545700 -17.126500 -33.091200
H -12.424400 -17.629500 -31.609700
C -12.364000 -19.129900 -32.955900
N -12.317000 -21.416300 -32.965400
C -12.098400 -17.742900 -32.506400
N -11.896800 -20.265700 -32.322900
H -11.153000 -17.575400 -32.527600
C -11.091000 -20.409700 -31.205100
N -10.779600 -21.670200 -30.868100
N -10.697200 -19.309900 -30.579800
N -9.997100 -21.825600 -29.809300
N -9.914700 -19.465300 -29.521000
C -9.603300 -20.725800 -29.184000
H -9.541300 -23.560100 -27.861500
N -8.797500 -20.869800 -28.066200
C -8.595900 -23.392600 -27.882700
N -8.377300 -19.719200 -27.423700
C -8.330300 -22.005600 -27.433200
H -8.269900 -23.506000 -28.779400
H -8.148600 -24.009000 -27.297900
C -7.655800 -20.159000 -26.411000
C -7.607200 -21.553800 -26.383000
H -7.343500 -19.330200 -24.578400
H -7.220600 -18.285300 -25.739800
H -7.097200 -22.146200 -25.802200
C -7.011300 -19.181600 -25.466100
H -6.060000 -19.305500 -25.476100
41
Fragment
N -8.406600 -19.062700 -33.054800
N -8.231700 -20.272000 -32.642700
N -7.735300 -18.290500 -32.195400
H -7.678000 -17.433200 -32.233700
N -7.467400 -20.307900 -31.533000
C -7.173000 -19.059800 -31.277500
H -6.652300 -18.761300 -30.566900
H -14.634300 -21.830000 -34.912900
C -13.683000 -21.953900 -34.923000
H -13.597100 -18.989300 -34.586800
H -13.473700 -22.850200 -34.649200
H -13.350800 -21.805300 -35.810700
C -13.087100 -19.581700 -34.006100
C -13.038500 -20.976500 -33.978100
H -12.545700 -17.126500 -33.091200
H -12.424400 -17.629500 -31.609700
C -12.364000 -19.129900 -32.955900
N -12.317000 -21.416300 -32.965400
C -12.098400 -17.742900 -32.506400
N -11.896800 -20.265700 -32.322900
H -11.153000 -17.575400 -32.527600
C -11.091000 -20.409700 -31.205100
N -10.779600 -21.670200 -30.868100
N -10.697200 -19.309900 -30.579800
N -9.997100 -21.825600 -29.809300
N -9.914700 -19.465300 -29.521000
C -9.603300 -20.725800 -29.184000
H -9.541300 -23.560100 -27.861500
N -8.797500 -20.869800 -28.066200
C -8.595900 -23.392600 -27.882700
N -8.377300 -19.719200 -27.423700
C -8.330300 -22.005600 -27.433200
H -8.269900 -23.506000 -28.779400
H -8.148600 -24.009000 -27.297900
C -7.655800 -20.159000 -26.411000
C -7.607200 -21.553800 -26.383000
H -7.343500 -19.330200 -24.578400
H -7.220600 -18.285300 -25.739800
H -7.097200 -22.146200 -25.802200
C -7.011300 -19.181600 -25.466100
H -6.060000 -19.305500 -25.476100
