9
Fragment
N -7.212600 -19.833900 -34.290400
N -7.028700 -21.059100 -33.912100
H -6.603700 -18.100800 -33.389800
N -6.600900 -19.056900 -33.334400
N -6.332900 -21.123900 -32.724500
C -6.070100 -19.859500 -32.403200
N -5.408400 -19.478200 -31.308200
H -5.316400 -18.681300 -31.124800
H -4.981800 -20.068500 -30.791700
9
Fragment
H -5.401800 -22.708500 -31.661900
H -5.067200 -24.095700 -31.328800
N -4.975200 -23.298800 -31.145400
C -4.313400 -22.917500 -30.050400
N -4.050700 -21.653100 -29.729200
N -3.782600 -23.720100 -29.119200
H -3.779800 -24.676200 -29.063800
N -3.354800 -21.717900 -28.541500
N -3.170900 -22.943100 -28.163300
18
Fragment
N -7.212600 -19.833900 -34.290400
N -7.028700 -21.059100 -33.912100
H -6.603700 -18.100800 -33.389800
N -6.600900 -19.056900 -33.334400
N -6.332900 -21.123900 -32.724500
C -6.070100 -19.859500 -32.403200
N -5.408400 -19.478200 -31.308200
H -5.316400 -18.681300 -31.124800
H -4.981800 -20.068500 -30.791700
H -5.401800 -22.708500 -31.661900
H -5.067200 -24.095700 -31.328800
N -4.975200 -23.298800 -31.145400
C -4.313400 -22.917500 -30.050400
N -4.050700 -21.653100 -29.729200
N -3.782600 -23.720100 -29.119200
H -3.779800 -24.676200 -29.063800
N -3.354800 -21.717900 -28.541500
N -3.170900 -22.943100 -28.163300
