9
Fragment
N -7.212600 -19.833900 -34.290400
N -7.028700 -21.059100 -33.912100
H -6.603700 -18.100800 -33.389800
N -6.600900 -19.056900 -33.334400
N -6.332900 -21.123900 -32.724500
C -6.070100 -19.859500 -32.403200
N -5.408400 -19.478200 -31.308200
H -5.316400 -18.681300 -31.124800
H -4.981800 -20.068500 -30.791700
34
Fragment
H -9.215500 -16.780800 -36.098200
C -8.257200 -16.830900 -36.125300
H -8.142400 -13.920900 -35.904600
H -7.976100 -17.714600 -35.875400
H -7.951800 -16.637800 -37.014200
C -7.729000 -14.423200 -35.239700
C -7.674800 -15.828700 -35.166600
H -7.230800 -11.923800 -34.384900
H -7.168100 -12.362600 -32.879800
C -7.066600 -13.935500 -34.160300
N -7.010800 -16.240800 -34.097800
C -6.808800 -12.516600 -33.757200
N -6.622700 -15.062100 -33.463500
C -5.883100 -15.166300 -32.301400
H -5.863700 -12.352800 -33.747900
N -5.556600 -16.403000 -31.908200
N -5.548100 -14.043600 -31.667500
N -4.835400 -16.511400 -30.786100
N -4.827000 -14.152000 -30.545400
H -4.519900 -18.202200 -28.705800
C -4.500400 -15.388700 -30.152200
N -3.760900 -15.492900 -28.990100
C -3.574700 -18.038400 -28.696400
N -3.372800 -14.314200 -28.355800
C -3.317000 -16.619500 -28.293400
H -3.215500 -18.192400 -29.573900
H -3.152700 -18.631200 -28.068700
C -2.708700 -14.726300 -27.287000
C -2.654500 -16.131800 -27.214000
H -2.431800 -13.917200 -25.439400
H -2.407500 -12.840400 -26.578200
H -2.241100 -16.634100 -26.549000
C -2.126400 -13.724100 -26.328400
H -1.168100 -13.774200 -26.355400
43
Fragment
N -7.212600 -19.833900 -34.290400
N -7.028700 -21.059100 -33.912100
H -6.603700 -18.100800 -33.389800
N -6.600900 -19.056900 -33.334400
N -6.332900 -21.123900 -32.724500
C -6.070100 -19.859500 -32.403200
N -5.408400 -19.478200 -31.308200
H -5.316400 -18.681300 -31.124800
H -4.981800 -20.068500 -30.791700
H -9.215500 -16.780800 -36.098200
C -8.257200 -16.830900 -36.125300
H -8.142400 -13.920900 -35.904600
H -7.976100 -17.714600 -35.875400
H -7.951800 -16.637800 -37.014200
C -7.729000 -14.423200 -35.239700
C -7.674800 -15.828700 -35.166600
H -7.230800 -11.923800 -34.384900
H -7.168100 -12.362600 -32.879800
C -7.066600 -13.935500 -34.160300
N -7.010800 -16.240800 -34.097800
C -6.808800 -12.516600 -33.757200
N -6.622700 -15.062100 -33.463500
C -5.883100 -15.166300 -32.301400
H -5.863700 -12.352800 -33.747900
N -5.556600 -16.403000 -31.908200
N -5.548100 -14.043600 -31.667500
N -4.835400 -16.511400 -30.786100
N -4.827000 -14.152000 -30.545400
H -4.519900 -18.202200 -28.705800
C -4.500400 -15.388700 -30.152200
N -3.760900 -15.492900 -28.990100
C -3.574700 -18.038400 -28.696400
N -3.372800 -14.314200 -28.355800
C -3.317000 -16.619500 -28.293400
H -3.215500 -18.192400 -29.573900
H -3.152700 -18.631200 -28.068700
C -2.708700 -14.726300 -27.287000
C -2.654500 -16.131800 -27.214000
H -2.431800 -13.917200 -25.439400
H -2.407500 -12.840400 -26.578200
H -2.241100 -16.634100 -26.549000
C -2.126400 -13.724100 -26.328400
H -1.168100 -13.774200 -26.355400
