9
Fragment
N -7.212600 -19.833900 -34.290400
N -7.028700 -21.059100 -33.912100
H -6.603700 -18.100800 -33.389800
N -6.600900 -19.056900 -33.334400
N -6.332900 -21.123900 -32.724500
C -6.070100 -19.859500 -32.403200
N -5.408400 -19.478200 -31.308200
H -5.316400 -18.681300 -31.124800
H -4.981800 -20.068500 -30.791700
34
Fragment
H -9.215500 -29.002800 -36.098200
C -8.257200 -29.052900 -36.125300
H -8.142400 -26.142900 -35.904600
H -7.976100 -29.936600 -35.875400
H -7.951800 -28.859800 -37.014200
C -7.729000 -26.645200 -35.239700
C -7.674800 -28.050700 -35.166600
H -7.230800 -24.145800 -34.384900
H -7.168100 -24.584600 -32.879800
C -7.066600 -26.157500 -34.160300
N -7.010800 -28.462800 -34.097800
C -6.808800 -24.738600 -33.757200
N -6.622700 -27.284100 -33.463500
C -5.883100 -27.388300 -32.301400
H -5.863700 -24.574800 -33.747900
N -5.556600 -28.625000 -31.908200
N -5.548100 -26.265600 -31.667500
N -4.835400 -28.733400 -30.786100
N -4.827000 -26.374000 -30.545400
H -4.519900 -30.424200 -28.705800
C -4.500400 -27.610700 -30.152200
N -3.760900 -27.714900 -28.990100
C -3.574700 -30.260400 -28.696400
N -3.372800 -26.536200 -28.355800
C -3.317000 -28.841500 -28.293400
H -3.215500 -30.414400 -29.573900
H -3.152700 -30.853200 -28.068700
C -2.708700 -26.948300 -27.287000
C -2.654500 -28.353800 -27.214000
H -2.431800 -26.139200 -25.439400
H -2.407500 -25.062400 -26.578200
H -2.241100 -28.856100 -26.549000
C -2.126400 -25.946100 -26.328400
H -1.168100 -25.996200 -26.355400
43
Fragment
N -7.212600 -19.833900 -34.290400
N -7.028700 -21.059100 -33.912100
H -6.603700 -18.100800 -33.389800
N -6.600900 -19.056900 -33.334400
N -6.332900 -21.123900 -32.724500
C -6.070100 -19.859500 -32.403200
N -5.408400 -19.478200 -31.308200
H -5.316400 -18.681300 -31.124800
H -4.981800 -20.068500 -30.791700
H -9.215500 -29.002800 -36.098200
C -8.257200 -29.052900 -36.125300
H -8.142400 -26.142900 -35.904600
H -7.976100 -29.936600 -35.875400
H -7.951800 -28.859800 -37.014200
C -7.729000 -26.645200 -35.239700
C -7.674800 -28.050700 -35.166600
H -7.230800 -24.145800 -34.384900
H -7.168100 -24.584600 -32.879800
C -7.066600 -26.157500 -34.160300
N -7.010800 -28.462800 -34.097800
C -6.808800 -24.738600 -33.757200
N -6.622700 -27.284100 -33.463500
C -5.883100 -27.388300 -32.301400
H -5.863700 -24.574800 -33.747900
N -5.556600 -28.625000 -31.908200
N -5.548100 -26.265600 -31.667500
N -4.835400 -28.733400 -30.786100
N -4.827000 -26.374000 -30.545400
H -4.519900 -30.424200 -28.705800
C -4.500400 -27.610700 -30.152200
N -3.760900 -27.714900 -28.990100
C -3.574700 -30.260400 -28.696400
N -3.372800 -26.536200 -28.355800
C -3.317000 -28.841500 -28.293400
H -3.215500 -30.414400 -29.573900
H -3.152700 -30.853200 -28.068700
C -2.708700 -26.948300 -27.287000
C -2.654500 -28.353800 -27.214000
H -2.431800 -26.139200 -25.439400
H -2.407500 -25.062400 -26.578200
H -2.241100 -28.856100 -26.549000
C -2.126400 -25.946100 -26.328400
H -1.168100 -25.996200 -26.355400
