16
Fragment
N -18.865100 -12.398900 -25.752200
N -18.828500 -13.413800 -24.921100
H -18.792400 -10.343400 -25.541300
N -18.748300 -11.250000 -25.034900
C -18.691400 -12.918100 -23.649000
H -18.656000 -14.500800 -22.385400
C -18.644400 -11.528900 -23.714100
C -18.625200 -13.588800 -22.417400
C -18.543200 -12.795000 -21.317100
C -18.543000 -10.734400 -22.558600
C -18.516400 -11.382400 -21.363800
N -18.508100 -13.421000 -19.984800
O -18.497300 -14.640700 -19.932700
O -18.490400 -12.698700 -19.002200
H -18.446900 -9.802400 -22.594200
H -18.433600 -10.847300 -20.506700
34
Fragment
H -19.414300 -11.328500 -7.469600
H -19.279300 -17.000800 -8.952900
H -18.948900 -14.303300 -16.039400
H -18.902000 -16.754100 -7.452400
H -18.874800 -19.928500 -17.139700
N -18.793200 -14.346600 -12.175200
N -18.678300 -14.894400 -13.373900
C -18.643600 -16.590400 -8.362300
H -18.625300 -14.162400 -6.805300
C -18.615900 -14.093600 -7.732400
C -18.615200 -11.483500 -7.978000
C -18.608200 -12.896800 -8.482600
C -18.607400 -15.121100 -8.612800
N -18.593200 -13.152200 -9.774300
H -18.587300 -10.877700 -8.723300
N -18.586600 -14.531800 -9.866900
C -18.480600 -15.108400 -11.128900
C -18.241700 -16.159000 -13.430000
N -18.135700 -16.735700 -14.692000
H -18.135000 -20.389800 -15.835600
N -18.129100 -18.115300 -14.784600
C -18.114900 -16.146400 -15.946100
C -18.114100 -18.370600 -16.076300
C -18.107100 -19.784000 -16.580900
C -18.106500 -17.173900 -16.826500
H -18.097000 -17.105000 -17.753600
C -18.078800 -14.677000 -16.196600
N -18.044000 -16.373100 -11.185000
N -17.929100 -16.920800 -12.383700
H -17.847600 -11.339000 -7.419200
H -17.820300 -14.513400 -17.106500
H -17.773400 -16.964200 -8.519500
H -17.443000 -14.266700 -15.606000
H -17.308000 -19.938900 -17.089300
50
Fragment
N -18.865100 -12.398900 -25.752200
N -18.828500 -13.413800 -24.921100
H -18.792400 -10.343400 -25.541300
N -18.748300 -11.250000 -25.034900
C -18.691400 -12.918100 -23.649000
H -18.656000 -14.500800 -22.385400
C -18.644400 -11.528900 -23.714100
C -18.625200 -13.588800 -22.417400
C -18.543200 -12.795000 -21.317100
C -18.543000 -10.734400 -22.558600
C -18.516400 -11.382400 -21.363800
N -18.508100 -13.421000 -19.984800
O -18.497300 -14.640700 -19.932700
O -18.490400 -12.698700 -19.002200
H -18.446900 -9.802400 -22.594200
H -18.433600 -10.847300 -20.506700
H -19.414300 -11.328500 -7.469600
H -19.279300 -17.000800 -8.952900
H -18.948900 -14.303300 -16.039400
H -18.902000 -16.754100 -7.452400
H -18.874800 -19.928500 -17.139700
N -18.793200 -14.346600 -12.175200
N -18.678300 -14.894400 -13.373900
C -18.643600 -16.590400 -8.362300
H -18.625300 -14.162400 -6.805300
C -18.615900 -14.093600 -7.732400
C -18.615200 -11.483500 -7.978000
C -18.608200 -12.896800 -8.482600
C -18.607400 -15.121100 -8.612800
N -18.593200 -13.152200 -9.774300
H -18.587300 -10.877700 -8.723300
N -18.586600 -14.531800 -9.866900
C -18.480600 -15.108400 -11.128900
C -18.241700 -16.159000 -13.430000
N -18.135700 -16.735700 -14.692000
H -18.135000 -20.389800 -15.835600
N -18.129100 -18.115300 -14.784600
C -18.114900 -16.146400 -15.946100
C -18.114100 -18.370600 -16.076300
C -18.107100 -19.784000 -16.580900
C -18.106500 -17.173900 -16.826500
H -18.097000 -17.105000 -17.753600
C -18.078800 -14.677000 -16.196600
N -18.044000 -16.373100 -11.185000
N -17.929100 -16.920800 -12.383700
H -17.847600 -11.339000 -7.419200
H -17.820300 -14.513400 -17.106500
H -17.773400 -16.964200 -8.519500
H -17.443000 -14.266700 -15.606000
H -17.308000 -19.938900 -17.089300
