16
Fragment
N -18.865100 -12.398900 -25.752200
N -18.828500 -13.413800 -24.921100
H -18.792400 -10.343400 -25.541300
N -18.748300 -11.250000 -25.034900
C -18.691400 -12.918100 -23.649000
H -18.656000 -14.500800 -22.385400
C -18.644400 -11.528900 -23.714100
C -18.625200 -13.588800 -22.417400
C -18.543200 -12.795000 -21.317100
C -18.543000 -10.734400 -22.558600
C -18.516400 -11.382400 -21.363800
N -18.508100 -13.421000 -19.984800
O -18.497300 -14.640700 -19.932700
O -18.490400 -12.698700 -19.002200
H -18.446900 -9.802400 -22.594200
H -18.433600 -10.847300 -20.506700
16
Fragment
H -15.624600 -10.729500 -28.611100
H -15.611200 -11.774300 -26.523600
O -15.567800 -8.878100 -30.115600
O -15.560900 -6.936100 -29.185100
N -15.550000 -8.155700 -29.133000
C -15.541700 -10.194400 -27.754000
C -15.515200 -10.842400 -26.559200
C -15.515000 -8.781800 -27.800700
C -15.432900 -7.988000 -26.700400
C -15.413800 -10.047900 -25.403700
H -15.402200 -7.076000 -26.732400
C -15.366700 -8.658700 -25.468800
N -15.309900 -10.326800 -24.083000
H -15.265700 -11.233400 -23.576500
N -15.229600 -8.163000 -24.196700
N -15.193000 -9.177800 -23.365600
32
Fragment
N -18.865100 -12.398900 -25.752200
N -18.828500 -13.413800 -24.921100
H -18.792400 -10.343400 -25.541300
N -18.748300 -11.250000 -25.034900
C -18.691400 -12.918100 -23.649000
H -18.656000 -14.500800 -22.385400
C -18.644400 -11.528900 -23.714100
C -18.625200 -13.588800 -22.417400
C -18.543200 -12.795000 -21.317100
C -18.543000 -10.734400 -22.558600
C -18.516400 -11.382400 -21.363800
N -18.508100 -13.421000 -19.984800
O -18.497300 -14.640700 -19.932700
O -18.490400 -12.698700 -19.002200
H -18.446900 -9.802400 -22.594200
H -18.433600 -10.847300 -20.506700
H -15.624600 -10.729500 -28.611100
H -15.611200 -11.774300 -26.523600
O -15.567800 -8.878100 -30.115600
O -15.560900 -6.936100 -29.185100
N -15.550000 -8.155700 -29.133000
C -15.541700 -10.194400 -27.754000
C -15.515200 -10.842400 -26.559200
C -15.515000 -8.781800 -27.800700
C -15.432900 -7.988000 -26.700400
C -15.413800 -10.047900 -25.403700
H -15.402200 -7.076000 -26.732400
C -15.366700 -8.658700 -25.468800
N -15.309900 -10.326800 -24.083000
H -15.265700 -11.233400 -23.576500
N -15.229600 -8.163000 -24.196700
N -15.193000 -9.177800 -23.365600
