33
Fragment
H -11.719400 -30.639700 -18.072100
H -11.562000 -28.375400 -18.256300
C -11.026800 -30.268700 -18.569000
C -10.935100 -28.916600 -18.680300
H -10.927200 -32.694700 -18.494700
N -10.290000 -32.478400 -19.030300
N -10.170400 -34.737900 -19.252300
C -10.105300 -31.102700 -19.182900
C -9.924500 -28.337100 -19.416700
Br -9.779700 -26.459600 -19.537200
C -9.643400 -33.524200 -19.577500
N -9.577200 -35.801300 -19.713100
H -9.503800 -39.221800 -19.841100
H -9.389400 -37.850900 -19.090100
C -9.078100 -30.507400 -19.900300
C -8.997600 -29.148900 -20.009300
C -8.894400 -38.584700 -19.460200
N -8.574500 -33.351400 -20.374600
C -8.469500 -35.614600 -20.454800
H -8.436200 -31.039400 -20.312200
H -8.381600 -39.007200 -18.767400
H -8.300900 -28.769800 -20.495000
C -7.970600 -38.076800 -20.527700
N -7.968500 -34.457800 -20.821600
N -7.829600 -36.770300 -20.912300
C -7.100800 -38.788000 -21.299300
H -6.959500 -39.707400 -21.274500
N -6.884000 -36.635100 -21.905400
C -6.458400 -37.864100 -22.139400
H -5.695700 -38.736200 -23.814400
C -5.375500 -38.120000 -23.150700
H -5.129800 -37.292900 -23.573100
H -4.608700 -38.494800 -22.710800
33
Fragment
H -12.312500 -41.987700 -20.120900
H -11.791400 -43.189600 -19.258600
C -11.545700 -42.362500 -19.681000
H -11.225500 -41.746300 -19.017300
C -10.462700 -42.618400 -20.692300
N -10.037100 -43.847400 -20.926300
H -9.961600 -40.775100 -21.557200
C -9.820400 -41.694500 -21.532300
N -9.091500 -43.712200 -21.919400
N -8.952700 -46.024700 -22.010100
C -8.950600 -42.405700 -22.304000
H -8.620300 -51.712700 -22.336700
H -8.539600 -41.475300 -24.064300
H -8.485000 -49.443100 -22.519500
C -8.451700 -44.867900 -22.376800
N -8.346700 -47.131100 -22.457100
C -8.026800 -41.897800 -23.371500
C -7.923600 -51.333600 -22.822400
C -7.843000 -49.975100 -22.931400
H -7.531800 -42.631600 -23.741600
H -7.417400 -41.260700 -22.990600
N -7.344000 -44.681200 -23.118500
C -7.277700 -46.958300 -23.254200
Br -7.141500 -54.022900 -23.294400
C -6.996700 -52.145400 -23.414900
C -6.815900 -49.379800 -23.648800
N -6.750800 -45.744600 -23.579400
N -6.631100 -48.004100 -23.801400
H -5.994000 -47.787800 -24.337000
C -5.986100 -51.565900 -24.151400
C -5.894400 -50.213800 -24.262700
H -5.359200 -52.107100 -24.575400
H -5.201800 -49.842800 -24.759600
66
Fragment
H -11.719400 -30.639700 -18.072100
H -11.562000 -28.375400 -18.256300
C -11.026800 -30.268700 -18.569000
C -10.935100 -28.916600 -18.680300
H -10.927200 -32.694700 -18.494700
N -10.290000 -32.478400 -19.030300
N -10.170400 -34.737900 -19.252300
C -10.105300 -31.102700 -19.182900
C -9.924500 -28.337100 -19.416700
Br -9.779700 -26.459600 -19.537200
C -9.643400 -33.524200 -19.577500
N -9.577200 -35.801300 -19.713100
H -9.503800 -39.221800 -19.841100
H -9.389400 -37.850900 -19.090100
C -9.078100 -30.507400 -19.900300
C -8.997600 -29.148900 -20.009300
C -8.894400 -38.584700 -19.460200
N -8.574500 -33.351400 -20.374600
C -8.469500 -35.614600 -20.454800
H -8.436200 -31.039400 -20.312200
H -8.381600 -39.007200 -18.767400
H -8.300900 -28.769800 -20.495000
C -7.970600 -38.076800 -20.527700
N -7.968500 -34.457800 -20.821600
N -7.829600 -36.770300 -20.912300
C -7.100800 -38.788000 -21.299300
H -6.959500 -39.707400 -21.274500
N -6.884000 -36.635100 -21.905400
C -6.458400 -37.864100 -22.139400
H -5.695700 -38.736200 -23.814400
C -5.375500 -38.120000 -23.150700
H -5.129800 -37.292900 -23.573100
H -4.608700 -38.494800 -22.710800
H -12.312500 -41.987700 -20.120900
H -11.791400 -43.189600 -19.258600
C -11.545700 -42.362500 -19.681000
H -11.225500 -41.746300 -19.017300
C -10.462700 -42.618400 -20.692300
N -10.037100 -43.847400 -20.926300
H -9.961600 -40.775100 -21.557200
C -9.820400 -41.694500 -21.532300
N -9.091500 -43.712200 -21.919400
N -8.952700 -46.024700 -22.010100
C -8.950600 -42.405700 -22.304000
H -8.620300 -51.712700 -22.336700
H -8.539600 -41.475300 -24.064300
H -8.485000 -49.443100 -22.519500
C -8.451700 -44.867900 -22.376800
N -8.346700 -47.131100 -22.457100
C -8.026800 -41.897800 -23.371500
C -7.923600 -51.333600 -22.822400
C -7.843000 -49.975100 -22.931400
H -7.531800 -42.631600 -23.741600
H -7.417400 -41.260700 -22.990600
N -7.344000 -44.681200 -23.118500
C -7.277700 -46.958300 -23.254200
Br -7.141500 -54.022900 -23.294400
C -6.996700 -52.145400 -23.414900
C -6.815900 -49.379800 -23.648800
N -6.750800 -45.744600 -23.579400
N -6.631100 -48.004100 -23.801400
H -5.994000 -47.787800 -24.337000
C -5.986100 -51.565900 -24.151400
C -5.894400 -50.213800 -24.262700
H -5.359200 -52.107100 -24.575400
H -5.201800 -49.842800 -24.759600
