16
Fragment
N -18.865100 -12.398900 -25.752200
N -18.828500 -13.413800 -24.921100
H -18.792400 -10.343400 -25.541300
N -18.748300 -11.250000 -25.034900
C -18.691400 -12.918100 -23.649000
H -18.656000 -14.500800 -22.385400
C -18.644400 -11.528900 -23.714100
C -18.625200 -13.588800 -22.417400
C -18.543200 -12.795000 -21.317100
C -18.543000 -10.734400 -22.558600
C -18.516400 -11.382400 -21.363800
N -18.508100 -13.421000 -19.984800
O -18.497300 -14.640700 -19.932700
O -18.490400 -12.698700 -19.002200
H -18.446900 -9.802400 -22.594200
H -18.433600 -10.847300 -20.506700
34
Fragment
H -22.690300 -10.579000 -19.749000
H -22.555200 -16.251300 -21.232400
H -22.224900 -13.553700 -28.318900
H -22.177900 -16.004600 -19.731800
H -22.150700 -19.179000 -29.419100
N -22.069100 -13.597100 -24.454600
N -21.954200 -14.144900 -25.653400
C -21.919500 -15.840900 -20.641800
H -21.901200 -13.412900 -19.084700
C -21.891800 -13.344000 -20.011800
C -21.891100 -10.733900 -20.257400
C -21.884100 -12.147300 -20.762100
C -21.883300 -14.371600 -20.892300
N -21.869100 -12.402700 -22.053800
H -21.863200 -10.128100 -21.002800
N -21.862500 -13.782200 -22.146400
C -21.756500 -14.358900 -23.408300
C -21.517600 -15.409500 -25.709500
N -21.411700 -15.986200 -26.971400
H -21.410900 -19.640300 -28.115000
N -21.405100 -17.365700 -27.064000
C -21.390900 -15.396800 -28.225500
C -21.390000 -17.621100 -28.355700
C -21.383000 -19.034500 -28.860400
C -21.382400 -16.424400 -29.106000
H -21.372900 -16.355500 -30.033100
C -21.354700 -13.927500 -28.476000
N -21.319900 -15.623500 -23.464400
N -21.205100 -16.171300 -24.663200
H -21.123500 -10.589500 -19.698700
H -21.096300 -13.763900 -29.386000
H -21.049300 -16.214700 -20.798900
H -20.718900 -13.517100 -27.885400
H -20.583900 -19.189400 -29.368800
50
Fragment
N -18.865100 -12.398900 -25.752200
N -18.828500 -13.413800 -24.921100
H -18.792400 -10.343400 -25.541300
N -18.748300 -11.250000 -25.034900
C -18.691400 -12.918100 -23.649000
H -18.656000 -14.500800 -22.385400
C -18.644400 -11.528900 -23.714100
C -18.625200 -13.588800 -22.417400
C -18.543200 -12.795000 -21.317100
C -18.543000 -10.734400 -22.558600
C -18.516400 -11.382400 -21.363800
N -18.508100 -13.421000 -19.984800
O -18.497300 -14.640700 -19.932700
O -18.490400 -12.698700 -19.002200
H -18.446900 -9.802400 -22.594200
H -18.433600 -10.847300 -20.506700
H -22.690300 -10.579000 -19.749000
H -22.555200 -16.251300 -21.232400
H -22.224900 -13.553700 -28.318900
H -22.177900 -16.004600 -19.731800
H -22.150700 -19.179000 -29.419100
N -22.069100 -13.597100 -24.454600
N -21.954200 -14.144900 -25.653400
C -21.919500 -15.840900 -20.641800
H -21.901200 -13.412900 -19.084700
C -21.891800 -13.344000 -20.011800
C -21.891100 -10.733900 -20.257400
C -21.884100 -12.147300 -20.762100
C -21.883300 -14.371600 -20.892300
N -21.869100 -12.402700 -22.053800
H -21.863200 -10.128100 -21.002800
N -21.862500 -13.782200 -22.146400
C -21.756500 -14.358900 -23.408300
C -21.517600 -15.409500 -25.709500
N -21.411700 -15.986200 -26.971400
H -21.410900 -19.640300 -28.115000
N -21.405100 -17.365700 -27.064000
C -21.390900 -15.396800 -28.225500
C -21.390000 -17.621100 -28.355700
C -21.383000 -19.034500 -28.860400
C -21.382400 -16.424400 -29.106000
H -21.372900 -16.355500 -30.033100
C -21.354700 -13.927500 -28.476000
N -21.319900 -15.623500 -23.464400
N -21.205100 -16.171300 -24.663200
H -21.123500 -10.589500 -19.698700
H -21.096300 -13.763900 -29.386000
H -21.049300 -16.214700 -20.798900
H -20.718900 -13.517100 -27.885400
H -20.583900 -19.189400 -29.368800
