34
Fragment
H -13.493300 -20.994600 -26.311400
C -12.623900 -20.959200 -25.905700
H -12.595500 -20.240000 -25.271400
H -12.446300 -21.789000 -25.457300
C -11.589400 -20.733100 -26.962500
N -11.400800 -19.544700 -27.488900
H -10.818000 -14.074600 -30.246200
C -10.706000 -21.672000 -27.507900
H -10.659000 -22.574000 -27.286200
N -10.573600 -17.483600 -28.937600
N -10.375000 -19.731300 -28.396800
H -10.089200 -12.687600 -30.188800
N -10.082300 -16.423900 -29.554300
C -9.993100 -13.630800 -30.037000
C -9.937200 -21.036100 -28.409700
C -9.883700 -18.613200 -29.066300
H -9.770900 -13.784800 -29.115200
H -9.071000 -21.419300 -30.202700
C -8.958100 -16.590900 -30.251500
C -8.904600 -14.168000 -30.908200
C -8.848800 -21.573300 -29.280900
N -8.759500 -18.780200 -29.763500
H -8.752600 -22.516500 -29.129000
N -8.466800 -15.472800 -30.921000
N -8.268300 -17.720500 -30.380200
H -8.182800 -12.630100 -32.031600
C -8.135900 -13.532100 -31.810000
H -8.023800 -21.129500 -29.071700
N -7.441000 -15.659400 -31.829000
C -7.252500 -14.471000 -32.355300
H -6.395500 -13.415100 -33.860600
H -6.246300 -14.964100 -34.046500
C -6.217900 -14.244900 -33.412200
H -5.348500 -14.209500 -33.006400
16
Fragment
H -9.737000 -12.702800 -35.173500
H -9.416400 -15.603600 -35.537300
C -8.955700 -12.779100 -35.673400
C -8.660700 -15.327900 -36.004200
C -8.373500 -13.981900 -36.135100
H -8.333900 -10.868700 -35.901100
C -8.180400 -11.766900 -36.085000
H -8.012100 -17.152600 -36.466600
C -7.826800 -16.246300 -36.565100
C -7.216600 -13.611400 -36.852800
N -7.132500 -12.248600 -36.812700
C -6.699100 -15.850100 -37.285200
H -6.446700 -11.746400 -37.097400
C -6.388300 -14.537100 -37.432300
H -6.151600 -16.495500 -37.670800
H -5.636400 -14.272900 -37.912000
50
Fragment
H -13.493300 -20.994600 -26.311400
C -12.623900 -20.959200 -25.905700
H -12.595500 -20.240000 -25.271400
H -12.446300 -21.789000 -25.457300
C -11.589400 -20.733100 -26.962500
N -11.400800 -19.544700 -27.488900
H -10.818000 -14.074600 -30.246200
C -10.706000 -21.672000 -27.507900
H -10.659000 -22.574000 -27.286200
N -10.573600 -17.483600 -28.937600
N -10.375000 -19.731300 -28.396800
H -10.089200 -12.687600 -30.188800
N -10.082300 -16.423900 -29.554300
C -9.993100 -13.630800 -30.037000
C -9.937200 -21.036100 -28.409700
C -9.883700 -18.613200 -29.066300
H -9.770900 -13.784800 -29.115200
H -9.071000 -21.419300 -30.202700
C -8.958100 -16.590900 -30.251500
C -8.904600 -14.168000 -30.908200
C -8.848800 -21.573300 -29.280900
N -8.759500 -18.780200 -29.763500
H -8.752600 -22.516500 -29.129000
N -8.466800 -15.472800 -30.921000
N -8.268300 -17.720500 -30.380200
H -8.182800 -12.630100 -32.031600
C -8.135900 -13.532100 -31.810000
H -8.023800 -21.129500 -29.071700
N -7.441000 -15.659400 -31.829000
C -7.252500 -14.471000 -32.355300
H -6.395500 -13.415100 -33.860600
H -6.246300 -14.964100 -34.046500
C -6.217900 -14.244900 -33.412200
H -5.348500 -14.209500 -33.006400
H -9.737000 -12.702800 -35.173500
H -9.416400 -15.603600 -35.537300
C -8.955700 -12.779100 -35.673400
C -8.660700 -15.327900 -36.004200
C -8.373500 -13.981900 -36.135100
H -8.333900 -10.868700 -35.901100
C -8.180400 -11.766900 -36.085000
H -8.012100 -17.152600 -36.466600
C -7.826800 -16.246300 -36.565100
C -7.216600 -13.611400 -36.852800
N -7.132500 -12.248600 -36.812700
C -6.699100 -15.850100 -37.285200
H -6.446700 -11.746400 -37.097400
C -6.388300 -14.537100 -37.432300
H -6.151600 -16.495500 -37.670800
H -5.636400 -14.272900 -37.912000
