33
Fragment
H -11.719400 -30.639700 -18.072100
H -11.562000 -28.375400 -18.256300
C -11.026800 -30.268700 -18.569000
C -10.935100 -28.916600 -18.680300
H -10.927200 -32.694700 -18.494700
N -10.290000 -32.478400 -19.030300
N -10.170400 -34.737900 -19.252300
C -10.105300 -31.102700 -19.182900
C -9.924500 -28.337100 -19.416700
Br -9.779700 -26.459600 -19.537200
C -9.643400 -33.524200 -19.577500
N -9.577200 -35.801300 -19.713100
H -9.503800 -39.221800 -19.841100
H -9.389400 -37.850900 -19.090100
C -9.078100 -30.507400 -19.900300
C -8.997600 -29.148900 -20.009300
C -8.894400 -38.584700 -19.460200
N -8.574500 -33.351400 -20.374600
C -8.469500 -35.614600 -20.454800
H -8.436200 -31.039400 -20.312200
H -8.381600 -39.007200 -18.767400
H -8.300900 -28.769800 -20.495000
C -7.970600 -38.076800 -20.527700
N -7.968500 -34.457800 -20.821600
N -7.829600 -36.770300 -20.912300
C -7.100800 -38.788000 -21.299300
H -6.959500 -39.707400 -21.274500
N -6.884000 -36.635100 -21.905400
C -6.458400 -37.864100 -22.139400
H -5.695700 -38.736200 -23.814400
C -5.375500 -38.120000 -23.150700
H -5.129800 -37.292900 -23.573100
H -4.608700 -38.494800 -22.710800
33
Fragment
H -15.581500 -25.081000 -12.982300
H -15.060400 -23.879200 -12.119900
C -14.814700 -24.706200 -12.542400
H -14.494500 -25.322500 -11.878700
C -13.731700 -24.450300 -13.553700
N -13.306100 -23.221300 -13.787700
H -13.230600 -26.293600 -14.418600
C -13.089400 -25.374300 -14.393700
N -12.360500 -23.356600 -14.780800
N -12.221700 -21.044000 -14.871400
C -12.219600 -24.663100 -15.165400
H -11.889300 -15.356100 -15.198100
H -11.808600 -25.593400 -16.925700
H -11.753900 -17.625700 -15.380900
C -11.720700 -22.200800 -15.238200
N -11.615700 -19.937700 -15.318500
C -11.295800 -25.170900 -16.232900
C -11.192600 -15.735100 -15.683800
C -11.112000 -17.093700 -15.792800
H -10.800800 -24.437200 -16.603000
H -10.686400 -25.808100 -15.852000
N -10.613000 -22.387500 -15.979900
C -10.546700 -20.110400 -16.115600
Br -10.410500 -13.045800 -16.155800
C -10.265700 -14.923300 -16.276300
C -10.084900 -17.689000 -16.510200
N -10.019800 -21.324100 -16.440800
N -9.900100 -19.064700 -16.662800
H -9.263000 -19.280900 -17.198400
C -9.255100 -15.502800 -17.012700
C -9.163400 -16.854900 -17.124100
H -8.628200 -14.961700 -17.436800
H -8.470800 -17.225900 -17.621000
66
Fragment
H -11.719400 -30.639700 -18.072100
H -11.562000 -28.375400 -18.256300
C -11.026800 -30.268700 -18.569000
C -10.935100 -28.916600 -18.680300
H -10.927200 -32.694700 -18.494700
N -10.290000 -32.478400 -19.030300
N -10.170400 -34.737900 -19.252300
C -10.105300 -31.102700 -19.182900
C -9.924500 -28.337100 -19.416700
Br -9.779700 -26.459600 -19.537200
C -9.643400 -33.524200 -19.577500
N -9.577200 -35.801300 -19.713100
H -9.503800 -39.221800 -19.841100
H -9.389400 -37.850900 -19.090100
C -9.078100 -30.507400 -19.900300
C -8.997600 -29.148900 -20.009300
C -8.894400 -38.584700 -19.460200
N -8.574500 -33.351400 -20.374600
C -8.469500 -35.614600 -20.454800
H -8.436200 -31.039400 -20.312200
H -8.381600 -39.007200 -18.767400
H -8.300900 -28.769800 -20.495000
C -7.970600 -38.076800 -20.527700
N -7.968500 -34.457800 -20.821600
N -7.829600 -36.770300 -20.912300
C -7.100800 -38.788000 -21.299300
H -6.959500 -39.707400 -21.274500
N -6.884000 -36.635100 -21.905400
C -6.458400 -37.864100 -22.139400
H -5.695700 -38.736200 -23.814400
C -5.375500 -38.120000 -23.150700
H -5.129800 -37.292900 -23.573100
H -4.608700 -38.494800 -22.710800
H -15.581500 -25.081000 -12.982300
H -15.060400 -23.879200 -12.119900
C -14.814700 -24.706200 -12.542400
H -14.494500 -25.322500 -11.878700
C -13.731700 -24.450300 -13.553700
N -13.306100 -23.221300 -13.787700
H -13.230600 -26.293600 -14.418600
C -13.089400 -25.374300 -14.393700
N -12.360500 -23.356600 -14.780800
N -12.221700 -21.044000 -14.871400
C -12.219600 -24.663100 -15.165400
H -11.889300 -15.356100 -15.198100
H -11.808600 -25.593400 -16.925700
H -11.753900 -17.625700 -15.380900
C -11.720700 -22.200800 -15.238200
N -11.615700 -19.937700 -15.318500
C -11.295800 -25.170900 -16.232900
C -11.192600 -15.735100 -15.683800
C -11.112000 -17.093700 -15.792800
H -10.800800 -24.437200 -16.603000
H -10.686400 -25.808100 -15.852000
N -10.613000 -22.387500 -15.979900
C -10.546700 -20.110400 -16.115600
Br -10.410500 -13.045800 -16.155800
C -10.265700 -14.923300 -16.276300
C -10.084900 -17.689000 -16.510200
N -10.019800 -21.324100 -16.440800
N -9.900100 -19.064700 -16.662800
H -9.263000 -19.280900 -17.198400
C -9.255100 -15.502800 -17.012700
C -9.163400 -16.854900 -17.124100
H -8.628200 -14.961700 -17.436800
H -8.470800 -17.225900 -17.621000
