34
Fragment
H -13.493300 -20.994600 -26.311400
C -12.623900 -20.959200 -25.905700
H -12.595500 -20.240000 -25.271400
H -12.446300 -21.789000 -25.457300
C -11.589400 -20.733100 -26.962500
N -11.400800 -19.544700 -27.488900
H -10.818000 -14.074600 -30.246200
C -10.706000 -21.672000 -27.507900
H -10.659000 -22.574000 -27.286200
N -10.573600 -17.483600 -28.937600
N -10.375000 -19.731300 -28.396800
H -10.089200 -12.687600 -30.188800
N -10.082300 -16.423900 -29.554300
C -9.993100 -13.630800 -30.037000
C -9.937200 -21.036100 -28.409700
C -9.883700 -18.613200 -29.066300
H -9.770900 -13.784800 -29.115200
H -9.071000 -21.419300 -30.202700
C -8.958100 -16.590900 -30.251500
C -8.904600 -14.168000 -30.908200
C -8.848800 -21.573300 -29.280900
N -8.759500 -18.780200 -29.763500
H -8.752600 -22.516500 -29.129000
N -8.466800 -15.472800 -30.921000
N -8.268300 -17.720500 -30.380200
H -8.182800 -12.630100 -32.031600
C -8.135900 -13.532100 -31.810000
H -8.023800 -21.129500 -29.071700
N -7.441000 -15.659400 -31.829000
C -7.252500 -14.471000 -32.355300
H -6.395500 -13.415100 -33.860600
H -6.246300 -14.964100 -34.046500
C -6.217900 -14.244900 -33.412200
H -5.348500 -14.209500 -33.006400
16
Fragment
H -7.124400 -20.140300 -31.292200
H -6.609200 -22.362800 -31.533400
C -6.372500 -20.404400 -31.771800
H -6.314100 -17.613800 -32.106800
C -6.061700 -21.717400 -31.918900
N -5.628200 -18.115900 -32.391500
C -5.544200 -19.478800 -32.351400
C -4.934000 -22.113700 -32.639100
H -4.748700 -23.020000 -32.737500
C -4.580400 -17.634200 -33.119100
H -4.426900 -16.736000 -33.303000
C -4.387300 -19.849200 -33.069100
C -4.100100 -21.195200 -33.200000
C -3.805100 -18.646400 -33.530800
H -3.344400 -21.471000 -33.666800
H -3.023800 -18.570200 -34.030700
50
Fragment
H -13.493300 -20.994600 -26.311400
C -12.623900 -20.959200 -25.905700
H -12.595500 -20.240000 -25.271400
H -12.446300 -21.789000 -25.457300
C -11.589400 -20.733100 -26.962500
N -11.400800 -19.544700 -27.488900
H -10.818000 -14.074600 -30.246200
C -10.706000 -21.672000 -27.507900
H -10.659000 -22.574000 -27.286200
N -10.573600 -17.483600 -28.937600
N -10.375000 -19.731300 -28.396800
H -10.089200 -12.687600 -30.188800
N -10.082300 -16.423900 -29.554300
C -9.993100 -13.630800 -30.037000
C -9.937200 -21.036100 -28.409700
C -9.883700 -18.613200 -29.066300
H -9.770900 -13.784800 -29.115200
H -9.071000 -21.419300 -30.202700
C -8.958100 -16.590900 -30.251500
C -8.904600 -14.168000 -30.908200
C -8.848800 -21.573300 -29.280900
N -8.759500 -18.780200 -29.763500
H -8.752600 -22.516500 -29.129000
N -8.466800 -15.472800 -30.921000
N -8.268300 -17.720500 -30.380200
H -8.182800 -12.630100 -32.031600
C -8.135900 -13.532100 -31.810000
H -8.023800 -21.129500 -29.071700
N -7.441000 -15.659400 -31.829000
C -7.252500 -14.471000 -32.355300
H -6.395500 -13.415100 -33.860600
H -6.246300 -14.964100 -34.046500
C -6.217900 -14.244900 -33.412200
H -5.348500 -14.209500 -33.006400
H -7.124400 -20.140300 -31.292200
H -6.609200 -22.362800 -31.533400
C -6.372500 -20.404400 -31.771800
H -6.314100 -17.613800 -32.106800
C -6.061700 -21.717400 -31.918900
N -5.628200 -18.115900 -32.391500
C -5.544200 -19.478800 -32.351400
C -4.934000 -22.113700 -32.639100
H -4.748700 -23.020000 -32.737500
C -4.580400 -17.634200 -33.119100
H -4.426900 -16.736000 -33.303000
C -4.387300 -19.849200 -33.069100
C -4.100100 -21.195200 -33.200000
C -3.805100 -18.646400 -33.530800
H -3.344400 -21.471000 -33.666800
H -3.023800 -18.570200 -34.030700
