34
Fragment
H -10.950700 -6.379000 -17.454100
H -10.675900 -7.770000 -16.785900
C -10.359700 -6.868500 -16.877900
H -10.333000 -6.449200 -16.014200
C -8.990300 -6.880000 -17.466100
N -8.397200 -8.020300 -17.758400
H -8.375500 -4.873900 -17.642300
C -8.171500 -5.790600 -17.767500
N -7.167500 -7.651600 -18.262400
C -7.012500 -6.284600 -18.270600
N -6.690100 -9.905700 -18.492800
C -6.272900 -8.653000 -18.624600
H -6.059100 -4.613800 -18.597300
H -5.892600 -13.279700 -19.576200
N -5.826500 -10.849400 -18.837000
C -5.820700 -5.551400 -18.761500
H -5.692000 -5.720900 -19.716400
H -5.214600 -13.391900 -18.177900
C -5.085900 -13.561400 -19.132900
N -5.080100 -8.263400 -19.057300
H -5.013900 -5.833100 -18.318100
H -4.847500 -14.498900 -19.297100
C -4.633600 -10.459800 -19.269800
N -4.216500 -9.207000 -19.401500
C -3.894000 -12.828200 -19.623700
N -3.739000 -11.461200 -19.631900
C -2.735100 -13.322200 -20.126800
H -2.531100 -14.238800 -20.252000
N -2.509300 -11.092500 -20.135900
C -1.916300 -12.232800 -20.428200
H -0.573600 -12.663600 -21.880200
C -0.546900 -12.244300 -21.016500
H -0.230600 -11.342800 -21.108400
H 0.044200 -12.733800 -20.440200
34
Fragment
H -13.323600 5.265500 -17.454100
H -13.048800 3.874500 -16.785900
C -12.732600 4.776000 -16.877900
H -12.705900 5.195300 -16.014200
C -11.363200 4.764500 -17.466100
N -10.770100 3.624200 -17.758400
H -10.748400 6.770500 -17.642300
C -10.544400 5.853900 -17.767500
N -9.540400 3.992900 -18.262400
C -9.385400 5.359900 -18.270600
N -9.063000 1.738800 -18.492800
C -8.645800 2.991500 -18.624600
H -8.432000 7.030700 -18.597300
H -8.265500 -1.635200 -19.576200
N -8.199400 0.795100 -18.837000
C -8.193600 6.093100 -18.761500
H -8.064900 5.923600 -19.716400
H -7.587500 -1.747400 -18.177900
C -7.458800 -1.916900 -19.132900
N -7.453000 3.381100 -19.057300
H -7.386800 5.811400 -18.318100
H -7.220400 -2.854500 -19.297100
C -7.006500 1.184700 -19.269800
N -6.589400 2.437400 -19.401500
C -6.266900 -1.183700 -19.623700
N -6.111900 0.183300 -19.631900
C -5.108000 -1.677700 -20.126800
H -4.904000 -2.594400 -20.252000
N -4.882200 0.552000 -20.135900
C -4.289200 -0.588300 -20.428200
H -2.946500 -1.019100 -21.880200
C -2.919800 -0.599800 -21.016500
H -2.603500 0.301700 -21.108400
H -2.328700 -1.089300 -20.440200
68
Fragment
H -10.950700 -6.379000 -17.454100
H -10.675900 -7.770000 -16.785900
C -10.359700 -6.868500 -16.877900
H -10.333000 -6.449200 -16.014200
C -8.990300 -6.880000 -17.466100
N -8.397200 -8.020300 -17.758400
H -8.375500 -4.873900 -17.642300
C -8.171500 -5.790600 -17.767500
N -7.167500 -7.651600 -18.262400
C -7.012500 -6.284600 -18.270600
N -6.690100 -9.905700 -18.492800
C -6.272900 -8.653000 -18.624600
H -6.059100 -4.613800 -18.597300
H -5.892600 -13.279700 -19.576200
N -5.826500 -10.849400 -18.837000
C -5.820700 -5.551400 -18.761500
H -5.692000 -5.720900 -19.716400
H -5.214600 -13.391900 -18.177900
C -5.085900 -13.561400 -19.132900
N -5.080100 -8.263400 -19.057300
H -5.013900 -5.833100 -18.318100
H -4.847500 -14.498900 -19.297100
C -4.633600 -10.459800 -19.269800
N -4.216500 -9.207000 -19.401500
C -3.894000 -12.828200 -19.623700
N -3.739000 -11.461200 -19.631900
C -2.735100 -13.322200 -20.126800
H -2.531100 -14.238800 -20.252000
N -2.509300 -11.092500 -20.135900
C -1.916300 -12.232800 -20.428200
H -0.573600 -12.663600 -21.880200
C -0.546900 -12.244300 -21.016500
H -0.230600 -11.342800 -21.108400
H 0.044200 -12.733800 -20.440200
H -13.323600 5.265500 -17.454100
H -13.048800 3.874500 -16.785900
C -12.732600 4.776000 -16.877900
H -12.705900 5.195300 -16.014200
C -11.363200 4.764500 -17.466100
N -10.770100 3.624200 -17.758400
H -10.748400 6.770500 -17.642300
C -10.544400 5.853900 -17.767500
N -9.540400 3.992900 -18.262400
C -9.385400 5.359900 -18.270600
N -9.063000 1.738800 -18.492800
C -8.645800 2.991500 -18.624600
H -8.432000 7.030700 -18.597300
H -8.265500 -1.635200 -19.576200
N -8.199400 0.795100 -18.837000
C -8.193600 6.093100 -18.761500
H -8.064900 5.923600 -19.716400
H -7.587500 -1.747400 -18.177900
C -7.458800 -1.916900 -19.132900
N -7.453000 3.381100 -19.057300
H -7.386800 5.811400 -18.318100
H -7.220400 -2.854500 -19.297100
C -7.006500 1.184700 -19.269800
N -6.589400 2.437400 -19.401500
C -6.266900 -1.183700 -19.623700
N -6.111900 0.183300 -19.631900
C -5.108000 -1.677700 -20.126800
H -4.904000 -2.594400 -20.252000
N -4.882200 0.552000 -20.135900
C -4.289200 -0.588300 -20.428200
H -2.946500 -1.019100 -21.880200
C -2.919800 -0.599800 -21.016500
H -2.603500 0.301700 -21.108400
H -2.328700 -1.089300 -20.440200
