34
Fragment
H -10.950700 -6.379000 -17.454100
H -10.675900 -7.770000 -16.785900
C -10.359700 -6.868500 -16.877900
H -10.333000 -6.449200 -16.014200
C -8.990300 -6.880000 -17.466100
N -8.397200 -8.020300 -17.758400
H -8.375500 -4.873900 -17.642300
C -8.171500 -5.790600 -17.767500
N -7.167500 -7.651600 -18.262400
C -7.012500 -6.284600 -18.270600
N -6.690100 -9.905700 -18.492800
C -6.272900 -8.653000 -18.624600
H -6.059100 -4.613800 -18.597300
H -5.892600 -13.279700 -19.576200
N -5.826500 -10.849400 -18.837000
C -5.820700 -5.551400 -18.761500
H -5.692000 -5.720900 -19.716400
H -5.214600 -13.391900 -18.177900
C -5.085900 -13.561400 -19.132900
N -5.080100 -8.263400 -19.057300
H -5.013900 -5.833100 -18.318100
H -4.847500 -14.498900 -19.297100
C -4.633600 -10.459800 -19.269800
N -4.216500 -9.207000 -19.401500
C -3.894000 -12.828200 -19.623700
N -3.739000 -11.461200 -19.631900
C -2.735100 -13.322200 -20.126800
H -2.531100 -14.238800 -20.252000
N -2.509300 -11.092500 -20.135900
C -1.916300 -12.232800 -20.428200
H -0.573600 -12.663600 -21.880200
C -0.546900 -12.244300 -21.016500
H -0.230600 -11.342800 -21.108400
H 0.044200 -12.733800 -20.440200
34
Fragment
H -8.577800 -18.023400 -17.454100
H -8.303000 -19.414500 -16.785900
C -7.986800 -18.513000 -16.877900
H -7.960100 -18.093600 -16.014200
C -6.617400 -18.524500 -17.466100
N -6.024300 -19.664700 -17.758400
H -6.002500 -16.518400 -17.642300
C -5.798600 -17.435100 -17.767500
N -4.794600 -19.296100 -18.262400
C -4.639600 -17.929100 -18.270600
N -4.317200 -21.550200 -18.492800
C -3.900000 -20.297500 -18.624600
H -3.686200 -16.258300 -18.597300
H -3.519700 -24.924200 -19.576200
N -3.453600 -22.493900 -18.837000
C -3.447800 -17.195800 -18.761500
H -3.319100 -17.365400 -19.716400
H -2.841700 -25.036300 -18.177900
C -2.712900 -25.205900 -19.132900
N -2.707200 -19.907900 -19.057300
H -2.641000 -17.477600 -18.318100
H -2.474600 -26.143400 -19.297100
C -2.260700 -22.104300 -19.269800
N -1.843600 -20.851500 -19.401500
C -1.521100 -24.472700 -19.623700
N -1.366100 -23.105700 -19.631900
C -0.362200 -24.966600 -20.126800
H -0.158200 -25.883300 -20.252000
N -0.136400 -22.737000 -20.135900
C 0.456600 -23.877200 -20.428200
H 1.799300 -24.308100 -21.880200
C 1.826000 -23.888800 -21.016500
H 2.142300 -22.987300 -21.108400
H 2.417100 -24.378300 -20.440200
68
Fragment
H -10.950700 -6.379000 -17.454100
H -10.675900 -7.770000 -16.785900
C -10.359700 -6.868500 -16.877900
H -10.333000 -6.449200 -16.014200
C -8.990300 -6.880000 -17.466100
N -8.397200 -8.020300 -17.758400
H -8.375500 -4.873900 -17.642300
C -8.171500 -5.790600 -17.767500
N -7.167500 -7.651600 -18.262400
C -7.012500 -6.284600 -18.270600
N -6.690100 -9.905700 -18.492800
C -6.272900 -8.653000 -18.624600
H -6.059100 -4.613800 -18.597300
H -5.892600 -13.279700 -19.576200
N -5.826500 -10.849400 -18.837000
C -5.820700 -5.551400 -18.761500
H -5.692000 -5.720900 -19.716400
H -5.214600 -13.391900 -18.177900
C -5.085900 -13.561400 -19.132900
N -5.080100 -8.263400 -19.057300
H -5.013900 -5.833100 -18.318100
H -4.847500 -14.498900 -19.297100
C -4.633600 -10.459800 -19.269800
N -4.216500 -9.207000 -19.401500
C -3.894000 -12.828200 -19.623700
N -3.739000 -11.461200 -19.631900
C -2.735100 -13.322200 -20.126800
H -2.531100 -14.238800 -20.252000
N -2.509300 -11.092500 -20.135900
C -1.916300 -12.232800 -20.428200
H -0.573600 -12.663600 -21.880200
C -0.546900 -12.244300 -21.016500
H -0.230600 -11.342800 -21.108400
H 0.044200 -12.733800 -20.440200
H -8.577800 -18.023400 -17.454100
H -8.303000 -19.414500 -16.785900
C -7.986800 -18.513000 -16.877900
H -7.960100 -18.093600 -16.014200
C -6.617400 -18.524500 -17.466100
N -6.024300 -19.664700 -17.758400
H -6.002500 -16.518400 -17.642300
C -5.798600 -17.435100 -17.767500
N -4.794600 -19.296100 -18.262400
C -4.639600 -17.929100 -18.270600
N -4.317200 -21.550200 -18.492800
C -3.900000 -20.297500 -18.624600
H -3.686200 -16.258300 -18.597300
H -3.519700 -24.924200 -19.576200
N -3.453600 -22.493900 -18.837000
C -3.447800 -17.195800 -18.761500
H -3.319100 -17.365400 -19.716400
H -2.841700 -25.036300 -18.177900
C -2.712900 -25.205900 -19.132900
N -2.707200 -19.907900 -19.057300
H -2.641000 -17.477600 -18.318100
H -2.474600 -26.143400 -19.297100
C -2.260700 -22.104300 -19.269800
N -1.843600 -20.851500 -19.401500
C -1.521100 -24.472700 -19.623700
N -1.366100 -23.105700 -19.631900
C -0.362200 -24.966600 -20.126800
H -0.158200 -25.883300 -20.252000
N -0.136400 -22.737000 -20.135900
C 0.456600 -23.877200 -20.428200
H 1.799300 -24.308100 -21.880200
C 1.826000 -23.888800 -21.016500
H 2.142300 -22.987300 -21.108400
H 2.417100 -24.378300 -20.440200
