16
Fragment
N -18.865100 -12.398900 -25.752200
N -18.828500 -13.413800 -24.921100
H -18.792400 -10.343400 -25.541300
N -18.748300 -11.250000 -25.034900
C -18.691400 -12.918100 -23.649000
H -18.656000 -14.500800 -22.385400
C -18.644400 -11.528900 -23.714100
C -18.625200 -13.588800 -22.417400
C -18.543200 -12.795000 -21.317100
C -18.543000 -10.734400 -22.558600
C -18.516400 -11.382400 -21.363800
N -18.508100 -13.421000 -19.984800
O -18.497300 -14.640700 -19.932700
O -18.490400 -12.698700 -19.002200
H -18.446900 -9.802400 -22.594200
H -18.433600 -10.847300 -20.506700
34
Fragment
H -16.891900 -3.136900 -7.469600
H -16.756900 -8.809200 -8.952900
H -16.426500 -6.111600 -16.039400
H -16.379600 -8.562500 -7.452400
H -16.352300 -11.736900 -17.139700
N -16.270800 -6.155000 -12.175200
N -16.155900 -6.702800 -13.373900
C -16.121100 -8.398800 -8.362300
H -16.102900 -5.970800 -6.805300
C -16.093400 -5.901900 -7.732400
C -16.092800 -3.291800 -7.978000
C -16.085800 -4.705200 -8.482600
C -16.085000 -6.929500 -8.612800
N -16.070800 -4.960600 -9.774300
H -16.064900 -2.686000 -8.723300
N -16.064200 -6.340100 -9.866900
C -15.958200 -6.916800 -11.128900
C -15.719300 -7.967400 -13.430000
N -15.613300 -8.544100 -14.692000
H -15.612600 -12.198200 -15.835600
N -15.606700 -9.923600 -14.784600
C -15.592500 -7.954700 -15.946100
C -15.591700 -10.179000 -16.076300
C -15.584700 -11.592400 -16.580900
C -15.584000 -8.982300 -16.826500
H -15.574600 -8.913400 -17.753600
C -15.556300 -6.485400 -16.196600
N -15.521600 -8.181400 -11.185000
N -15.406700 -8.729200 -12.383700
H -15.325200 -3.147400 -7.419200
H -15.297900 -6.321700 -17.106500
H -15.251000 -8.772600 -8.519500
H -14.920600 -6.075000 -15.606000
H -14.785600 -11.747300 -17.089300
50
Fragment
N -18.865100 -12.398900 -25.752200
N -18.828500 -13.413800 -24.921100
H -18.792400 -10.343400 -25.541300
N -18.748300 -11.250000 -25.034900
C -18.691400 -12.918100 -23.649000
H -18.656000 -14.500800 -22.385400
C -18.644400 -11.528900 -23.714100
C -18.625200 -13.588800 -22.417400
C -18.543200 -12.795000 -21.317100
C -18.543000 -10.734400 -22.558600
C -18.516400 -11.382400 -21.363800
N -18.508100 -13.421000 -19.984800
O -18.497300 -14.640700 -19.932700
O -18.490400 -12.698700 -19.002200
H -18.446900 -9.802400 -22.594200
H -18.433600 -10.847300 -20.506700
H -16.891900 -3.136900 -7.469600
H -16.756900 -8.809200 -8.952900
H -16.426500 -6.111600 -16.039400
H -16.379600 -8.562500 -7.452400
H -16.352300 -11.736900 -17.139700
N -16.270800 -6.155000 -12.175200
N -16.155900 -6.702800 -13.373900
C -16.121100 -8.398800 -8.362300
H -16.102900 -5.970800 -6.805300
C -16.093400 -5.901900 -7.732400
C -16.092800 -3.291800 -7.978000
C -16.085800 -4.705200 -8.482600
C -16.085000 -6.929500 -8.612800
N -16.070800 -4.960600 -9.774300
H -16.064900 -2.686000 -8.723300
N -16.064200 -6.340100 -9.866900
C -15.958200 -6.916800 -11.128900
C -15.719300 -7.967400 -13.430000
N -15.613300 -8.544100 -14.692000
H -15.612600 -12.198200 -15.835600
N -15.606700 -9.923600 -14.784600
C -15.592500 -7.954700 -15.946100
C -15.591700 -10.179000 -16.076300
C -15.584700 -11.592400 -16.580900
C -15.584000 -8.982300 -16.826500
H -15.574600 -8.913400 -17.753600
C -15.556300 -6.485400 -16.196600
N -15.521600 -8.181400 -11.185000
N -15.406700 -8.729200 -12.383700
H -15.325200 -3.147400 -7.419200
H -15.297900 -6.321700 -17.106500
H -15.251000 -8.772600 -8.519500
H -14.920600 -6.075000 -15.606000
H -14.785600 -11.747300 -17.089300
