34
Fragment
H -10.950700 -6.379000 -17.454100
H -10.675900 -7.770000 -16.785900
C -10.359700 -6.868500 -16.877900
H -10.333000 -6.449200 -16.014200
C -8.990300 -6.880000 -17.466100
N -8.397200 -8.020300 -17.758400
H -8.375500 -4.873900 -17.642300
C -8.171500 -5.790600 -17.767500
N -7.167500 -7.651600 -18.262400
C -7.012500 -6.284600 -18.270600
N -6.690100 -9.905700 -18.492800
C -6.272900 -8.653000 -18.624600
H -6.059100 -4.613800 -18.597300
H -5.892600 -13.279700 -19.576200
N -5.826500 -10.849400 -18.837000
C -5.820700 -5.551400 -18.761500
H -5.692000 -5.720900 -19.716400
H -5.214600 -13.391900 -18.177900
C -5.085900 -13.561400 -19.132900
N -5.080100 -8.263400 -19.057300
H -5.013900 -5.833100 -18.318100
H -4.847500 -14.498900 -19.297100
C -4.633600 -10.459800 -19.269800
N -4.216500 -9.207000 -19.401500
C -3.894000 -12.828200 -19.623700
N -3.739000 -11.461200 -19.631900
C -2.735100 -13.322200 -20.126800
H -2.531100 -14.238800 -20.252000
N -2.509300 -11.092500 -20.135900
C -1.916300 -12.232800 -20.428200
H -0.573600 -12.663600 -21.880200
C -0.546900 -12.244300 -21.016500
H -0.230600 -11.342800 -21.108400
H 0.044200 -12.733800 -20.440200
14
Fragment
H -6.453400 -10.671800 -22.255400
C -5.540600 -10.755400 -22.563100
N -5.384600 -13.255900 -22.723900
H -5.202800 -8.730100 -22.644400
C -4.924000 -11.969400 -22.853800
C -4.826800 -9.620700 -22.798000
N -4.435100 -14.065700 -23.117600
C -3.631800 -12.007900 -23.358700
C -3.523300 -9.673900 -23.309400
N -3.370600 -13.328500 -23.510900
H -3.068300 -8.852300 -23.406100
C -2.902100 -10.852400 -23.601000
H -2.588800 -13.823200 -23.752200
H -2.045300 -10.943500 -23.911300
48
Fragment
H -10.950700 -6.379000 -17.454100
H -10.675900 -7.770000 -16.785900
C -10.359700 -6.868500 -16.877900
H -10.333000 -6.449200 -16.014200
C -8.990300 -6.880000 -17.466100
N -8.397200 -8.020300 -17.758400
H -8.375500 -4.873900 -17.642300
C -8.171500 -5.790600 -17.767500
N -7.167500 -7.651600 -18.262400
C -7.012500 -6.284600 -18.270600
N -6.690100 -9.905700 -18.492800
C -6.272900 -8.653000 -18.624600
H -6.059100 -4.613800 -18.597300
H -5.892600 -13.279700 -19.576200
N -5.826500 -10.849400 -18.837000
C -5.820700 -5.551400 -18.761500
H -5.692000 -5.720900 -19.716400
H -5.214600 -13.391900 -18.177900
C -5.085900 -13.561400 -19.132900
N -5.080100 -8.263400 -19.057300
H -5.013900 -5.833100 -18.318100
H -4.847500 -14.498900 -19.297100
C -4.633600 -10.459800 -19.269800
N -4.216500 -9.207000 -19.401500
C -3.894000 -12.828200 -19.623700
N -3.739000 -11.461200 -19.631900
C -2.735100 -13.322200 -20.126800
H -2.531100 -14.238800 -20.252000
N -2.509300 -11.092500 -20.135900
C -1.916300 -12.232800 -20.428200
H -0.573600 -12.663600 -21.880200
C -0.546900 -12.244300 -21.016500
H -0.230600 -11.342800 -21.108400
H 0.044200 -12.733800 -20.440200
H -6.453400 -10.671800 -22.255400
C -5.540600 -10.755400 -22.563100
N -5.384600 -13.255900 -22.723900
H -5.202800 -8.730100 -22.644400
C -4.924000 -11.969400 -22.853800
C -4.826800 -9.620700 -22.798000
N -4.435100 -14.065700 -23.117600
C -3.631800 -12.007900 -23.358700
C -3.523300 -9.673900 -23.309400
N -3.370600 -13.328500 -23.510900
H -3.068300 -8.852300 -23.406100
C -2.902100 -10.852400 -23.601000
H -2.588800 -13.823200 -23.752200
H -2.045300 -10.943500 -23.911300
