34
Fragment
H -13.493300 -20.994600 -26.311400
C -12.623900 -20.959200 -25.905700
H -12.595500 -20.240000 -25.271400
H -12.446300 -21.789000 -25.457300
C -11.589400 -20.733100 -26.962500
N -11.400800 -19.544700 -27.488900
H -10.818000 -14.074600 -30.246200
C -10.706000 -21.672000 -27.507900
H -10.659000 -22.574000 -27.286200
N -10.573600 -17.483600 -28.937600
N -10.375000 -19.731300 -28.396800
H -10.089200 -12.687600 -30.188800
N -10.082300 -16.423900 -29.554300
C -9.993100 -13.630800 -30.037000
C -9.937200 -21.036100 -28.409700
C -9.883700 -18.613200 -29.066300
H -9.770900 -13.784800 -29.115200
H -9.071000 -21.419300 -30.202700
C -8.958100 -16.590900 -30.251500
C -8.904600 -14.168000 -30.908200
C -8.848800 -21.573300 -29.280900
N -8.759500 -18.780200 -29.763500
H -8.752600 -22.516500 -29.129000
N -8.466800 -15.472800 -30.921000
N -8.268300 -17.720500 -30.380200
H -8.182800 -12.630100 -32.031600
C -8.135900 -13.532100 -31.810000
H -8.023800 -21.129500 -29.071700
N -7.441000 -15.659400 -31.829000
C -7.252500 -14.471000 -32.355300
H -6.395500 -13.415100 -33.860600
H -6.246300 -14.964100 -34.046500
C -6.217900 -14.244900 -33.412200
H -5.348500 -14.209500 -33.006400
34
Fragment
H -13.493300 -9.259900 -26.311400
C -12.623900 -9.224500 -25.905700
H -12.595500 -8.505300 -25.271400
H -12.446300 -10.054300 -25.457300
C -11.589400 -8.998400 -26.962500
N -11.400800 -7.810000 -27.488900
H -10.818000 -2.339900 -30.246200
C -10.706000 -9.937300 -27.507900
H -10.659000 -10.839300 -27.286200
N -10.573600 -5.748900 -28.937600
N -10.375000 -7.996600 -28.396800
H -10.089200 -0.952900 -30.188800
N -10.082300 -4.689200 -29.554300
C -9.993100 -1.896100 -30.037000
C -9.937200 -9.301400 -28.409700
C -9.883700 -6.878500 -29.066300
H -9.770900 -2.050100 -29.115200
H -9.071000 -9.684600 -30.202700
C -8.958100 -4.856200 -30.251500
C -8.904600 -2.433300 -30.908200
C -8.848800 -9.838600 -29.280900
N -8.759500 -7.045500 -29.763500
H -8.752600 -10.781800 -29.129000
N -8.466800 -3.738100 -30.921000
N -8.268300 -5.985800 -30.380200
H -8.182800 -0.895400 -32.031600
C -8.135900 -1.797400 -31.810000
H -8.023800 -9.394800 -29.071700
N -7.441000 -3.924700 -31.829000
C -7.252500 -2.736300 -32.355300
H -6.395500 -1.680400 -33.860600
H -6.246300 -3.229400 -34.046500
C -6.217900 -2.510200 -33.412200
H -5.348500 -2.474800 -33.006400
68
Fragment
H -13.493300 -20.994600 -26.311400
C -12.623900 -20.959200 -25.905700
H -12.595500 -20.240000 -25.271400
H -12.446300 -21.789000 -25.457300
C -11.589400 -20.733100 -26.962500
N -11.400800 -19.544700 -27.488900
H -10.818000 -14.074600 -30.246200
C -10.706000 -21.672000 -27.507900
H -10.659000 -22.574000 -27.286200
N -10.573600 -17.483600 -28.937600
N -10.375000 -19.731300 -28.396800
H -10.089200 -12.687600 -30.188800
N -10.082300 -16.423900 -29.554300
C -9.993100 -13.630800 -30.037000
C -9.937200 -21.036100 -28.409700
C -9.883700 -18.613200 -29.066300
H -9.770900 -13.784800 -29.115200
H -9.071000 -21.419300 -30.202700
C -8.958100 -16.590900 -30.251500
C -8.904600 -14.168000 -30.908200
C -8.848800 -21.573300 -29.280900
N -8.759500 -18.780200 -29.763500
H -8.752600 -22.516500 -29.129000
N -8.466800 -15.472800 -30.921000
N -8.268300 -17.720500 -30.380200
H -8.182800 -12.630100 -32.031600
C -8.135900 -13.532100 -31.810000
H -8.023800 -21.129500 -29.071700
N -7.441000 -15.659400 -31.829000
C -7.252500 -14.471000 -32.355300
H -6.395500 -13.415100 -33.860600
H -6.246300 -14.964100 -34.046500
C -6.217900 -14.244900 -33.412200
H -5.348500 -14.209500 -33.006400
H -13.493300 -9.259900 -26.311400
C -12.623900 -9.224500 -25.905700
H -12.595500 -8.505300 -25.271400
H -12.446300 -10.054300 -25.457300
C -11.589400 -8.998400 -26.962500
N -11.400800 -7.810000 -27.488900
H -10.818000 -2.339900 -30.246200
C -10.706000 -9.937300 -27.507900
H -10.659000 -10.839300 -27.286200
N -10.573600 -5.748900 -28.937600
N -10.375000 -7.996600 -28.396800
H -10.089200 -0.952900 -30.188800
N -10.082300 -4.689200 -29.554300
C -9.993100 -1.896100 -30.037000
C -9.937200 -9.301400 -28.409700
C -9.883700 -6.878500 -29.066300
H -9.770900 -2.050100 -29.115200
H -9.071000 -9.684600 -30.202700
C -8.958100 -4.856200 -30.251500
C -8.904600 -2.433300 -30.908200
C -8.848800 -9.838600 -29.280900
N -8.759500 -7.045500 -29.763500
H -8.752600 -10.781800 -29.129000
N -8.466800 -3.738100 -30.921000
N -8.268300 -5.985800 -30.380200
H -8.182800 -0.895400 -32.031600
C -8.135900 -1.797400 -31.810000
H -8.023800 -9.394800 -29.071700
N -7.441000 -3.924700 -31.829000
C -7.252500 -2.736300 -32.355300
H -6.395500 -1.680400 -33.860600
H -6.246300 -3.229400 -34.046500
C -6.217900 -2.510200 -33.412200
H -5.348500 -2.474800 -33.006400
