35
Fragment
H -12.665000 -12.047200 -56.289400
H -12.390200 -12.273200 -54.728200
C -11.970900 -12.116200 -55.600700
H -11.456200 -11.283000 -55.570000
H -11.137600 -19.383500 -45.367000
N -11.087300 -13.845400 -57.078000
C -11.064700 -13.246000 -55.924600
H -10.543300 -20.055800 -46.692400
C -10.316900 -19.581700 -45.864600
O -10.148600 -14.862200 -56.998300
C -10.090700 -13.892300 -55.109400
O -9.924400 -12.381100 -53.320700
H -9.730100 -20.143000 -45.316300
N -9.675000 -17.840400 -47.431800
C -9.652400 -13.492700 -53.746400
C -9.618800 -18.310200 -46.197200
N -9.608400 -16.326800 -49.599500
N -9.546200 -14.865900 -55.764600
N -9.458300 -15.680300 -50.754200
N -8.959500 -16.663900 -47.394800
N -8.928000 -14.414900 -53.095700
C -8.882300 -15.911100 -48.575400
C -8.871100 -17.457700 -45.363700
H -8.693400 -17.583300 -44.438700
H -8.664700 -15.196700 -53.453600
C -8.601100 -14.655700 -50.763700
C -8.450700 -16.416300 -46.136600
N -8.301500 -14.035800 -51.919800
H -8.117600 -14.425500 -45.892400
N -8.116700 -14.811100 -48.544600
N -7.982500 -14.146500 -49.668800
H -7.757500 -13.321100 -51.981900
C -7.612100 -15.253500 -45.752400
H -7.363100 -15.328600 -44.808800
H -6.801500 -15.239100 -46.304300
35
Fragment
H -8.851600 -17.387800 -41.364000
H -8.576800 -17.161800 -39.802900
C -8.157500 -17.318800 -40.675400
H -7.642800 -18.152000 -40.644600
H -7.324200 -10.051500 -30.441700
N -7.273900 -15.589600 -42.152700
C -7.251300 -16.189000 -40.999300
H -6.729900 -9.379200 -31.767100
C -6.503500 -9.853300 -30.939300
O -6.335200 -14.572800 -42.073000
C -6.277300 -15.542700 -40.184100
O -6.111000 -17.053900 -38.395400
H -5.916700 -9.292000 -30.390900
N -5.861600 -11.594600 -32.506500
C -5.839100 -15.942300 -38.821100
C -5.805400 -11.124800 -31.271800
N -5.795000 -13.108200 -34.674200
N -5.732800 -14.569100 -40.839300
N -5.645000 -13.754700 -35.828800
N -5.146100 -12.771100 -32.469500
N -5.114600 -15.020100 -38.170300
C -5.068900 -13.523900 -33.650000
C -5.057700 -11.977300 -30.438400
H -4.880100 -11.851700 -29.513300
H -4.851300 -14.238300 -38.528200
C -4.787700 -14.779300 -35.838400
C -4.637300 -13.018700 -31.211200
N -4.488100 -15.399200 -36.994500
H -4.304200 -15.009500 -30.967100
N -4.303300 -14.623900 -33.619300
N -4.169100 -15.288500 -34.743500
H -3.944100 -16.113900 -37.056600
C -3.798700 -14.181500 -30.827100
H -3.549700 -14.106400 -29.883500
H -2.988100 -14.195900 -31.379000
70
Fragment
H -12.665000 -12.047200 -56.289400
H -12.390200 -12.273200 -54.728200
C -11.970900 -12.116200 -55.600700
H -11.456200 -11.283000 -55.570000
H -11.137600 -19.383500 -45.367000
N -11.087300 -13.845400 -57.078000
C -11.064700 -13.246000 -55.924600
H -10.543300 -20.055800 -46.692400
C -10.316900 -19.581700 -45.864600
O -10.148600 -14.862200 -56.998300
C -10.090700 -13.892300 -55.109400
O -9.924400 -12.381100 -53.320700
H -9.730100 -20.143000 -45.316300
N -9.675000 -17.840400 -47.431800
C -9.652400 -13.492700 -53.746400
C -9.618800 -18.310200 -46.197200
N -9.608400 -16.326800 -49.599500
N -9.546200 -14.865900 -55.764600
N -9.458300 -15.680300 -50.754200
N -8.959500 -16.663900 -47.394800
N -8.928000 -14.414900 -53.095700
C -8.882300 -15.911100 -48.575400
C -8.871100 -17.457700 -45.363700
H -8.693400 -17.583300 -44.438700
H -8.664700 -15.196700 -53.453600
C -8.601100 -14.655700 -50.763700
C -8.450700 -16.416300 -46.136600
N -8.301500 -14.035800 -51.919800
H -8.117600 -14.425500 -45.892400
N -8.116700 -14.811100 -48.544600
N -7.982500 -14.146500 -49.668800
H -7.757500 -13.321100 -51.981900
C -7.612100 -15.253500 -45.752400
H -7.363100 -15.328600 -44.808800
H -6.801500 -15.239100 -46.304300
H -8.851600 -17.387800 -41.364000
H -8.576800 -17.161800 -39.802900
C -8.157500 -17.318800 -40.675400
H -7.642800 -18.152000 -40.644600
H -7.324200 -10.051500 -30.441700
N -7.273900 -15.589600 -42.152700
C -7.251300 -16.189000 -40.999300
H -6.729900 -9.379200 -31.767100
C -6.503500 -9.853300 -30.939300
O -6.335200 -14.572800 -42.073000
C -6.277300 -15.542700 -40.184100
O -6.111000 -17.053900 -38.395400
H -5.916700 -9.292000 -30.390900
N -5.861600 -11.594600 -32.506500
C -5.839100 -15.942300 -38.821100
C -5.805400 -11.124800 -31.271800
N -5.795000 -13.108200 -34.674200
N -5.732800 -14.569100 -40.839300
N -5.645000 -13.754700 -35.828800
N -5.146100 -12.771100 -32.469500
N -5.114600 -15.020100 -38.170300
C -5.068900 -13.523900 -33.650000
C -5.057700 -11.977300 -30.438400
H -4.880100 -11.851700 -29.513300
H -4.851300 -14.238300 -38.528200
C -4.787700 -14.779300 -35.838400
C -4.637300 -13.018700 -31.211200
N -4.488100 -15.399200 -36.994500
H -4.304200 -15.009500 -30.967100
N -4.303300 -14.623900 -33.619300
N -4.169100 -15.288500 -34.743500
H -3.944100 -16.113900 -37.056600
C -3.798700 -14.181500 -30.827100
H -3.549700 -14.106400 -29.883500
H -2.988100 -14.195900 -31.379000
