35
Fragment
H -12.665000 -12.047200 -56.289400
H -12.390200 -12.273200 -54.728200
C -11.970900 -12.116200 -55.600700
H -11.456200 -11.283000 -55.570000
H -11.137600 -19.383500 -45.367000
N -11.087300 -13.845400 -57.078000
C -11.064700 -13.246000 -55.924600
H -10.543300 -20.055800 -46.692400
C -10.316900 -19.581700 -45.864600
O -10.148600 -14.862200 -56.998300
C -10.090700 -13.892300 -55.109400
O -9.924400 -12.381100 -53.320700
H -9.730100 -20.143000 -45.316300
N -9.675000 -17.840400 -47.431800
C -9.652400 -13.492700 -53.746400
C -9.618800 -18.310200 -46.197200
N -9.608400 -16.326800 -49.599500
N -9.546200 -14.865900 -55.764600
N -9.458300 -15.680300 -50.754200
N -8.959500 -16.663900 -47.394800
N -8.928000 -14.414900 -53.095700
C -8.882300 -15.911100 -48.575400
C -8.871100 -17.457700 -45.363700
H -8.693400 -17.583300 -44.438700
H -8.664700 -15.196700 -53.453600
C -8.601100 -14.655700 -50.763700
C -8.450700 -16.416300 -46.136600
N -8.301500 -14.035800 -51.919800
H -8.117600 -14.425500 -45.892400
N -8.116700 -14.811100 -48.544600
N -7.982500 -14.146500 -49.668800
H -7.757500 -13.321100 -51.981900
C -7.612100 -15.253500 -45.752400
H -7.363100 -15.328600 -44.808800
H -6.801500 -15.239100 -46.304300
35
Fragment
H -15.025100 -27.703000 -52.940100
N -14.301300 -27.184000 -53.070000
H -14.261500 -26.370200 -54.829700
N -14.213100 -26.933500 -50.832400
N -13.882200 -27.050400 -54.378900
N -13.848400 -27.114000 -57.102800
C -13.622600 -26.689400 -52.026400
N -13.583400 -26.518800 -49.763400
O -13.574700 -27.361600 -58.421900
H -13.308200 -27.479300 -47.268500
C -13.262200 -28.090400 -54.957100
C -13.192600 -28.011600 -56.437400
O -12.783200 -29.045500 -54.359200
N -12.718700 -28.454200 -58.547600
C -12.480100 -28.856500 -57.337100
N -12.477500 -26.002600 -52.214200
C -12.406400 -25.911300 -49.951500
C -12.338800 -27.571900 -47.376000
H -12.149800 -28.132800 -48.158100
H -12.134800 -30.746600 -56.674400
H -11.959000 -27.989200 -46.576000
N -11.841500 -25.617000 -51.113000
N -11.734200 -25.553800 -48.771800
C -11.730400 -26.227200 -47.572100
C -11.600000 -30.014600 -57.044300
H -11.166600 -30.313300 -57.871500
N -11.053200 -24.359800 -48.694200
C -11.033900 -25.440600 -46.705800
H -10.915000 -29.748200 -56.393900
H -10.851300 -25.623800 -45.790900
C -10.637800 -24.298500 -47.434200
H -10.396500 -22.679100 -46.229700
C -9.883500 -23.120800 -46.937500
H -9.736200 -22.491900 -47.674500
H -9.018700 -23.413800 -46.581900
70
Fragment
H -12.665000 -12.047200 -56.289400
H -12.390200 -12.273200 -54.728200
C -11.970900 -12.116200 -55.600700
H -11.456200 -11.283000 -55.570000
H -11.137600 -19.383500 -45.367000
N -11.087300 -13.845400 -57.078000
C -11.064700 -13.246000 -55.924600
H -10.543300 -20.055800 -46.692400
C -10.316900 -19.581700 -45.864600
O -10.148600 -14.862200 -56.998300
C -10.090700 -13.892300 -55.109400
O -9.924400 -12.381100 -53.320700
H -9.730100 -20.143000 -45.316300
N -9.675000 -17.840400 -47.431800
C -9.652400 -13.492700 -53.746400
C -9.618800 -18.310200 -46.197200
N -9.608400 -16.326800 -49.599500
N -9.546200 -14.865900 -55.764600
N -9.458300 -15.680300 -50.754200
N -8.959500 -16.663900 -47.394800
N -8.928000 -14.414900 -53.095700
C -8.882300 -15.911100 -48.575400
C -8.871100 -17.457700 -45.363700
H -8.693400 -17.583300 -44.438700
H -8.664700 -15.196700 -53.453600
C -8.601100 -14.655700 -50.763700
C -8.450700 -16.416300 -46.136600
N -8.301500 -14.035800 -51.919800
H -8.117600 -14.425500 -45.892400
N -8.116700 -14.811100 -48.544600
N -7.982500 -14.146500 -49.668800
H -7.757500 -13.321100 -51.981900
C -7.612100 -15.253500 -45.752400
H -7.363100 -15.328600 -44.808800
H -6.801500 -15.239100 -46.304300
H -15.025100 -27.703000 -52.940100
N -14.301300 -27.184000 -53.070000
H -14.261500 -26.370200 -54.829700
N -14.213100 -26.933500 -50.832400
N -13.882200 -27.050400 -54.378900
N -13.848400 -27.114000 -57.102800
C -13.622600 -26.689400 -52.026400
N -13.583400 -26.518800 -49.763400
O -13.574700 -27.361600 -58.421900
H -13.308200 -27.479300 -47.268500
C -13.262200 -28.090400 -54.957100
C -13.192600 -28.011600 -56.437400
O -12.783200 -29.045500 -54.359200
N -12.718700 -28.454200 -58.547600
C -12.480100 -28.856500 -57.337100
N -12.477500 -26.002600 -52.214200
C -12.406400 -25.911300 -49.951500
C -12.338800 -27.571900 -47.376000
H -12.149800 -28.132800 -48.158100
H -12.134800 -30.746600 -56.674400
H -11.959000 -27.989200 -46.576000
N -11.841500 -25.617000 -51.113000
N -11.734200 -25.553800 -48.771800
C -11.730400 -26.227200 -47.572100
C -11.600000 -30.014600 -57.044300
H -11.166600 -30.313300 -57.871500
N -11.053200 -24.359800 -48.694200
C -11.033900 -25.440600 -46.705800
H -10.915000 -29.748200 -56.393900
H -10.851300 -25.623800 -45.790900
C -10.637800 -24.298500 -47.434200
H -10.396500 -22.679100 -46.229700
C -9.883500 -23.120800 -46.937500
H -9.736200 -22.491900 -47.674500
H -9.018700 -23.413800 -46.581900
