35
Fragment
H -12.665000 -12.047200 -56.289400
H -12.390200 -12.273200 -54.728200
C -11.970900 -12.116200 -55.600700
H -11.456200 -11.283000 -55.570000
H -11.137600 -19.383500 -45.367000
N -11.087300 -13.845400 -57.078000
C -11.064700 -13.246000 -55.924600
H -10.543300 -20.055800 -46.692400
C -10.316900 -19.581700 -45.864600
O -10.148600 -14.862200 -56.998300
C -10.090700 -13.892300 -55.109400
O -9.924400 -12.381100 -53.320700
H -9.730100 -20.143000 -45.316300
N -9.675000 -17.840400 -47.431800
C -9.652400 -13.492700 -53.746400
C -9.618800 -18.310200 -46.197200
N -9.608400 -16.326800 -49.599500
N -9.546200 -14.865900 -55.764600
N -9.458300 -15.680300 -50.754200
N -8.959500 -16.663900 -47.394800
N -8.928000 -14.414900 -53.095700
C -8.882300 -15.911100 -48.575400
C -8.871100 -17.457700 -45.363700
H -8.693400 -17.583300 -44.438700
H -8.664700 -15.196700 -53.453600
C -8.601100 -14.655700 -50.763700
C -8.450700 -16.416300 -46.136600
N -8.301500 -14.035800 -51.919800
H -8.117600 -14.425500 -45.892400
N -8.116700 -14.811100 -48.544600
N -7.982500 -14.146500 -49.668800
H -7.757500 -13.321100 -51.981900
C -7.612100 -15.253500 -45.752400
H -7.363100 -15.328600 -44.808800
H -6.801500 -15.239100 -46.304300
35
Fragment
H -10.964200 -21.126100 -58.173000
H -10.402600 -21.215600 -59.668500
C -10.153600 -21.140500 -58.724900
H -10.008200 -19.208100 -52.495400
N -9.783300 -20.033500 -54.808500
N -9.649000 -20.698100 -55.932700
H -9.648100 -20.312500 -58.584900
N -9.464200 -19.922800 -52.557400
C -9.315000 -22.303300 -58.340700
C -9.164600 -20.542700 -53.713600
H -9.101000 -21.083700 -51.023700
H -9.072300 -23.470300 -60.038600
C -8.894700 -23.344700 -59.113500
C -8.883400 -21.798100 -55.901900
N -8.837700 -20.301900 -51.381600
N -8.806300 -22.550900 -57.082500
N -8.307400 -21.567300 -53.723100
N -8.219600 -20.752900 -48.712700
N -8.157300 -22.213800 -54.877700
C -8.147000 -24.197200 -58.280100
C -8.113300 -19.379700 -50.730900
N -8.090800 -23.727400 -57.045500
H -8.035600 -26.030000 -59.161000
O -7.841400 -18.268100 -51.156600
C -7.675100 -19.779300 -49.367900
O -7.617100 -20.749200 -47.479000
C -7.448800 -25.468700 -58.612700
H -7.222400 -25.942800 -57.784900
C -6.701000 -19.133000 -48.552700
N -6.678400 -19.732400 -47.399300
H -6.628100 -25.270500 -59.110300
H -6.309500 -17.170000 -48.907300
C -5.794800 -18.003200 -48.876600
H -5.375500 -18.160200 -49.749100
H -5.100800 -17.934200 -48.187900
70
Fragment
H -12.665000 -12.047200 -56.289400
H -12.390200 -12.273200 -54.728200
C -11.970900 -12.116200 -55.600700
H -11.456200 -11.283000 -55.570000
H -11.137600 -19.383500 -45.367000
N -11.087300 -13.845400 -57.078000
C -11.064700 -13.246000 -55.924600
H -10.543300 -20.055800 -46.692400
C -10.316900 -19.581700 -45.864600
O -10.148600 -14.862200 -56.998300
C -10.090700 -13.892300 -55.109400
O -9.924400 -12.381100 -53.320700
H -9.730100 -20.143000 -45.316300
N -9.675000 -17.840400 -47.431800
C -9.652400 -13.492700 -53.746400
C -9.618800 -18.310200 -46.197200
N -9.608400 -16.326800 -49.599500
N -9.546200 -14.865900 -55.764600
N -9.458300 -15.680300 -50.754200
N -8.959500 -16.663900 -47.394800
N -8.928000 -14.414900 -53.095700
C -8.882300 -15.911100 -48.575400
C -8.871100 -17.457700 -45.363700
H -8.693400 -17.583300 -44.438700
H -8.664700 -15.196700 -53.453600
C -8.601100 -14.655700 -50.763700
C -8.450700 -16.416300 -46.136600
N -8.301500 -14.035800 -51.919800
H -8.117600 -14.425500 -45.892400
N -8.116700 -14.811100 -48.544600
N -7.982500 -14.146500 -49.668800
H -7.757500 -13.321100 -51.981900
C -7.612100 -15.253500 -45.752400
H -7.363100 -15.328600 -44.808800
H -6.801500 -15.239100 -46.304300
H -10.964200 -21.126100 -58.173000
H -10.402600 -21.215600 -59.668500
C -10.153600 -21.140500 -58.724900
H -10.008200 -19.208100 -52.495400
N -9.783300 -20.033500 -54.808500
N -9.649000 -20.698100 -55.932700
H -9.648100 -20.312500 -58.584900
N -9.464200 -19.922800 -52.557400
C -9.315000 -22.303300 -58.340700
C -9.164600 -20.542700 -53.713600
H -9.101000 -21.083700 -51.023700
H -9.072300 -23.470300 -60.038600
C -8.894700 -23.344700 -59.113500
C -8.883400 -21.798100 -55.901900
N -8.837700 -20.301900 -51.381600
N -8.806300 -22.550900 -57.082500
N -8.307400 -21.567300 -53.723100
N -8.219600 -20.752900 -48.712700
N -8.157300 -22.213800 -54.877700
C -8.147000 -24.197200 -58.280100
C -8.113300 -19.379700 -50.730900
N -8.090800 -23.727400 -57.045500
H -8.035600 -26.030000 -59.161000
O -7.841400 -18.268100 -51.156600
C -7.675100 -19.779300 -49.367900
O -7.617100 -20.749200 -47.479000
C -7.448800 -25.468700 -58.612700
H -7.222400 -25.942800 -57.784900
C -6.701000 -19.133000 -48.552700
N -6.678400 -19.732400 -47.399300
H -6.628100 -25.270500 -59.110300
H -6.309500 -17.170000 -48.907300
C -5.794800 -18.003200 -48.876600
H -5.375500 -18.160200 -49.749100
H -5.100800 -17.934200 -48.187900
