35
Fragment
H -12.665000 -12.047200 -56.289400
H -12.390200 -12.273200 -54.728200
C -11.970900 -12.116200 -55.600700
H -11.456200 -11.283000 -55.570000
H -11.137600 -19.383500 -45.367000
N -11.087300 -13.845400 -57.078000
C -11.064700 -13.246000 -55.924600
H -10.543300 -20.055800 -46.692400
C -10.316900 -19.581700 -45.864600
O -10.148600 -14.862200 -56.998300
C -10.090700 -13.892300 -55.109400
O -9.924400 -12.381100 -53.320700
H -9.730100 -20.143000 -45.316300
N -9.675000 -17.840400 -47.431800
C -9.652400 -13.492700 -53.746400
C -9.618800 -18.310200 -46.197200
N -9.608400 -16.326800 -49.599500
N -9.546200 -14.865900 -55.764600
N -9.458300 -15.680300 -50.754200
N -8.959500 -16.663900 -47.394800
N -8.928000 -14.414900 -53.095700
C -8.882300 -15.911100 -48.575400
C -8.871100 -17.457700 -45.363700
H -8.693400 -17.583300 -44.438700
H -8.664700 -15.196700 -53.453600
C -8.601100 -14.655700 -50.763700
C -8.450700 -16.416300 -46.136600
N -8.301500 -14.035800 -51.919800
H -8.117600 -14.425500 -45.892400
N -8.116700 -14.811100 -48.544600
N -7.982500 -14.146500 -49.668800
H -7.757500 -13.321100 -51.981900
C -7.612100 -15.253500 -45.752400
H -7.363100 -15.328600 -44.808800
H -6.801500 -15.239100 -46.304300
3
Fragment
H -7.722800 -17.456100 -52.880400
O -7.690700 -16.908200 -53.530300
H -7.438900 -17.378400 -54.190900
38
Fragment
H -12.665000 -12.047200 -56.289400
H -12.390200 -12.273200 -54.728200
C -11.970900 -12.116200 -55.600700
H -11.456200 -11.283000 -55.570000
H -11.137600 -19.383500 -45.367000
N -11.087300 -13.845400 -57.078000
C -11.064700 -13.246000 -55.924600
H -10.543300 -20.055800 -46.692400
C -10.316900 -19.581700 -45.864600
O -10.148600 -14.862200 -56.998300
C -10.090700 -13.892300 -55.109400
O -9.924400 -12.381100 -53.320700
H -9.730100 -20.143000 -45.316300
N -9.675000 -17.840400 -47.431800
C -9.652400 -13.492700 -53.746400
C -9.618800 -18.310200 -46.197200
N -9.608400 -16.326800 -49.599500
N -9.546200 -14.865900 -55.764600
N -9.458300 -15.680300 -50.754200
N -8.959500 -16.663900 -47.394800
N -8.928000 -14.414900 -53.095700
C -8.882300 -15.911100 -48.575400
C -8.871100 -17.457700 -45.363700
H -8.693400 -17.583300 -44.438700
H -8.664700 -15.196700 -53.453600
C -8.601100 -14.655700 -50.763700
C -8.450700 -16.416300 -46.136600
N -8.301500 -14.035800 -51.919800
H -8.117600 -14.425500 -45.892400
N -8.116700 -14.811100 -48.544600
N -7.982500 -14.146500 -49.668800
H -7.757500 -13.321100 -51.981900
C -7.612100 -15.253500 -45.752400
H -7.363100 -15.328600 -44.808800
H -6.801500 -15.239100 -46.304300
H -7.722800 -17.456100 -52.880400
O -7.690700 -16.908200 -53.530300
H -7.438900 -17.378400 -54.190900
