35
Fragment
H -12.665000 -12.047200 -56.289400
H -12.390200 -12.273200 -54.728200
C -11.970900 -12.116200 -55.600700
H -11.456200 -11.283000 -55.570000
H -11.137600 -19.383500 -45.367000
N -11.087300 -13.845400 -57.078000
C -11.064700 -13.246000 -55.924600
H -10.543300 -20.055800 -46.692400
C -10.316900 -19.581700 -45.864600
O -10.148600 -14.862200 -56.998300
C -10.090700 -13.892300 -55.109400
O -9.924400 -12.381100 -53.320700
H -9.730100 -20.143000 -45.316300
N -9.675000 -17.840400 -47.431800
C -9.652400 -13.492700 -53.746400
C -9.618800 -18.310200 -46.197200
N -9.608400 -16.326800 -49.599500
N -9.546200 -14.865900 -55.764600
N -9.458300 -15.680300 -50.754200
N -8.959500 -16.663900 -47.394800
N -8.928000 -14.414900 -53.095700
C -8.882300 -15.911100 -48.575400
C -8.871100 -17.457700 -45.363700
H -8.693400 -17.583300 -44.438700
H -8.664700 -15.196700 -53.453600
C -8.601100 -14.655700 -50.763700
C -8.450700 -16.416300 -46.136600
N -8.301500 -14.035800 -51.919800
H -8.117600 -14.425500 -45.892400
N -8.116700 -14.811100 -48.544600
N -7.982500 -14.146500 -49.668800
H -7.757500 -13.321100 -51.981900
C -7.612100 -15.253500 -45.752400
H -7.363100 -15.328600 -44.808800
H -6.801500 -15.239100 -46.304300
35
Fragment
H -17.675000 -17.526800 -57.895300
H -16.957500 -16.604900 -56.802800
C -16.810200 -17.233800 -57.539800
H -16.297200 -16.792100 -58.247600
C -16.055900 -18.411500 -57.043100
H -15.842400 -19.736800 -58.686400
H -15.778700 -23.861200 -48.083400
C -15.659800 -19.553600 -57.771500
N -15.640500 -18.472800 -55.783100
H -15.527100 -24.426300 -46.605800
C -15.093800 -24.127600 -47.433000
C -14.963300 -20.340200 -56.905200
N -14.959600 -19.666800 -55.705500
N -14.852300 -19.730000 -53.364300
H -14.734700 -22.102200 -57.901300
H -14.558900 -24.859600 -47.802800
H -14.543900 -22.245800 -56.319200
C -14.354900 -21.684900 -57.101300
C -14.287400 -20.024300 -54.525800
N -14.216300 -20.115600 -52.263100
C -14.213600 -22.969500 -47.140200
N -13.975100 -22.567200 -45.929700
O -13.910500 -23.158500 -50.118100
C -13.501100 -22.124600 -48.039800
C -13.431500 -22.203400 -49.520100
H -13.385600 -21.592300 -57.208800
O -13.119000 -21.474600 -46.055400
N -13.110300 -20.631800 -54.713900
C -13.071100 -20.802400 -52.450900
N -12.845300 -21.227000 -47.374500
N -12.811500 -21.163400 -50.098400
N -12.480600 -21.046500 -53.644900
H -12.432200 -20.483200 -49.647600
N -12.392500 -21.297000 -51.407300
H -11.668600 -21.816000 -51.537200
70
Fragment
H -12.665000 -12.047200 -56.289400
H -12.390200 -12.273200 -54.728200
C -11.970900 -12.116200 -55.600700
H -11.456200 -11.283000 -55.570000
H -11.137600 -19.383500 -45.367000
N -11.087300 -13.845400 -57.078000
C -11.064700 -13.246000 -55.924600
H -10.543300 -20.055800 -46.692400
C -10.316900 -19.581700 -45.864600
O -10.148600 -14.862200 -56.998300
C -10.090700 -13.892300 -55.109400
O -9.924400 -12.381100 -53.320700
H -9.730100 -20.143000 -45.316300
N -9.675000 -17.840400 -47.431800
C -9.652400 -13.492700 -53.746400
C -9.618800 -18.310200 -46.197200
N -9.608400 -16.326800 -49.599500
N -9.546200 -14.865900 -55.764600
N -9.458300 -15.680300 -50.754200
N -8.959500 -16.663900 -47.394800
N -8.928000 -14.414900 -53.095700
C -8.882300 -15.911100 -48.575400
C -8.871100 -17.457700 -45.363700
H -8.693400 -17.583300 -44.438700
H -8.664700 -15.196700 -53.453600
C -8.601100 -14.655700 -50.763700
C -8.450700 -16.416300 -46.136600
N -8.301500 -14.035800 -51.919800
H -8.117600 -14.425500 -45.892400
N -8.116700 -14.811100 -48.544600
N -7.982500 -14.146500 -49.668800
H -7.757500 -13.321100 -51.981900
C -7.612100 -15.253500 -45.752400
H -7.363100 -15.328600 -44.808800
H -6.801500 -15.239100 -46.304300
H -17.675000 -17.526800 -57.895300
H -16.957500 -16.604900 -56.802800
C -16.810200 -17.233800 -57.539800
H -16.297200 -16.792100 -58.247600
C -16.055900 -18.411500 -57.043100
H -15.842400 -19.736800 -58.686400
H -15.778700 -23.861200 -48.083400
C -15.659800 -19.553600 -57.771500
N -15.640500 -18.472800 -55.783100
H -15.527100 -24.426300 -46.605800
C -15.093800 -24.127600 -47.433000
C -14.963300 -20.340200 -56.905200
N -14.959600 -19.666800 -55.705500
N -14.852300 -19.730000 -53.364300
H -14.734700 -22.102200 -57.901300
H -14.558900 -24.859600 -47.802800
H -14.543900 -22.245800 -56.319200
C -14.354900 -21.684900 -57.101300
C -14.287400 -20.024300 -54.525800
N -14.216300 -20.115600 -52.263100
C -14.213600 -22.969500 -47.140200
N -13.975100 -22.567200 -45.929700
O -13.910500 -23.158500 -50.118100
C -13.501100 -22.124600 -48.039800
C -13.431500 -22.203400 -49.520100
H -13.385600 -21.592300 -57.208800
O -13.119000 -21.474600 -46.055400
N -13.110300 -20.631800 -54.713900
C -13.071100 -20.802400 -52.450900
N -12.845300 -21.227000 -47.374500
N -12.811500 -21.163400 -50.098400
N -12.480600 -21.046500 -53.644900
H -12.432200 -20.483200 -49.647600
N -12.392500 -21.297000 -51.407300
H -11.668600 -21.816000 -51.537200
