24
Fragment
H -9.780700 -13.694400 -60.249300
C -9.385400 -13.038300 -59.719500
H -9.385000 -14.108700 -58.014600
H -9.228700 -11.671300 -61.184500
C -9.146300 -13.292900 -58.394100
C -9.047800 -11.818900 -60.283700
H -8.593500 -14.003100 -55.312200
C -8.537900 -12.306000 -57.628500
C -8.450000 -10.816300 -59.546200
C -8.237200 -13.153800 -55.181200
H -8.221000 -9.999800 -59.926100
C -8.210600 -11.090100 -58.216700
C -8.151100 -12.249600 -56.234000
H -7.829400 -13.360600 -53.221800
C -7.783200 -12.765200 -53.934600
N -7.620900 -10.265100 -57.227200
C -7.613300 -10.983200 -56.011500
C -7.262600 -11.506600 -53.734500
C -7.174500 -10.587400 -54.756300
H -7.102000 -8.706200 -58.313700
C -7.044800 -9.054900 -57.452800
H -6.962100 -11.270500 -52.884900
H -6.833200 -9.734500 -54.610800
O -6.464700 -8.398900 -56.624200
16
Fragment
N -8.980400 -15.787300 -52.369200
H -8.976700 -17.933000 -49.697800
N -8.766900 -19.591700 -46.722100
C -8.614000 -15.912800 -51.299900
C -8.524500 -17.249200 -49.258400
C -8.493900 -18.616200 -47.237100
C -8.204900 -16.082500 -49.932300
C -8.168200 -17.393900 -47.932700
C -7.524600 -15.047800 -49.271800
C -7.506900 -16.357100 -47.263300
C -7.179800 -15.197600 -47.929900
C -7.144400 -13.845500 -49.957000
C -7.137300 -16.508300 -45.884600
N -6.822700 -12.890000 -50.484800
N -6.810800 -16.589600 -44.794000
H -6.729500 -14.515900 -47.487100
40
Fragment
H -9.780700 -13.694400 -60.249300
C -9.385400 -13.038300 -59.719500
H -9.385000 -14.108700 -58.014600
H -9.228700 -11.671300 -61.184500
C -9.146300 -13.292900 -58.394100
C -9.047800 -11.818900 -60.283700
H -8.593500 -14.003100 -55.312200
C -8.537900 -12.306000 -57.628500
C -8.450000 -10.816300 -59.546200
C -8.237200 -13.153800 -55.181200
H -8.221000 -9.999800 -59.926100
C -8.210600 -11.090100 -58.216700
C -8.151100 -12.249600 -56.234000
H -7.829400 -13.360600 -53.221800
C -7.783200 -12.765200 -53.934600
N -7.620900 -10.265100 -57.227200
C -7.613300 -10.983200 -56.011500
C -7.262600 -11.506600 -53.734500
C -7.174500 -10.587400 -54.756300
H -7.102000 -8.706200 -58.313700
C -7.044800 -9.054900 -57.452800
H -6.962100 -11.270500 -52.884900
H -6.833200 -9.734500 -54.610800
O -6.464700 -8.398900 -56.624200
N -8.980400 -15.787300 -52.369200
H -8.976700 -17.933000 -49.697800
N -8.766900 -19.591700 -46.722100
C -8.614000 -15.912800 -51.299900
C -8.524500 -17.249200 -49.258400
C -8.493900 -18.616200 -47.237100
C -8.204900 -16.082500 -49.932300
C -8.168200 -17.393900 -47.932700
C -7.524600 -15.047800 -49.271800
C -7.506900 -16.357100 -47.263300
C -7.179800 -15.197600 -47.929900
C -7.144400 -13.845500 -49.957000
C -7.137300 -16.508300 -45.884600
N -6.822700 -12.890000 -50.484800
N -6.810800 -16.589600 -44.794000
H -6.729500 -14.515900 -47.487100
