24
Fragment
H -9.780700 -13.694400 -60.249300
C -9.385400 -13.038300 -59.719500
H -9.385000 -14.108700 -58.014600
H -9.228700 -11.671300 -61.184500
C -9.146300 -13.292900 -58.394100
C -9.047800 -11.818900 -60.283700
H -8.593500 -14.003100 -55.312200
C -8.537900 -12.306000 -57.628500
C -8.450000 -10.816300 -59.546200
C -8.237200 -13.153800 -55.181200
H -8.221000 -9.999800 -59.926100
C -8.210600 -11.090100 -58.216700
C -8.151100 -12.249600 -56.234000
H -7.829400 -13.360600 -53.221800
C -7.783200 -12.765200 -53.934600
N -7.620900 -10.265100 -57.227200
C -7.613300 -10.983200 -56.011500
C -7.262600 -11.506600 -53.734500
C -7.174500 -10.587400 -54.756300
H -7.102000 -8.706200 -58.313700
C -7.044800 -9.054900 -57.452800
H -6.962100 -11.270500 -52.884900
H -6.833200 -9.734500 -54.610800
O -6.464700 -8.398900 -56.624200
24
Fragment
O -14.871900 -11.964400 -63.709400
H -14.503300 -13.300000 -65.722800
H -14.374400 -14.836000 -67.448700
C -14.291700 -12.620400 -62.880800
H -14.234500 -12.271700 -62.019900
C -14.162000 -14.152900 -65.577300
C -14.073900 -15.072100 -66.599200
C -13.723200 -14.548700 -64.322100
N -13.715700 -13.830600 -63.106400
C -13.553400 -16.330700 -66.399100
H -13.507200 -16.926100 -67.111800
C -13.185400 -15.815100 -64.099700
C -13.125900 -14.655600 -62.116900
H -13.115500 -13.565300 -60.407500
C -13.099400 -16.719300 -65.152400
C -12.886600 -14.381800 -60.787400
C -12.798700 -15.871500 -62.705200
H -12.743000 -17.568600 -65.021400
C -12.288700 -15.384400 -60.049900
C -12.190200 -16.858400 -61.939500
H -12.107800 -15.236800 -59.149100
H -11.951500 -17.674200 -62.319100
C -11.951200 -16.603800 -60.614100
H -11.555800 -17.259900 -60.084300
48
Fragment
H -9.780700 -13.694400 -60.249300
C -9.385400 -13.038300 -59.719500
H -9.385000 -14.108700 -58.014600
H -9.228700 -11.671300 -61.184500
C -9.146300 -13.292900 -58.394100
C -9.047800 -11.818900 -60.283700
H -8.593500 -14.003100 -55.312200
C -8.537900 -12.306000 -57.628500
C -8.450000 -10.816300 -59.546200
C -8.237200 -13.153800 -55.181200
H -8.221000 -9.999800 -59.926100
C -8.210600 -11.090100 -58.216700
C -8.151100 -12.249600 -56.234000
H -7.829400 -13.360600 -53.221800
C -7.783200 -12.765200 -53.934600
N -7.620900 -10.265100 -57.227200
C -7.613300 -10.983200 -56.011500
C -7.262600 -11.506600 -53.734500
C -7.174500 -10.587400 -54.756300
H -7.102000 -8.706200 -58.313700
C -7.044800 -9.054900 -57.452800
H -6.962100 -11.270500 -52.884900
H -6.833200 -9.734500 -54.610800
O -6.464700 -8.398900 -56.624200
O -14.871900 -11.964400 -63.709400
H -14.503300 -13.300000 -65.722800
H -14.374400 -14.836000 -67.448700
C -14.291700 -12.620400 -62.880800
H -14.234500 -12.271700 -62.019900
C -14.162000 -14.152900 -65.577300
C -14.073900 -15.072100 -66.599200
C -13.723200 -14.548700 -64.322100
N -13.715700 -13.830600 -63.106400
C -13.553400 -16.330700 -66.399100
H -13.507200 -16.926100 -67.111800
C -13.185400 -15.815100 -64.099700
C -13.125900 -14.655600 -62.116900
H -13.115500 -13.565300 -60.407500
C -13.099400 -16.719300 -65.152400
C -12.886600 -14.381800 -60.787400
C -12.798700 -15.871500 -62.705200
H -12.743000 -17.568600 -65.021400
C -12.288700 -15.384400 -60.049900
C -12.190200 -16.858400 -61.939500
H -12.107800 -15.236800 -59.149100
H -11.951500 -17.674200 -62.319100
C -11.951200 -16.603800 -60.614100
H -11.555800 -17.259900 -60.084300
