24
Fragment
H -9.780700 -13.694400 -60.249300
C -9.385400 -13.038300 -59.719500
H -9.385000 -14.108700 -58.014600
H -9.228700 -11.671300 -61.184500
C -9.146300 -13.292900 -58.394100
C -9.047800 -11.818900 -60.283700
H -8.593500 -14.003100 -55.312200
C -8.537900 -12.306000 -57.628500
C -8.450000 -10.816300 -59.546200
C -8.237200 -13.153800 -55.181200
H -8.221000 -9.999800 -59.926100
C -8.210600 -11.090100 -58.216700
C -8.151100 -12.249600 -56.234000
H -7.829400 -13.360600 -53.221800
C -7.783200 -12.765200 -53.934600
N -7.620900 -10.265100 -57.227200
C -7.613300 -10.983200 -56.011500
C -7.262600 -11.506600 -53.734500
C -7.174500 -10.587400 -54.756300
H -7.102000 -8.706200 -58.313700
C -7.044800 -9.054900 -57.452800
H -6.962100 -11.270500 -52.884900
H -6.833200 -9.734500 -54.610800
O -6.464700 -8.398900 -56.624200
16
Fragment
H -12.633100 -21.139100 -55.656000
N -12.551900 -19.065400 -58.349100
N -12.539900 -22.765000 -52.658300
C -12.225300 -19.146700 -57.258500
C -12.218200 -21.809500 -53.186100
C -12.182800 -20.457400 -55.213200
C -11.855700 -19.297900 -55.879800
C -11.838000 -20.607200 -53.871300
C -11.194400 -18.261100 -55.210400
C -11.157700 -19.572500 -53.210800
C -10.868700 -17.038800 -55.906000
C -10.838100 -18.405800 -53.884700
C -10.748600 -19.742200 -51.843200
N -10.595700 -16.063300 -56.421000
H -10.386000 -17.722000 -53.445300
N -10.382200 -19.867700 -50.773900
40
Fragment
H -9.780700 -13.694400 -60.249300
C -9.385400 -13.038300 -59.719500
H -9.385000 -14.108700 -58.014600
H -9.228700 -11.671300 -61.184500
C -9.146300 -13.292900 -58.394100
C -9.047800 -11.818900 -60.283700
H -8.593500 -14.003100 -55.312200
C -8.537900 -12.306000 -57.628500
C -8.450000 -10.816300 -59.546200
C -8.237200 -13.153800 -55.181200
H -8.221000 -9.999800 -59.926100
C -8.210600 -11.090100 -58.216700
C -8.151100 -12.249600 -56.234000
H -7.829400 -13.360600 -53.221800
C -7.783200 -12.765200 -53.934600
N -7.620900 -10.265100 -57.227200
C -7.613300 -10.983200 -56.011500
C -7.262600 -11.506600 -53.734500
C -7.174500 -10.587400 -54.756300
H -7.102000 -8.706200 -58.313700
C -7.044800 -9.054900 -57.452800
H -6.962100 -11.270500 -52.884900
H -6.833200 -9.734500 -54.610800
O -6.464700 -8.398900 -56.624200
H -12.633100 -21.139100 -55.656000
N -12.551900 -19.065400 -58.349100
N -12.539900 -22.765000 -52.658300
C -12.225300 -19.146700 -57.258500
C -12.218200 -21.809500 -53.186100
C -12.182800 -20.457400 -55.213200
C -11.855700 -19.297900 -55.879800
C -11.838000 -20.607200 -53.871300
C -11.194400 -18.261100 -55.210400
C -11.157700 -19.572500 -53.210800
C -10.868700 -17.038800 -55.906000
C -10.838100 -18.405800 -53.884700
C -10.748600 -19.742200 -51.843200
N -10.595700 -16.063300 -56.421000
H -10.386000 -17.722000 -53.445300
N -10.382200 -19.867700 -50.773900
