28
Fragment
H -17.469700 -19.743100 -23.318900
H -17.040500 -19.075400 -25.744800
H -16.729400 -19.921700 -21.158600
C -16.585700 -19.530100 -23.120200
C -16.168800 -18.870200 -25.492300
C -16.134700 -19.664300 -21.825000
C -15.743600 -19.083200 -24.138400
H -15.616300 -18.232500 -27.263300
C -15.308100 -18.375600 -26.398200
C -14.824700 -19.423700 -21.500700
H -14.535000 -19.543500 -20.625900
O -14.460000 -17.260900 -28.974600
C -14.401000 -18.802600 -23.807700
C -13.975800 -18.061700 -26.113000
C -13.918000 -18.996700 -22.488000
C -13.524500 -18.307900 -24.799900
C -13.407700 -17.120100 -28.402100
C -13.060300 -17.510500 -27.056400
H -12.733000 -16.705300 -28.889200
C -12.585200 -18.723800 -22.186600
H -12.277100 -18.865800 -21.321500
C -12.159200 -18.039500 -24.446400
C -11.753600 -17.260900 -26.681600
C -11.750900 -18.268000 -23.100600
C -11.317100 -17.524900 -25.406000
H -11.158800 -16.909300 -27.304000
H -10.870900 -18.089400 -22.859500
H -10.430200 -17.350800 -25.184400
28
Fragment
H -8.889700 -19.743100 -23.318900
H -8.460500 -19.075400 -25.744800
H -8.149400 -19.921700 -21.158600
C -8.005700 -19.530100 -23.120200
C -7.588800 -18.870200 -25.492300
C -7.554700 -19.664300 -21.825000
C -7.163600 -19.083200 -24.138400
H -7.036300 -18.232500 -27.263300
C -6.728100 -18.375600 -26.398200
C -6.244700 -19.423700 -21.500700
H -5.955000 -19.543500 -20.625900
O -5.880000 -17.260900 -28.974600
C -5.821000 -18.802600 -23.807700
C -5.395800 -18.061700 -26.113000
C -5.338000 -18.996700 -22.488000
C -4.944500 -18.307900 -24.799900
C -4.827700 -17.120100 -28.402100
C -4.480300 -17.510500 -27.056400
H -4.153000 -16.705300 -28.889200
C -4.005200 -18.723800 -22.186600
H -3.697100 -18.865800 -21.321500
C -3.579200 -18.039500 -24.446400
C -3.173600 -17.260900 -26.681600
C -3.170900 -18.268000 -23.100600
C -2.737100 -17.524900 -25.406000
H -2.578800 -16.909300 -27.304000
H -2.290900 -18.089400 -22.859500
H -1.850200 -17.350800 -25.184400
56
Fragment
H -17.469700 -19.743100 -23.318900
H -17.040500 -19.075400 -25.744800
H -16.729400 -19.921700 -21.158600
C -16.585700 -19.530100 -23.120200
C -16.168800 -18.870200 -25.492300
C -16.134700 -19.664300 -21.825000
C -15.743600 -19.083200 -24.138400
H -15.616300 -18.232500 -27.263300
C -15.308100 -18.375600 -26.398200
C -14.824700 -19.423700 -21.500700
H -14.535000 -19.543500 -20.625900
O -14.460000 -17.260900 -28.974600
C -14.401000 -18.802600 -23.807700
C -13.975800 -18.061700 -26.113000
C -13.918000 -18.996700 -22.488000
C -13.524500 -18.307900 -24.799900
C -13.407700 -17.120100 -28.402100
C -13.060300 -17.510500 -27.056400
H -12.733000 -16.705300 -28.889200
C -12.585200 -18.723800 -22.186600
H -12.277100 -18.865800 -21.321500
C -12.159200 -18.039500 -24.446400
C -11.753600 -17.260900 -26.681600
C -11.750900 -18.268000 -23.100600
C -11.317100 -17.524900 -25.406000
H -11.158800 -16.909300 -27.304000
H -10.870900 -18.089400 -22.859500
H -10.430200 -17.350800 -25.184400
H -8.889700 -19.743100 -23.318900
H -8.460500 -19.075400 -25.744800
H -8.149400 -19.921700 -21.158600
C -8.005700 -19.530100 -23.120200
C -7.588800 -18.870200 -25.492300
C -7.554700 -19.664300 -21.825000
C -7.163600 -19.083200 -24.138400
H -7.036300 -18.232500 -27.263300
C -6.728100 -18.375600 -26.398200
C -6.244700 -19.423700 -21.500700
H -5.955000 -19.543500 -20.625900
O -5.880000 -17.260900 -28.974600
C -5.821000 -18.802600 -23.807700
C -5.395800 -18.061700 -26.113000
C -5.338000 -18.996700 -22.488000
C -4.944500 -18.307900 -24.799900
C -4.827700 -17.120100 -28.402100
C -4.480300 -17.510500 -27.056400
H -4.153000 -16.705300 -28.889200
C -4.005200 -18.723800 -22.186600
H -3.697100 -18.865800 -21.321500
C -3.579200 -18.039500 -24.446400
C -3.173600 -17.260900 -26.681600
C -3.170900 -18.268000 -23.100600
C -2.737100 -17.524900 -25.406000
H -2.578800 -16.909300 -27.304000
H -2.290900 -18.089400 -22.859500
H -1.850200 -17.350800 -25.184400
