31
Fragment
O -12.009900 -38.634100 -12.457900
H -11.867600 -38.788500 -15.076500
H -11.450000 -41.635300 -14.539300
C -11.428600 -39.404600 -13.214300
C -11.190500 -41.820700 -13.666100
C -11.081800 -40.779100 -12.758800
C -11.071100 -39.011200 -14.590500
H -11.013100 -43.815600 -13.932800
C -10.920200 -43.136900 -13.302600
C -10.648500 -41.052400 -11.429100
H -10.624900 -39.740500 -15.026200
H -10.594900 -39.150900 -10.678300
C -10.515500 -43.452000 -12.022200
H -10.487600 -38.248100 -14.563900
C -10.441900 -40.040900 -10.452400
C -10.383900 -42.393800 -11.069400
H -10.341000 -45.477000 -12.215900
C -10.242400 -44.786600 -11.600800
C -10.025700 -40.344600 -9.199600
C -9.962100 -42.717100 -9.736800
H -9.881300 -39.654500 -8.591300
C -9.846300 -45.089700 -10.348000
C -9.804100 -41.681900 -8.790600
C -9.695400 -44.059100 -9.370500
H -9.669700 -45.974400 -10.119300
C -9.343600 -42.006800 -7.499800
C -9.266400 -44.327500 -8.065500
H -9.207800 -41.334300 -6.873400
H -9.096200 -45.206700 -7.810100
C -9.093400 -43.315000 -7.160000
H -8.801600 -43.517700 -6.300100
31
Fragment
H -12.648400 -48.609300 -11.045600
C -12.356600 -48.812000 -11.905500
H -12.353800 -46.920300 -12.555600
H -12.242200 -50.792700 -11.618900
C -12.183600 -47.799500 -12.811000
C -12.106400 -50.120200 -12.245300
H -11.780300 -46.152600 -14.864800
C -11.754600 -48.067900 -14.116000
C -11.645900 -50.445100 -13.536100
C -11.603700 -47.037300 -15.093500
H -11.568700 -52.472500 -13.336800
C -11.487900 -49.409900 -14.482300
C -11.424300 -51.782400 -13.945100
C -11.207600 -47.340400 -16.346300
H -11.109000 -46.650000 -16.961400
C -11.066100 -49.733200 -15.814900
C -11.008100 -52.086100 -15.197900
H -10.962400 -53.878900 -19.309400
C -10.934500 -48.675000 -16.767700
H -10.855100 -52.976100 -15.423800
H -10.825100 -52.386500 -19.771700
C -10.801500 -51.074600 -16.174600
C -10.529800 -48.990100 -18.048100
H -10.436900 -48.311400 -18.678300
C -10.378900 -53.115800 -19.336000
C -10.368200 -51.347900 -17.504300
C -10.259500 -50.306300 -18.411600
C -10.021400 -52.722400 -17.959800
H -10.000000 -50.491700 -19.284800
H -9.582400 -53.338500 -19.822000
O -9.440100 -53.492900 -17.203400
62
Fragment
O -12.009900 -38.634100 -12.457900
H -11.867600 -38.788500 -15.076500
H -11.450000 -41.635300 -14.539300
C -11.428600 -39.404600 -13.214300
C -11.190500 -41.820700 -13.666100
C -11.081800 -40.779100 -12.758800
C -11.071100 -39.011200 -14.590500
H -11.013100 -43.815600 -13.932800
C -10.920200 -43.136900 -13.302600
C -10.648500 -41.052400 -11.429100
H -10.624900 -39.740500 -15.026200
H -10.594900 -39.150900 -10.678300
C -10.515500 -43.452000 -12.022200
H -10.487600 -38.248100 -14.563900
C -10.441900 -40.040900 -10.452400
C -10.383900 -42.393800 -11.069400
H -10.341000 -45.477000 -12.215900
C -10.242400 -44.786600 -11.600800
C -10.025700 -40.344600 -9.199600
C -9.962100 -42.717100 -9.736800
H -9.881300 -39.654500 -8.591300
C -9.846300 -45.089700 -10.348000
C -9.804100 -41.681900 -8.790600
C -9.695400 -44.059100 -9.370500
H -9.669700 -45.974400 -10.119300
C -9.343600 -42.006800 -7.499800
C -9.266400 -44.327500 -8.065500
H -9.207800 -41.334300 -6.873400
H -9.096200 -45.206700 -7.810100
C -9.093400 -43.315000 -7.160000
H -8.801600 -43.517700 -6.300100
H -12.648400 -48.609300 -11.045600
C -12.356600 -48.812000 -11.905500
H -12.353800 -46.920300 -12.555600
H -12.242200 -50.792700 -11.618900
C -12.183600 -47.799500 -12.811000
C -12.106400 -50.120200 -12.245300
H -11.780300 -46.152600 -14.864800
C -11.754600 -48.067900 -14.116000
C -11.645900 -50.445100 -13.536100
C -11.603700 -47.037300 -15.093500
H -11.568700 -52.472500 -13.336800
C -11.487900 -49.409900 -14.482300
C -11.424300 -51.782400 -13.945100
C -11.207600 -47.340400 -16.346300
H -11.109000 -46.650000 -16.961400
C -11.066100 -49.733200 -15.814900
C -11.008100 -52.086100 -15.197900
H -10.962400 -53.878900 -19.309400
C -10.934500 -48.675000 -16.767700
H -10.855100 -52.976100 -15.423800
H -10.825100 -52.386500 -19.771700
C -10.801500 -51.074600 -16.174600
C -10.529800 -48.990100 -18.048100
H -10.436900 -48.311400 -18.678300
C -10.378900 -53.115800 -19.336000
C -10.368200 -51.347900 -17.504300
C -10.259500 -50.306300 -18.411600
C -10.021400 -52.722400 -17.959800
H -10.000000 -50.491700 -19.284800
H -9.582400 -53.338500 -19.822000
O -9.440100 -53.492900 -17.203400
