28
Fragment
H -17.469700 -19.743100 -23.318900
H -17.040500 -19.075400 -25.744800
H -16.729400 -19.921700 -21.158600
C -16.585700 -19.530100 -23.120200
C -16.168800 -18.870200 -25.492300
C -16.134700 -19.664300 -21.825000
C -15.743600 -19.083200 -24.138400
H -15.616300 -18.232500 -27.263300
C -15.308100 -18.375600 -26.398200
C -14.824700 -19.423700 -21.500700
H -14.535000 -19.543500 -20.625900
O -14.460000 -17.260900 -28.974600
C -14.401000 -18.802600 -23.807700
C -13.975800 -18.061700 -26.113000
C -13.918000 -18.996700 -22.488000
C -13.524500 -18.307900 -24.799900
C -13.407700 -17.120100 -28.402100
C -13.060300 -17.510500 -27.056400
H -12.733000 -16.705300 -28.889200
C -12.585200 -18.723800 -22.186600
H -12.277100 -18.865800 -21.321500
C -12.159200 -18.039500 -24.446400
C -11.753600 -17.260900 -26.681600
C -11.750900 -18.268000 -23.100600
C -11.317100 -17.524900 -25.406000
H -11.158800 -16.909300 -27.304000
H -10.870900 -18.089400 -22.859500
H -10.430200 -17.350800 -25.184400
28
Fragment
H -17.403000 -15.922200 -23.692000
H -16.962300 -15.183600 -26.016900
H -16.674500 -16.363700 -21.572400
C -16.516100 -15.748100 -23.470500
C -16.082300 -15.005000 -25.775800
C -16.079600 -16.012100 -22.194800
C -15.674000 -15.233500 -24.430100
H -15.556200 -14.407200 -27.554900
C -15.248000 -14.549200 -26.689800
H -15.100200 -16.567700 -19.987200
C -14.772900 -15.762500 -21.820100
C -14.425500 -16.152900 -20.474300
C -14.308700 -14.965100 -24.076500
C -13.915200 -14.276300 -26.388400
C -13.857500 -15.211300 -22.763400
C -13.432200 -14.470400 -25.068700
O -13.373200 -16.012100 -19.901800
H -13.298200 -13.729500 -28.250600
C -13.008500 -13.849300 -27.375700
C -12.525100 -14.897400 -22.478300
H -12.216900 -15.040500 -21.613200
C -12.089600 -14.189800 -24.738000
C -11.698500 -13.608700 -27.051500
C -11.664400 -14.402800 -23.384100
C -11.247500 -13.742900 -25.756200
H -11.103800 -13.351300 -27.717800
H -10.792700 -14.197600 -23.131600
H -10.363500 -13.529900 -25.557500
56
Fragment
H -17.469700 -19.743100 -23.318900
H -17.040500 -19.075400 -25.744800
H -16.729400 -19.921700 -21.158600
C -16.585700 -19.530100 -23.120200
C -16.168800 -18.870200 -25.492300
C -16.134700 -19.664300 -21.825000
C -15.743600 -19.083200 -24.138400
H -15.616300 -18.232500 -27.263300
C -15.308100 -18.375600 -26.398200
C -14.824700 -19.423700 -21.500700
H -14.535000 -19.543500 -20.625900
O -14.460000 -17.260900 -28.974600
C -14.401000 -18.802600 -23.807700
C -13.975800 -18.061700 -26.113000
C -13.918000 -18.996700 -22.488000
C -13.524500 -18.307900 -24.799900
C -13.407700 -17.120100 -28.402100
C -13.060300 -17.510500 -27.056400
H -12.733000 -16.705300 -28.889200
C -12.585200 -18.723800 -22.186600
H -12.277100 -18.865800 -21.321500
C -12.159200 -18.039500 -24.446400
C -11.753600 -17.260900 -26.681600
C -11.750900 -18.268000 -23.100600
C -11.317100 -17.524900 -25.406000
H -11.158800 -16.909300 -27.304000
H -10.870900 -18.089400 -22.859500
H -10.430200 -17.350800 -25.184400
H -17.403000 -15.922200 -23.692000
H -16.962300 -15.183600 -26.016900
H -16.674500 -16.363700 -21.572400
C -16.516100 -15.748100 -23.470500
C -16.082300 -15.005000 -25.775800
C -16.079600 -16.012100 -22.194800
C -15.674000 -15.233500 -24.430100
H -15.556200 -14.407200 -27.554900
C -15.248000 -14.549200 -26.689800
H -15.100200 -16.567700 -19.987200
C -14.772900 -15.762500 -21.820100
C -14.425500 -16.152900 -20.474300
C -14.308700 -14.965100 -24.076500
C -13.915200 -14.276300 -26.388400
C -13.857500 -15.211300 -22.763400
C -13.432200 -14.470400 -25.068700
O -13.373200 -16.012100 -19.901800
H -13.298200 -13.729500 -28.250600
C -13.008500 -13.849300 -27.375700
C -12.525100 -14.897400 -22.478300
H -12.216900 -15.040500 -21.613200
C -12.089600 -14.189800 -24.738000
C -11.698500 -13.608700 -27.051500
C -11.664400 -14.402800 -23.384100
C -11.247500 -13.742900 -25.756200
H -11.103800 -13.351300 -27.717800
H -10.792700 -14.197600 -23.131600
H -10.363500 -13.529900 -25.557500
