31
Fragment
O -12.009900 -38.634100 -12.457900
H -11.867600 -38.788500 -15.076500
H -11.450000 -41.635300 -14.539300
C -11.428600 -39.404600 -13.214300
C -11.190500 -41.820700 -13.666100
C -11.081800 -40.779100 -12.758800
C -11.071100 -39.011200 -14.590500
H -11.013100 -43.815600 -13.932800
C -10.920200 -43.136900 -13.302600
C -10.648500 -41.052400 -11.429100
H -10.624900 -39.740500 -15.026200
H -10.594900 -39.150900 -10.678300
C -10.515500 -43.452000 -12.022200
H -10.487600 -38.248100 -14.563900
C -10.441900 -40.040900 -10.452400
C -10.383900 -42.393800 -11.069400
H -10.341000 -45.477000 -12.215900
C -10.242400 -44.786600 -11.600800
C -10.025700 -40.344600 -9.199600
C -9.962100 -42.717100 -9.736800
H -9.881300 -39.654500 -8.591300
C -9.846300 -45.089700 -10.348000
C -9.804100 -41.681900 -8.790600
C -9.695400 -44.059100 -9.370500
H -9.669700 -45.974400 -10.119300
C -9.343600 -42.006800 -7.499800
C -9.266400 -44.327500 -8.065500
H -9.207800 -41.334300 -6.873400
H -9.096200 -45.206700 -7.810100
C -9.093400 -43.315000 -7.160000
H -8.801600 -43.517700 -6.300100
16
Fragment
N -14.889900 -41.309400 -23.651600
C -14.583900 -41.652200 -22.612300
N -14.435100 -45.143800 -22.959700
C -14.233500 -44.394800 -22.119700
C -14.190600 -42.091300 -21.300700
H -14.175600 -40.277900 -20.436000
C -14.019700 -41.180500 -20.279400
C -14.011100 -43.454500 -21.052900
C -13.622900 -41.597200 -19.031400
C -13.621500 -43.884400 -19.796300
H -13.496300 -44.792100 -19.630200
C -13.478500 -40.624900 -17.991100
C -13.419800 -42.961300 -18.792200
N -13.353300 -39.833300 -17.181600
C -12.982300 -43.413300 -17.482400
N -12.620500 -43.777200 -16.474500
47
Fragment
O -12.009900 -38.634100 -12.457900
H -11.867600 -38.788500 -15.076500
H -11.450000 -41.635300 -14.539300
C -11.428600 -39.404600 -13.214300
C -11.190500 -41.820700 -13.666100
C -11.081800 -40.779100 -12.758800
C -11.071100 -39.011200 -14.590500
H -11.013100 -43.815600 -13.932800
C -10.920200 -43.136900 -13.302600
C -10.648500 -41.052400 -11.429100
H -10.624900 -39.740500 -15.026200
H -10.594900 -39.150900 -10.678300
C -10.515500 -43.452000 -12.022200
H -10.487600 -38.248100 -14.563900
C -10.441900 -40.040900 -10.452400
C -10.383900 -42.393800 -11.069400
H -10.341000 -45.477000 -12.215900
C -10.242400 -44.786600 -11.600800
C -10.025700 -40.344600 -9.199600
C -9.962100 -42.717100 -9.736800
H -9.881300 -39.654500 -8.591300
C -9.846300 -45.089700 -10.348000
C -9.804100 -41.681900 -8.790600
C -9.695400 -44.059100 -9.370500
H -9.669700 -45.974400 -10.119300
C -9.343600 -42.006800 -7.499800
C -9.266400 -44.327500 -8.065500
H -9.207800 -41.334300 -6.873400
H -9.096200 -45.206700 -7.810100
C -9.093400 -43.315000 -7.160000
H -8.801600 -43.517700 -6.300100
N -14.889900 -41.309400 -23.651600
C -14.583900 -41.652200 -22.612300
N -14.435100 -45.143800 -22.959700
C -14.233500 -44.394800 -22.119700
C -14.190600 -42.091300 -21.300700
H -14.175600 -40.277900 -20.436000
C -14.019700 -41.180500 -20.279400
C -14.011100 -43.454500 -21.052900
C -13.622900 -41.597200 -19.031400
C -13.621500 -43.884400 -19.796300
H -13.496300 -44.792100 -19.630200
C -13.478500 -40.624900 -17.991100
C -13.419800 -42.961300 -18.792200
N -13.353300 -39.833300 -17.181600
C -12.982300 -43.413300 -17.482400
N -12.620500 -43.777200 -16.474500
