28
Fragment
H -17.469700 -19.743100 -23.318900
H -17.040500 -19.075400 -25.744800
H -16.729400 -19.921700 -21.158600
C -16.585700 -19.530100 -23.120200
C -16.168800 -18.870200 -25.492300
C -16.134700 -19.664300 -21.825000
C -15.743600 -19.083200 -24.138400
H -15.616300 -18.232500 -27.263300
C -15.308100 -18.375600 -26.398200
C -14.824700 -19.423700 -21.500700
H -14.535000 -19.543500 -20.625900
O -14.460000 -17.260900 -28.974600
C -14.401000 -18.802600 -23.807700
C -13.975800 -18.061700 -26.113000
C -13.918000 -18.996700 -22.488000
C -13.524500 -18.307900 -24.799900
C -13.407700 -17.120100 -28.402100
C -13.060300 -17.510500 -27.056400
H -12.733000 -16.705300 -28.889200
C -12.585200 -18.723800 -22.186600
H -12.277100 -18.865800 -21.321500
C -12.159200 -18.039500 -24.446400
C -11.753600 -17.260900 -26.681600
C -11.750900 -18.268000 -23.100600
C -11.317100 -17.524900 -25.406000
H -11.158800 -16.909300 -27.304000
H -10.870900 -18.089400 -22.859500
H -10.430200 -17.350800 -25.184400
28
Fragment
H -14.260800 -19.075400 -15.172900
H -13.831600 -19.743100 -17.598800
H -13.520500 -18.896800 -13.012500
C -13.376900 -19.288400 -14.974100
C -12.959900 -19.948300 -17.346200
C -12.925900 -19.154200 -13.678900
C -12.534700 -19.735300 -15.992400
H -12.407400 -20.586000 -19.117200
C -12.099300 -20.442900 -18.252100
C -11.615800 -19.394800 -13.354700
H -11.326100 -19.275000 -12.479800
O -11.251100 -21.557600 -20.828500
C -11.192100 -20.015900 -15.661600
C -10.766900 -20.756800 -17.967000
C -10.709200 -19.821800 -14.342000
C -10.315700 -20.510600 -16.653800
C -10.198800 -21.698400 -20.256000
C -9.851500 -21.308000 -18.910300
H -9.524100 -22.113200 -20.743200
C -9.376400 -20.094700 -14.040600
H -9.068200 -19.952700 -13.175500
C -8.950300 -20.779000 -16.300300
C -8.544700 -21.557600 -18.535600
C -8.542100 -20.550500 -14.954600
C -8.108300 -21.293600 -17.259900
H -7.949900 -21.909200 -19.157900
H -7.662000 -20.729100 -14.713400
H -7.221300 -21.467700 -17.038300
56
Fragment
H -17.469700 -19.743100 -23.318900
H -17.040500 -19.075400 -25.744800
H -16.729400 -19.921700 -21.158600
C -16.585700 -19.530100 -23.120200
C -16.168800 -18.870200 -25.492300
C -16.134700 -19.664300 -21.825000
C -15.743600 -19.083200 -24.138400
H -15.616300 -18.232500 -27.263300
C -15.308100 -18.375600 -26.398200
C -14.824700 -19.423700 -21.500700
H -14.535000 -19.543500 -20.625900
O -14.460000 -17.260900 -28.974600
C -14.401000 -18.802600 -23.807700
C -13.975800 -18.061700 -26.113000
C -13.918000 -18.996700 -22.488000
C -13.524500 -18.307900 -24.799900
C -13.407700 -17.120100 -28.402100
C -13.060300 -17.510500 -27.056400
H -12.733000 -16.705300 -28.889200
C -12.585200 -18.723800 -22.186600
H -12.277100 -18.865800 -21.321500
C -12.159200 -18.039500 -24.446400
C -11.753600 -17.260900 -26.681600
C -11.750900 -18.268000 -23.100600
C -11.317100 -17.524900 -25.406000
H -11.158800 -16.909300 -27.304000
H -10.870900 -18.089400 -22.859500
H -10.430200 -17.350800 -25.184400
H -14.260800 -19.075400 -15.172900
H -13.831600 -19.743100 -17.598800
H -13.520500 -18.896800 -13.012500
C -13.376900 -19.288400 -14.974100
C -12.959900 -19.948300 -17.346200
C -12.925900 -19.154200 -13.678900
C -12.534700 -19.735300 -15.992400
H -12.407400 -20.586000 -19.117200
C -12.099300 -20.442900 -18.252100
C -11.615800 -19.394800 -13.354700
H -11.326100 -19.275000 -12.479800
O -11.251100 -21.557600 -20.828500
C -11.192100 -20.015900 -15.661600
C -10.766900 -20.756800 -17.967000
C -10.709200 -19.821800 -14.342000
C -10.315700 -20.510600 -16.653800
C -10.198800 -21.698400 -20.256000
C -9.851500 -21.308000 -18.910300
H -9.524100 -22.113200 -20.743200
C -9.376400 -20.094700 -14.040600
H -9.068200 -19.952700 -13.175500
C -8.950300 -20.779000 -16.300300
C -8.544700 -21.557600 -18.535600
C -8.542100 -20.550500 -14.954600
C -8.108300 -21.293600 -17.259900
H -7.949900 -21.909200 -19.157900
H -7.662000 -20.729100 -14.713400
H -7.221300 -21.467700 -17.038300
