14
Fragment
H -20.387800 -15.361200 -13.073500
H -20.053000 -14.498400 -14.292700
N -19.818400 -15.003800 -13.624600
O -18.992600 -16.502800 -11.671100
C -18.543500 -15.444100 -13.569300
H -18.497400 -16.895300 -11.133700
N -18.129000 -14.268700 -15.556100
N -18.031000 -16.195800 -12.666200
H -17.662500 -13.569100 -17.088600
C -17.616400 -15.020400 -14.653000
O -17.167300 -13.961700 -16.551200
N -16.341600 -15.460700 -14.597700
H -16.106900 -15.966100 -13.929600
H -15.772200 -15.103300 -15.148800
22
Fragment
O -16.342300 -17.220600 -20.928700
H -16.279700 -16.821500 -18.353000
O -16.041400 -19.218300 -22.737700
C -15.983200 -18.312500 -20.544900
C -15.976900 -17.682700 -18.129100
H -15.898000 -17.401500 -16.132800
C -15.769000 -19.427400 -21.576900
C -15.752800 -18.024900 -16.822400
C -15.749400 -18.633300 -19.122500
C -15.310200 -19.298100 -16.534500
C -15.294900 -19.898000 -18.740600
C -15.243200 -20.725900 -21.104600
H -15.156200 -19.518800 -15.634200
H -15.116800 -21.636200 -22.922200
N -15.086700 -20.238700 -17.457600
C -15.029400 -20.956600 -19.746200
C -14.974000 -21.758900 -22.001200
N -14.578700 -22.131000 -19.275400
C -14.498400 -22.955600 -21.528000
C -14.330300 -23.093200 -20.152600
H -14.292100 -23.660600 -22.115000
H -14.022800 -23.919400 -19.826200
36
Fragment
H -20.387800 -15.361200 -13.073500
H -20.053000 -14.498400 -14.292700
N -19.818400 -15.003800 -13.624600
O -18.992600 -16.502800 -11.671100
C -18.543500 -15.444100 -13.569300
H -18.497400 -16.895300 -11.133700
N -18.129000 -14.268700 -15.556100
N -18.031000 -16.195800 -12.666200
H -17.662500 -13.569100 -17.088600
C -17.616400 -15.020400 -14.653000
O -17.167300 -13.961700 -16.551200
N -16.341600 -15.460700 -14.597700
H -16.106900 -15.966100 -13.929600
H -15.772200 -15.103300 -15.148800
O -16.342300 -17.220600 -20.928700
H -16.279700 -16.821500 -18.353000
O -16.041400 -19.218300 -22.737700
C -15.983200 -18.312500 -20.544900
C -15.976900 -17.682700 -18.129100
H -15.898000 -17.401500 -16.132800
C -15.769000 -19.427400 -21.576900
C -15.752800 -18.024900 -16.822400
C -15.749400 -18.633300 -19.122500
C -15.310200 -19.298100 -16.534500
C -15.294900 -19.898000 -18.740600
C -15.243200 -20.725900 -21.104600
H -15.156200 -19.518800 -15.634200
H -15.116800 -21.636200 -22.922200
N -15.086700 -20.238700 -17.457600
C -15.029400 -20.956600 -19.746200
C -14.974000 -21.758900 -22.001200
N -14.578700 -22.131000 -19.275400
C -14.498400 -22.955600 -21.528000
C -14.330300 -23.093200 -20.152600
H -14.292100 -23.660600 -22.115000
H -14.022800 -23.919400 -19.826200
