14
Fragment
H -20.387800 -15.361200 -13.073500
H -20.053000 -14.498400 -14.292700
N -19.818400 -15.003800 -13.624600
O -18.992600 -16.502800 -11.671100
C -18.543500 -15.444100 -13.569300
H -18.497400 -16.895300 -11.133700
N -18.129000 -14.268700 -15.556100
N -18.031000 -16.195800 -12.666200
H -17.662500 -13.569100 -17.088600
C -17.616400 -15.020400 -14.653000
O -17.167300 -13.961700 -16.551200
N -16.341600 -15.460700 -14.597700
H -16.106900 -15.966100 -13.929600
H -15.772200 -15.103300 -15.148800
22
Fragment
H -19.887800 -16.699900 -17.803600
H -19.618600 -16.958700 -15.514700
C -19.580300 -17.526100 -17.477100
C -19.412300 -17.663700 -16.101800
N -19.332000 -18.488300 -18.354400
C -18.936600 -18.860400 -15.628600
C -18.881300 -19.662700 -17.883500
N -18.823900 -20.380600 -20.172200
H -18.793900 -18.983100 -14.707600
H -18.754400 -21.100500 -21.995500
C -18.667400 -19.893400 -16.525100
C -18.615800 -20.721300 -18.889200
C -18.600400 -21.321200 -21.095200
C -18.161200 -21.986000 -18.507300
C -18.157800 -22.594400 -20.807400
C -18.141700 -21.192000 -16.052900
H -18.012700 -23.217800 -21.496900
C -17.933800 -22.936600 -19.500700
C -17.927400 -22.306800 -17.084800
O -17.869300 -21.401000 -14.892100
H -17.631000 -23.797800 -19.276800
O -17.568300 -23.398700 -16.701000
36
Fragment
H -20.387800 -15.361200 -13.073500
H -20.053000 -14.498400 -14.292700
N -19.818400 -15.003800 -13.624600
O -18.992600 -16.502800 -11.671100
C -18.543500 -15.444100 -13.569300
H -18.497400 -16.895300 -11.133700
N -18.129000 -14.268700 -15.556100
N -18.031000 -16.195800 -12.666200
H -17.662500 -13.569100 -17.088600
C -17.616400 -15.020400 -14.653000
O -17.167300 -13.961700 -16.551200
N -16.341600 -15.460700 -14.597700
H -16.106900 -15.966100 -13.929600
H -15.772200 -15.103300 -15.148800
H -19.887800 -16.699900 -17.803600
H -19.618600 -16.958700 -15.514700
C -19.580300 -17.526100 -17.477100
C -19.412300 -17.663700 -16.101800
N -19.332000 -18.488300 -18.354400
C -18.936600 -18.860400 -15.628600
C -18.881300 -19.662700 -17.883500
N -18.823900 -20.380600 -20.172200
H -18.793900 -18.983100 -14.707600
H -18.754400 -21.100500 -21.995500
C -18.667400 -19.893400 -16.525100
C -18.615800 -20.721300 -18.889200
C -18.600400 -21.321200 -21.095200
C -18.161200 -21.986000 -18.507300
C -18.157800 -22.594400 -20.807400
C -18.141700 -21.192000 -16.052900
H -18.012700 -23.217800 -21.496900
C -17.933800 -22.936600 -19.500700
C -17.927400 -22.306800 -17.084800
O -17.869300 -21.401000 -14.892100
H -17.631000 -23.797800 -19.276800
O -17.568300 -23.398700 -16.701000
