14
Fragment
H -20.387800 -15.361200 -13.073500
H -20.053000 -14.498400 -14.292700
N -19.818400 -15.003800 -13.624600
O -18.992600 -16.502800 -11.671100
C -18.543500 -15.444100 -13.569300
H -18.497400 -16.895300 -11.133700
N -18.129000 -14.268700 -15.556100
N -18.031000 -16.195800 -12.666200
H -17.662500 -13.569100 -17.088600
C -17.616400 -15.020400 -14.653000
O -17.167300 -13.961700 -16.551200
N -16.341600 -15.460700 -14.597700
H -16.106900 -15.966100 -13.929600
H -15.772200 -15.103300 -15.148800
22
Fragment
H -22.137100 -6.545000 -8.396100
H -21.867900 -6.803900 -6.107300
C -21.829600 -7.371300 -8.069700
C -21.661600 -7.508900 -6.694300
N -21.581200 -8.333400 -8.946900
C -21.185900 -8.705500 -6.221100
C -21.130500 -9.507900 -8.476100
N -21.073200 -10.225800 -10.764700
H -21.043100 -8.828200 -5.300200
H -21.003700 -10.945700 -12.588100
C -20.916700 -9.738500 -7.117700
C -20.865000 -10.566500 -9.481800
C -20.849700 -11.166400 -11.687800
C -20.410500 -11.831200 -9.099800
C -20.407100 -12.439600 -11.399900
C -20.390900 -11.037100 -6.645400
H -20.262000 -13.063000 -12.089500
C -20.183100 -12.781800 -10.093200
C -20.176700 -12.152000 -7.677400
O -20.118500 -11.246200 -5.484600
H -19.880300 -13.643000 -9.869300
O -19.817600 -13.243900 -7.293600
36
Fragment
H -20.387800 -15.361200 -13.073500
H -20.053000 -14.498400 -14.292700
N -19.818400 -15.003800 -13.624600
O -18.992600 -16.502800 -11.671100
C -18.543500 -15.444100 -13.569300
H -18.497400 -16.895300 -11.133700
N -18.129000 -14.268700 -15.556100
N -18.031000 -16.195800 -12.666200
H -17.662500 -13.569100 -17.088600
C -17.616400 -15.020400 -14.653000
O -17.167300 -13.961700 -16.551200
N -16.341600 -15.460700 -14.597700
H -16.106900 -15.966100 -13.929600
H -15.772200 -15.103300 -15.148800
H -22.137100 -6.545000 -8.396100
H -21.867900 -6.803900 -6.107300
C -21.829600 -7.371300 -8.069700
C -21.661600 -7.508900 -6.694300
N -21.581200 -8.333400 -8.946900
C -21.185900 -8.705500 -6.221100
C -21.130500 -9.507900 -8.476100
N -21.073200 -10.225800 -10.764700
H -21.043100 -8.828200 -5.300200
H -21.003700 -10.945700 -12.588100
C -20.916700 -9.738500 -7.117700
C -20.865000 -10.566500 -9.481800
C -20.849700 -11.166400 -11.687800
C -20.410500 -11.831200 -9.099800
C -20.407100 -12.439600 -11.399900
C -20.390900 -11.037100 -6.645400
H -20.262000 -13.063000 -12.089500
C -20.183100 -12.781800 -10.093200
C -20.176700 -12.152000 -7.677400
O -20.118500 -11.246200 -5.484600
H -19.880300 -13.643000 -9.869300
O -19.817600 -13.243900 -7.293600
