14
Fragment
H -20.387800 -15.361200 -13.073500
H -20.053000 -14.498400 -14.292700
N -19.818400 -15.003800 -13.624600
O -18.992600 -16.502800 -11.671100
C -18.543500 -15.444100 -13.569300
H -18.497400 -16.895300 -11.133700
N -18.129000 -14.268700 -15.556100
N -18.031000 -16.195800 -12.666200
H -17.662500 -13.569100 -17.088600
C -17.616400 -15.020400 -14.653000
O -17.167300 -13.961700 -16.551200
N -16.341600 -15.460700 -14.597700
H -16.106900 -15.966100 -13.929600
H -15.772200 -15.103300 -15.148800
22
Fragment
H -16.420900 -8.001600 -17.803600
H -16.151700 -8.260500 -15.514700
C -16.113400 -8.827900 -17.477100
C -15.945400 -8.965500 -16.101800
N -15.865100 -9.790000 -18.354400
C -15.469700 -10.162100 -15.628600
C -15.414300 -10.964500 -17.883500
N -15.357000 -11.682400 -20.172200
H -15.327000 -10.284800 -14.707600
H -15.287500 -12.402200 -21.995500
C -15.200500 -11.195100 -16.525100
C -15.148800 -12.023000 -18.889200
C -15.133500 -12.622900 -21.095200
C -14.694300 -13.287800 -18.507300
C -14.690900 -13.896200 -20.807400
C -14.674800 -12.493700 -16.052900
H -14.545800 -14.519600 -21.496900
C -14.466900 -14.238300 -19.500700
C -14.460500 -13.608600 -17.084800
O -14.402300 -12.702800 -14.892100
H -14.164100 -15.099600 -19.276800
O -14.101400 -14.700400 -16.701000
36
Fragment
H -20.387800 -15.361200 -13.073500
H -20.053000 -14.498400 -14.292700
N -19.818400 -15.003800 -13.624600
O -18.992600 -16.502800 -11.671100
C -18.543500 -15.444100 -13.569300
H -18.497400 -16.895300 -11.133700
N -18.129000 -14.268700 -15.556100
N -18.031000 -16.195800 -12.666200
H -17.662500 -13.569100 -17.088600
C -17.616400 -15.020400 -14.653000
O -17.167300 -13.961700 -16.551200
N -16.341600 -15.460700 -14.597700
H -16.106900 -15.966100 -13.929600
H -15.772200 -15.103300 -15.148800
H -16.420900 -8.001600 -17.803600
H -16.151700 -8.260500 -15.514700
C -16.113400 -8.827900 -17.477100
C -15.945400 -8.965500 -16.101800
N -15.865100 -9.790000 -18.354400
C -15.469700 -10.162100 -15.628600
C -15.414300 -10.964500 -17.883500
N -15.357000 -11.682400 -20.172200
H -15.327000 -10.284800 -14.707600
H -15.287500 -12.402200 -21.995500
C -15.200500 -11.195100 -16.525100
C -15.148800 -12.023000 -18.889200
C -15.133500 -12.622900 -21.095200
C -14.694300 -13.287800 -18.507300
C -14.690900 -13.896200 -20.807400
C -14.674800 -12.493700 -16.052900
H -14.545800 -14.519600 -21.496900
C -14.466900 -14.238300 -19.500700
C -14.460500 -13.608600 -17.084800
O -14.402300 -12.702800 -14.892100
H -14.164100 -15.099600 -19.276800
O -14.101400 -14.700400 -16.701000
