14
Fragment
H -20.387800 -15.361200 -13.073500
H -20.053000 -14.498400 -14.292700
N -19.818400 -15.003800 -13.624600
O -18.992600 -16.502800 -11.671100
C -18.543500 -15.444100 -13.569300
H -18.497400 -16.895300 -11.133700
N -18.129000 -14.268700 -15.556100
N -18.031000 -16.195800 -12.666200
H -17.662500 -13.569100 -17.088600
C -17.616400 -15.020400 -14.653000
O -17.167300 -13.961700 -16.551200
N -16.341600 -15.460700 -14.597700
H -16.106900 -15.966100 -13.929600
H -15.772200 -15.103300 -15.148800
22
Fragment
H -18.452700 -15.243300 -8.396100
H -18.183500 -15.502100 -6.107300
C -18.145200 -16.069500 -8.069700
C -17.977200 -16.207100 -6.694300
N -17.896900 -17.031700 -8.946900
C -17.501500 -17.403800 -6.221100
C -17.446100 -18.206100 -8.476100
N -17.388800 -18.924100 -10.764700
H -17.358800 -17.526500 -5.300200
H -17.319300 -19.643900 -12.588100
C -17.232300 -18.436800 -7.117700
C -17.180600 -19.264700 -9.481800
C -17.165300 -19.864600 -11.687800
C -16.726100 -20.529400 -9.099800
C -16.722700 -21.137800 -11.399900
C -16.706600 -19.735400 -6.645400
H -16.577600 -21.761300 -12.089500
C -16.498700 -21.480000 -10.093200
C -16.492300 -20.850200 -7.677400
O -16.434100 -19.944500 -5.484600
H -16.195900 -22.341300 -9.869300
O -16.133200 -21.942100 -7.293600
36
Fragment
H -20.387800 -15.361200 -13.073500
H -20.053000 -14.498400 -14.292700
N -19.818400 -15.003800 -13.624600
O -18.992600 -16.502800 -11.671100
C -18.543500 -15.444100 -13.569300
H -18.497400 -16.895300 -11.133700
N -18.129000 -14.268700 -15.556100
N -18.031000 -16.195800 -12.666200
H -17.662500 -13.569100 -17.088600
C -17.616400 -15.020400 -14.653000
O -17.167300 -13.961700 -16.551200
N -16.341600 -15.460700 -14.597700
H -16.106900 -15.966100 -13.929600
H -15.772200 -15.103300 -15.148800
H -18.452700 -15.243300 -8.396100
H -18.183500 -15.502100 -6.107300
C -18.145200 -16.069500 -8.069700
C -17.977200 -16.207100 -6.694300
N -17.896900 -17.031700 -8.946900
C -17.501500 -17.403800 -6.221100
C -17.446100 -18.206100 -8.476100
N -17.388800 -18.924100 -10.764700
H -17.358800 -17.526500 -5.300200
H -17.319300 -19.643900 -12.588100
C -17.232300 -18.436800 -7.117700
C -17.180600 -19.264700 -9.481800
C -17.165300 -19.864600 -11.687800
C -16.726100 -20.529400 -9.099800
C -16.722700 -21.137800 -11.399900
C -16.706600 -19.735400 -6.645400
H -16.577600 -21.761300 -12.089500
C -16.498700 -21.480000 -10.093200
C -16.492300 -20.850200 -7.677400
O -16.434100 -19.944500 -5.484600
H -16.195900 -22.341300 -9.869300
O -16.133200 -21.942100 -7.293600
