14
Fragment
H -20.387800 -15.361200 -13.073500
H -20.053000 -14.498400 -14.292700
N -19.818400 -15.003800 -13.624600
O -18.992600 -16.502800 -11.671100
C -18.543500 -15.444100 -13.569300
H -18.497400 -16.895300 -11.133700
N -18.129000 -14.268700 -15.556100
N -18.031000 -16.195800 -12.666200
H -17.662500 -13.569100 -17.088600
C -17.616400 -15.020400 -14.653000
O -17.167300 -13.961700 -16.551200
N -16.341600 -15.460700 -14.597700
H -16.106900 -15.966100 -13.929600
H -15.772200 -15.103300 -15.148800
22
Fragment
O -14.907200 -15.764000 -11.521300
H -14.844600 -15.364900 -8.945500
O -14.606300 -17.761700 -13.330200
C -14.548100 -16.855900 -11.137500
C -14.541800 -16.226100 -8.721600
H -14.462900 -15.944900 -6.725400
C -14.333900 -17.970800 -12.169500
C -14.317700 -16.568300 -7.414900
C -14.314300 -17.176700 -9.715100
C -13.875100 -17.841500 -7.127100
C -13.859800 -18.441400 -9.333100
C -13.808100 -19.269400 -11.697200
H -13.721100 -18.062300 -6.226800
H -13.681700 -20.179700 -13.514700
N -13.651600 -18.782100 -8.050100
C -13.594300 -19.500000 -10.338800
C -13.538900 -20.302400 -12.593700
N -13.143600 -20.674500 -9.867900
C -13.063300 -21.499000 -12.120500
C -12.895200 -21.636600 -10.745200
H -12.856900 -22.204000 -12.707600
H -12.587700 -22.462900 -10.418700
36
Fragment
H -20.387800 -15.361200 -13.073500
H -20.053000 -14.498400 -14.292700
N -19.818400 -15.003800 -13.624600
O -18.992600 -16.502800 -11.671100
C -18.543500 -15.444100 -13.569300
H -18.497400 -16.895300 -11.133700
N -18.129000 -14.268700 -15.556100
N -18.031000 -16.195800 -12.666200
H -17.662500 -13.569100 -17.088600
C -17.616400 -15.020400 -14.653000
O -17.167300 -13.961700 -16.551200
N -16.341600 -15.460700 -14.597700
H -16.106900 -15.966100 -13.929600
H -15.772200 -15.103300 -15.148800
O -14.907200 -15.764000 -11.521300
H -14.844600 -15.364900 -8.945500
O -14.606300 -17.761700 -13.330200
C -14.548100 -16.855900 -11.137500
C -14.541800 -16.226100 -8.721600
H -14.462900 -15.944900 -6.725400
C -14.333900 -17.970800 -12.169500
C -14.317700 -16.568300 -7.414900
C -14.314300 -17.176700 -9.715100
C -13.875100 -17.841500 -7.127100
C -13.859800 -18.441400 -9.333100
C -13.808100 -19.269400 -11.697200
H -13.721100 -18.062300 -6.226800
H -13.681700 -20.179700 -13.514700
N -13.651600 -18.782100 -8.050100
C -13.594300 -19.500000 -10.338800
C -13.538900 -20.302400 -12.593700
N -13.143600 -20.674500 -9.867900
C -13.063300 -21.499000 -12.120500
C -12.895200 -21.636600 -10.745200
H -12.856900 -22.204000 -12.707600
H -12.587700 -22.462900 -10.418700
