14
Fragment
H -20.387800 -15.361200 -13.073500
H -20.053000 -14.498400 -14.292700
N -19.818400 -15.003800 -13.624600
O -18.992600 -16.502800 -11.671100
C -18.543500 -15.444100 -13.569300
H -18.497400 -16.895300 -11.133700
N -18.129000 -14.268700 -15.556100
N -18.031000 -16.195800 -12.666200
H -17.662500 -13.569100 -17.088600
C -17.616400 -15.020400 -14.653000
O -17.167300 -13.961700 -16.551200
N -16.341600 -15.460700 -14.597700
H -16.106900 -15.966100 -13.929600
H -15.772200 -15.103300 -15.148800
22
Fragment
O -18.591600 -7.065800 -11.521300
H -18.529000 -6.666600 -8.945500
O -18.290700 -9.063400 -13.330200
C -18.232500 -8.157700 -11.137500
C -18.226200 -7.527900 -8.721600
H -18.147300 -7.246600 -6.725400
C -18.018300 -9.272500 -12.169500
C -18.002100 -7.870100 -7.414900
C -17.998700 -8.478500 -9.715100
C -17.559500 -9.143300 -7.127100
C -17.544200 -9.743200 -9.333100
C -17.492500 -10.571100 -11.697200
H -17.405500 -9.364000 -6.226800
H -17.366100 -11.481400 -13.514700
N -17.336000 -10.083800 -8.050100
C -17.278700 -10.801800 -10.338800
C -17.223300 -11.604100 -12.593700
N -16.828000 -11.976200 -9.867900
C -16.747700 -12.800800 -12.120500
C -16.579600 -12.938400 -10.745200
H -16.541300 -13.505800 -12.707600
H -16.272100 -13.764600 -10.418700
36
Fragment
H -20.387800 -15.361200 -13.073500
H -20.053000 -14.498400 -14.292700
N -19.818400 -15.003800 -13.624600
O -18.992600 -16.502800 -11.671100
C -18.543500 -15.444100 -13.569300
H -18.497400 -16.895300 -11.133700
N -18.129000 -14.268700 -15.556100
N -18.031000 -16.195800 -12.666200
H -17.662500 -13.569100 -17.088600
C -17.616400 -15.020400 -14.653000
O -17.167300 -13.961700 -16.551200
N -16.341600 -15.460700 -14.597700
H -16.106900 -15.966100 -13.929600
H -15.772200 -15.103300 -15.148800
O -18.591600 -7.065800 -11.521300
H -18.529000 -6.666600 -8.945500
O -18.290700 -9.063400 -13.330200
C -18.232500 -8.157700 -11.137500
C -18.226200 -7.527900 -8.721600
H -18.147300 -7.246600 -6.725400
C -18.018300 -9.272500 -12.169500
C -18.002100 -7.870100 -7.414900
C -17.998700 -8.478500 -9.715100
C -17.559500 -9.143300 -7.127100
C -17.544200 -9.743200 -9.333100
C -17.492500 -10.571100 -11.697200
H -17.405500 -9.364000 -6.226800
H -17.366100 -11.481400 -13.514700
N -17.336000 -10.083800 -8.050100
C -17.278700 -10.801800 -10.338800
C -17.223300 -11.604100 -12.593700
N -16.828000 -11.976200 -9.867900
C -16.747700 -12.800800 -12.120500
C -16.579600 -12.938400 -10.745200
H -16.541300 -13.505800 -12.707600
H -16.272100 -13.764600 -10.418700
