34
Fragment
H -19.119000 -9.430300 -34.577400
H -18.906900 -10.499200 -32.540900
H -18.304900 -10.344500 -35.520300
C -18.277600 -9.722200 -34.888100
C -17.932800 -10.473900 -32.571300
H -17.892900 -8.980200 -35.342500
H -17.520000 -11.040700 -30.675000
N -17.396300 -10.110400 -33.782400
C -17.150800 -10.791100 -31.528800
C -16.067100 -10.218700 -33.959800
H -15.732400 -10.056200 -34.870200
C -15.710200 -10.707900 -31.605100
C -15.194000 -10.548400 -32.949700
N -15.112600 -10.773500 -30.449100
H -14.767300 -9.922600 -27.869900
C -13.841900 -10.894900 -33.436400
C -13.790200 -9.909200 -27.953600
N -13.732900 -10.550300 -30.395200
O -13.628500 -11.021400 -34.629300
H -13.290400 -9.409200 -26.034500
C -13.182700 -10.176700 -29.173300
C -12.933000 -9.611000 -26.905000
N -12.799600 -11.175000 -32.556700
C -12.682600 -10.722600 -31.251300
H -11.824800 -12.355800 -33.896800
C -11.803700 -10.129700 -29.375600
C -11.563500 -11.689100 -33.179000
C -11.544900 -9.556900 -27.078500
N -11.507000 -10.472600 -30.696100
H -11.058300 -10.928200 -33.589700
H -11.015300 -12.123700 -32.481700
H -10.973400 -9.324800 -26.325500
C -10.959900 -9.803700 -28.312800
H -10.024700 -9.767900 -28.397900
34
Fragment
H -29.532200 -8.150400 -43.556700
H -29.320200 -7.081500 -41.520200
H -28.718100 -7.236200 -44.499600
C -28.690900 -7.858600 -43.867400
C -28.346000 -7.106800 -41.550600
H -28.306200 -8.600500 -44.321800
H -27.933200 -6.540000 -39.654300
N -27.809500 -7.470300 -42.761700
C -27.564100 -6.789700 -40.508100
C -26.480400 -7.362000 -42.939100
H -26.145600 -7.524600 -43.849500
C -26.123500 -6.872800 -40.584400
C -25.607200 -7.032300 -41.929000
N -25.525800 -6.807300 -39.428400
H -25.180600 -7.658200 -36.849200
C -24.255100 -6.685900 -42.415600
C -24.203400 -7.671500 -36.932900
N -24.146100 -7.030500 -39.374500
O -24.041800 -6.559400 -43.608600
H -23.703700 -8.171500 -35.013800
C -23.595900 -7.404100 -38.152600
C -23.346300 -7.969700 -35.884300
N -23.212900 -6.405700 -41.536000
C -23.095800 -6.858100 -40.230600
H -22.238100 -5.225000 -42.876100
C -22.217000 -7.451100 -38.354800
C -21.976700 -5.891700 -42.158300
C -21.958100 -8.023900 -36.057800
N -21.920300 -7.108100 -39.675300
H -21.471500 -6.652600 -42.569000
H -21.428600 -5.457100 -41.461000
H -21.386600 -8.255900 -35.304800
C -21.373100 -7.777000 -37.292100
H -20.438000 -7.812900 -37.377200
68
Fragment
H -19.119000 -9.430300 -34.577400
H -18.906900 -10.499200 -32.540900
H -18.304900 -10.344500 -35.520300
C -18.277600 -9.722200 -34.888100
C -17.932800 -10.473900 -32.571300
H -17.892900 -8.980200 -35.342500
H -17.520000 -11.040700 -30.675000
N -17.396300 -10.110400 -33.782400
C -17.150800 -10.791100 -31.528800
C -16.067100 -10.218700 -33.959800
H -15.732400 -10.056200 -34.870200
C -15.710200 -10.707900 -31.605100
C -15.194000 -10.548400 -32.949700
N -15.112600 -10.773500 -30.449100
H -14.767300 -9.922600 -27.869900
C -13.841900 -10.894900 -33.436400
C -13.790200 -9.909200 -27.953600
N -13.732900 -10.550300 -30.395200
O -13.628500 -11.021400 -34.629300
H -13.290400 -9.409200 -26.034500
C -13.182700 -10.176700 -29.173300
C -12.933000 -9.611000 -26.905000
N -12.799600 -11.175000 -32.556700
C -12.682600 -10.722600 -31.251300
H -11.824800 -12.355800 -33.896800
C -11.803700 -10.129700 -29.375600
C -11.563500 -11.689100 -33.179000
C -11.544900 -9.556900 -27.078500
N -11.507000 -10.472600 -30.696100
H -11.058300 -10.928200 -33.589700
H -11.015300 -12.123700 -32.481700
H -10.973400 -9.324800 -26.325500
C -10.959900 -9.803700 -28.312800
H -10.024700 -9.767900 -28.397900
H -29.532200 -8.150400 -43.556700
H -29.320200 -7.081500 -41.520200
H -28.718100 -7.236200 -44.499600
C -28.690900 -7.858600 -43.867400
C -28.346000 -7.106800 -41.550600
H -28.306200 -8.600500 -44.321800
H -27.933200 -6.540000 -39.654300
N -27.809500 -7.470300 -42.761700
C -27.564100 -6.789700 -40.508100
C -26.480400 -7.362000 -42.939100
H -26.145600 -7.524600 -43.849500
C -26.123500 -6.872800 -40.584400
C -25.607200 -7.032300 -41.929000
N -25.525800 -6.807300 -39.428400
H -25.180600 -7.658200 -36.849200
C -24.255100 -6.685900 -42.415600
C -24.203400 -7.671500 -36.932900
N -24.146100 -7.030500 -39.374500
O -24.041800 -6.559400 -43.608600
H -23.703700 -8.171500 -35.013800
C -23.595900 -7.404100 -38.152600
C -23.346300 -7.969700 -35.884300
N -23.212900 -6.405700 -41.536000
C -23.095800 -6.858100 -40.230600
H -22.238100 -5.225000 -42.876100
C -22.217000 -7.451100 -38.354800
C -21.976700 -5.891700 -42.158300
C -21.958100 -8.023900 -36.057800
N -21.920300 -7.108100 -39.675300
H -21.471500 -6.652600 -42.569000
H -21.428600 -5.457100 -41.461000
H -21.386600 -8.255900 -35.304800
C -21.373100 -7.777000 -37.292100
H -20.438000 -7.812900 -37.377200
