34
Fragment
H -19.119000 -9.430300 -34.577400
H -18.906900 -10.499200 -32.540900
H -18.304900 -10.344500 -35.520300
C -18.277600 -9.722200 -34.888100
C -17.932800 -10.473900 -32.571300
H -17.892900 -8.980200 -35.342500
H -17.520000 -11.040700 -30.675000
N -17.396300 -10.110400 -33.782400
C -17.150800 -10.791100 -31.528800
C -16.067100 -10.218700 -33.959800
H -15.732400 -10.056200 -34.870200
C -15.710200 -10.707900 -31.605100
C -15.194000 -10.548400 -32.949700
N -15.112600 -10.773500 -30.449100
H -14.767300 -9.922600 -27.869900
C -13.841900 -10.894900 -33.436400
C -13.790200 -9.909200 -27.953600
N -13.732900 -10.550300 -30.395200
O -13.628500 -11.021400 -34.629300
H -13.290400 -9.409200 -26.034500
C -13.182700 -10.176700 -29.173300
C -12.933000 -9.611000 -26.905000
N -12.799600 -11.175000 -32.556700
C -12.682600 -10.722600 -31.251300
H -11.824800 -12.355800 -33.896800
C -11.803700 -10.129700 -29.375600
C -11.563500 -11.689100 -33.179000
C -11.544900 -9.556900 -27.078500
N -11.507000 -10.472600 -30.696100
H -11.058300 -10.928200 -33.589700
H -11.015300 -12.123700 -32.481700
H -10.973400 -9.324800 -26.325500
C -10.959900 -9.803700 -28.312800
H -10.024700 -9.767900 -28.397900
34
Fragment
H -18.815900 -15.182700 -43.556700
H -18.603900 -14.113800 -41.520200
H -18.001800 -14.268500 -44.499600
C -17.974600 -14.890900 -43.867400
C -17.629700 -14.139100 -41.550600
H -17.589900 -15.632800 -44.321800
H -17.216900 -13.572300 -39.654300
N -17.093200 -14.502600 -42.761700
C -16.847800 -13.822000 -40.508100
C -15.764100 -14.394300 -42.939100
H -15.429300 -14.556900 -43.849500
C -15.407200 -13.905100 -40.584400
C -14.890900 -14.064600 -41.929000
N -14.809500 -13.839600 -39.428400
H -14.464300 -14.690500 -36.849200
C -13.538800 -13.718200 -42.415600
C -13.487100 -14.703800 -36.932900
N -13.429800 -14.062800 -39.374500
O -13.325500 -13.591700 -43.608600
H -12.987400 -15.203800 -35.013800
C -12.879600 -14.436400 -38.152600
C -12.630000 -15.002000 -35.884300
N -12.496600 -13.438000 -41.536000
C -12.379500 -13.890400 -40.230600
H -11.521800 -12.257300 -42.876100
C -11.500700 -14.483400 -38.354800
C -11.260400 -12.924000 -42.158300
C -11.241800 -15.056200 -36.057800
N -11.204000 -14.140400 -39.675300
H -10.755200 -13.684900 -42.569000
H -10.712300 -12.489400 -41.461000
H -10.670300 -15.288200 -35.304800
C -10.656800 -14.809300 -37.292100
H -9.721700 -14.845200 -37.377200
68
Fragment
H -19.119000 -9.430300 -34.577400
H -18.906900 -10.499200 -32.540900
H -18.304900 -10.344500 -35.520300
C -18.277600 -9.722200 -34.888100
C -17.932800 -10.473900 -32.571300
H -17.892900 -8.980200 -35.342500
H -17.520000 -11.040700 -30.675000
N -17.396300 -10.110400 -33.782400
C -17.150800 -10.791100 -31.528800
C -16.067100 -10.218700 -33.959800
H -15.732400 -10.056200 -34.870200
C -15.710200 -10.707900 -31.605100
C -15.194000 -10.548400 -32.949700
N -15.112600 -10.773500 -30.449100
H -14.767300 -9.922600 -27.869900
C -13.841900 -10.894900 -33.436400
C -13.790200 -9.909200 -27.953600
N -13.732900 -10.550300 -30.395200
O -13.628500 -11.021400 -34.629300
H -13.290400 -9.409200 -26.034500
C -13.182700 -10.176700 -29.173300
C -12.933000 -9.611000 -26.905000
N -12.799600 -11.175000 -32.556700
C -12.682600 -10.722600 -31.251300
H -11.824800 -12.355800 -33.896800
C -11.803700 -10.129700 -29.375600
C -11.563500 -11.689100 -33.179000
C -11.544900 -9.556900 -27.078500
N -11.507000 -10.472600 -30.696100
H -11.058300 -10.928200 -33.589700
H -11.015300 -12.123700 -32.481700
H -10.973400 -9.324800 -26.325500
C -10.959900 -9.803700 -28.312800
H -10.024700 -9.767900 -28.397900
H -18.815900 -15.182700 -43.556700
H -18.603900 -14.113800 -41.520200
H -18.001800 -14.268500 -44.499600
C -17.974600 -14.890900 -43.867400
C -17.629700 -14.139100 -41.550600
H -17.589900 -15.632800 -44.321800
H -17.216900 -13.572300 -39.654300
N -17.093200 -14.502600 -42.761700
C -16.847800 -13.822000 -40.508100
C -15.764100 -14.394300 -42.939100
H -15.429300 -14.556900 -43.849500
C -15.407200 -13.905100 -40.584400
C -14.890900 -14.064600 -41.929000
N -14.809500 -13.839600 -39.428400
H -14.464300 -14.690500 -36.849200
C -13.538800 -13.718200 -42.415600
C -13.487100 -14.703800 -36.932900
N -13.429800 -14.062800 -39.374500
O -13.325500 -13.591700 -43.608600
H -12.987400 -15.203800 -35.013800
C -12.879600 -14.436400 -38.152600
C -12.630000 -15.002000 -35.884300
N -12.496600 -13.438000 -41.536000
C -12.379500 -13.890400 -40.230600
H -11.521800 -12.257300 -42.876100
C -11.500700 -14.483400 -38.354800
C -11.260400 -12.924000 -42.158300
C -11.241800 -15.056200 -36.057800
N -11.204000 -14.140400 -39.675300
H -10.755200 -13.684900 -42.569000
H -10.712300 -12.489400 -41.461000
H -10.670300 -15.288200 -35.304800
C -10.656800 -14.809300 -37.292100
H -9.721700 -14.845200 -37.377200
