34
Fragment
H -19.119000 -9.430300 -34.577400
H -18.906900 -10.499200 -32.540900
H -18.304900 -10.344500 -35.520300
C -18.277600 -9.722200 -34.888100
C -17.932800 -10.473900 -32.571300
H -17.892900 -8.980200 -35.342500
H -17.520000 -11.040700 -30.675000
N -17.396300 -10.110400 -33.782400
C -17.150800 -10.791100 -31.528800
C -16.067100 -10.218700 -33.959800
H -15.732400 -10.056200 -34.870200
C -15.710200 -10.707900 -31.605100
C -15.194000 -10.548400 -32.949700
N -15.112600 -10.773500 -30.449100
H -14.767300 -9.922600 -27.869900
C -13.841900 -10.894900 -33.436400
C -13.790200 -9.909200 -27.953600
N -13.732900 -10.550300 -30.395200
O -13.628500 -11.021400 -34.629300
H -13.290400 -9.409200 -26.034500
C -13.182700 -10.176700 -29.173300
C -12.933000 -9.611000 -26.905000
N -12.799600 -11.175000 -32.556700
C -12.682600 -10.722600 -31.251300
H -11.824800 -12.355800 -33.896800
C -11.803700 -10.129700 -29.375600
C -11.563500 -11.689100 -33.179000
C -11.544900 -9.556900 -27.078500
N -11.507000 -10.472600 -30.696100
H -11.058300 -10.928200 -33.589700
H -11.015300 -12.123700 -32.481700
H -10.973400 -9.324800 -26.325500
C -10.959900 -9.803700 -28.312800
H -10.024700 -9.767900 -28.397900
34
Fragment
H -19.699800 -11.329000 -43.436400
C -18.764600 -11.293200 -43.521500
H -18.751100 -11.772100 -45.508800
H -18.709200 -8.973200 -39.352600
H -18.666200 -10.168700 -38.244600
N -18.217500 -10.624300 -41.138200
C -18.179600 -11.540000 -44.755800
C -18.161000 -9.407800 -38.655300
C -17.920800 -10.967200 -42.458700
H -17.899600 -8.741100 -37.937500
C -17.041900 -10.374300 -40.583000
N -16.924900 -9.921900 -39.277600
C -16.791500 -11.485900 -44.929300
C -16.541800 -10.920200 -42.661000
H -16.434100 -11.687700 -45.799800
O -16.096000 -10.075500 -37.205000
N -15.991600 -10.546600 -41.439100
C -15.934300 -11.187700 -43.880700
C -15.882600 -10.202000 -38.397900
H -14.957100 -11.174300 -43.964400
N -14.611900 -10.323400 -41.385200
C -14.530500 -10.548400 -38.884600
C -14.014300 -10.389000 -40.229200
H -13.992100 -11.040700 -36.964100
C -13.657400 -10.878200 -37.874500
C -12.573700 -10.305800 -40.305500
N -12.328200 -10.986500 -38.051900
H -12.204500 -10.056200 -41.159300
H -11.831600 -12.116700 -36.491800
C -11.791700 -10.623000 -39.263000
C -11.446800 -11.374700 -36.946200
H -11.419600 -10.752400 -36.314000
H -10.817600 -10.597700 -39.293400
H -10.605500 -11.666600 -37.256900
68
Fragment
H -19.119000 -9.430300 -34.577400
H -18.906900 -10.499200 -32.540900
H -18.304900 -10.344500 -35.520300
C -18.277600 -9.722200 -34.888100
C -17.932800 -10.473900 -32.571300
H -17.892900 -8.980200 -35.342500
H -17.520000 -11.040700 -30.675000
N -17.396300 -10.110400 -33.782400
C -17.150800 -10.791100 -31.528800
C -16.067100 -10.218700 -33.959800
H -15.732400 -10.056200 -34.870200
C -15.710200 -10.707900 -31.605100
C -15.194000 -10.548400 -32.949700
N -15.112600 -10.773500 -30.449100
H -14.767300 -9.922600 -27.869900
C -13.841900 -10.894900 -33.436400
C -13.790200 -9.909200 -27.953600
N -13.732900 -10.550300 -30.395200
O -13.628500 -11.021400 -34.629300
H -13.290400 -9.409200 -26.034500
C -13.182700 -10.176700 -29.173300
C -12.933000 -9.611000 -26.905000
N -12.799600 -11.175000 -32.556700
C -12.682600 -10.722600 -31.251300
H -11.824800 -12.355800 -33.896800
C -11.803700 -10.129700 -29.375600
C -11.563500 -11.689100 -33.179000
C -11.544900 -9.556900 -27.078500
N -11.507000 -10.472600 -30.696100
H -11.058300 -10.928200 -33.589700
H -11.015300 -12.123700 -32.481700
H -10.973400 -9.324800 -26.325500
C -10.959900 -9.803700 -28.312800
H -10.024700 -9.767900 -28.397900
H -19.699800 -11.329000 -43.436400
C -18.764600 -11.293200 -43.521500
H -18.751100 -11.772100 -45.508800
H -18.709200 -8.973200 -39.352600
H -18.666200 -10.168700 -38.244600
N -18.217500 -10.624300 -41.138200
C -18.179600 -11.540000 -44.755800
C -18.161000 -9.407800 -38.655300
C -17.920800 -10.967200 -42.458700
H -17.899600 -8.741100 -37.937500
C -17.041900 -10.374300 -40.583000
N -16.924900 -9.921900 -39.277600
C -16.791500 -11.485900 -44.929300
C -16.541800 -10.920200 -42.661000
H -16.434100 -11.687700 -45.799800
O -16.096000 -10.075500 -37.205000
N -15.991600 -10.546600 -41.439100
C -15.934300 -11.187700 -43.880700
C -15.882600 -10.202000 -38.397900
H -14.957100 -11.174300 -43.964400
N -14.611900 -10.323400 -41.385200
C -14.530500 -10.548400 -38.884600
C -14.014300 -10.389000 -40.229200
H -13.992100 -11.040700 -36.964100
C -13.657400 -10.878200 -37.874500
C -12.573700 -10.305800 -40.305500
N -12.328200 -10.986500 -38.051900
H -12.204500 -10.056200 -41.159300
H -11.831600 -12.116700 -36.491800
C -11.791700 -10.623000 -39.263000
C -11.446800 -11.374700 -36.946200
H -11.419600 -10.752400 -36.314000
H -10.817600 -10.597700 -39.293400
H -10.605500 -11.666600 -37.256900
