34
Fragment
H -19.119000 -9.430300 -34.577400
H -18.906900 -10.499200 -32.540900
H -18.304900 -10.344500 -35.520300
C -18.277600 -9.722200 -34.888100
C -17.932800 -10.473900 -32.571300
H -17.892900 -8.980200 -35.342500
H -17.520000 -11.040700 -30.675000
N -17.396300 -10.110400 -33.782400
C -17.150800 -10.791100 -31.528800
C -16.067100 -10.218700 -33.959800
H -15.732400 -10.056200 -34.870200
C -15.710200 -10.707900 -31.605100
C -15.194000 -10.548400 -32.949700
N -15.112600 -10.773500 -30.449100
H -14.767300 -9.922600 -27.869900
C -13.841900 -10.894900 -33.436400
C -13.790200 -9.909200 -27.953600
N -13.732900 -10.550300 -30.395200
O -13.628500 -11.021400 -34.629300
H -13.290400 -9.409200 -26.034500
C -13.182700 -10.176700 -29.173300
C -12.933000 -9.611000 -26.905000
N -12.799600 -11.175000 -32.556700
C -12.682600 -10.722600 -31.251300
H -11.824800 -12.355800 -33.896800
C -11.803700 -10.129700 -29.375600
C -11.563500 -11.689100 -33.179000
C -11.544900 -9.556900 -27.078500
N -11.507000 -10.472600 -30.696100
H -11.058300 -10.928200 -33.589700
H -11.015300 -12.123700 -32.481700
H -10.973400 -9.324800 -26.325500
C -10.959900 -9.803700 -28.312800
H -10.024700 -9.767900 -28.397900
34
Fragment
H -20.305900 -11.329000 -25.477800
C -19.370700 -11.293200 -25.563000
H -19.357200 -11.772100 -27.550200
H -19.315300 -8.973200 -21.394100
H -19.272300 -10.168700 -20.286000
N -18.823600 -10.624300 -23.179700
C -18.785700 -11.540000 -26.797200
C -18.767100 -9.407800 -20.696700
C -18.526900 -10.967200 -24.500200
H -18.505700 -8.741100 -19.978900
C -17.648000 -10.374300 -22.624400
N -17.531000 -9.921900 -21.319000
C -17.397600 -11.485900 -26.970700
C -17.147900 -10.920200 -24.702400
H -17.040200 -11.687700 -27.841200
O -16.702100 -10.075500 -19.246400
N -16.597700 -10.546600 -23.480500
C -16.540400 -11.187700 -25.922100
C -16.488700 -10.202000 -20.439400
H -15.563300 -11.174300 -26.005800
N -15.218000 -10.323400 -23.426600
C -15.136600 -10.548400 -20.926000
C -14.620400 -10.389000 -22.270600
H -14.598200 -11.040700 -19.005600
C -14.263500 -10.878200 -19.915900
C -13.179800 -10.305800 -22.346900
N -12.934300 -10.986500 -20.093300
H -12.810600 -10.056200 -23.200700
H -12.437700 -12.116700 -18.533200
C -12.397800 -10.623000 -21.304400
C -12.052900 -11.374700 -18.987600
H -12.025700 -10.752400 -18.355500
H -11.423700 -10.597700 -21.334800
H -11.211600 -11.666600 -19.298300
68
Fragment
H -19.119000 -9.430300 -34.577400
H -18.906900 -10.499200 -32.540900
H -18.304900 -10.344500 -35.520300
C -18.277600 -9.722200 -34.888100
C -17.932800 -10.473900 -32.571300
H -17.892900 -8.980200 -35.342500
H -17.520000 -11.040700 -30.675000
N -17.396300 -10.110400 -33.782400
C -17.150800 -10.791100 -31.528800
C -16.067100 -10.218700 -33.959800
H -15.732400 -10.056200 -34.870200
C -15.710200 -10.707900 -31.605100
C -15.194000 -10.548400 -32.949700
N -15.112600 -10.773500 -30.449100
H -14.767300 -9.922600 -27.869900
C -13.841900 -10.894900 -33.436400
C -13.790200 -9.909200 -27.953600
N -13.732900 -10.550300 -30.395200
O -13.628500 -11.021400 -34.629300
H -13.290400 -9.409200 -26.034500
C -13.182700 -10.176700 -29.173300
C -12.933000 -9.611000 -26.905000
N -12.799600 -11.175000 -32.556700
C -12.682600 -10.722600 -31.251300
H -11.824800 -12.355800 -33.896800
C -11.803700 -10.129700 -29.375600
C -11.563500 -11.689100 -33.179000
C -11.544900 -9.556900 -27.078500
N -11.507000 -10.472600 -30.696100
H -11.058300 -10.928200 -33.589700
H -11.015300 -12.123700 -32.481700
H -10.973400 -9.324800 -26.325500
C -10.959900 -9.803700 -28.312800
H -10.024700 -9.767900 -28.397900
H -20.305900 -11.329000 -25.477800
C -19.370700 -11.293200 -25.563000
H -19.357200 -11.772100 -27.550200
H -19.315300 -8.973200 -21.394100
H -19.272300 -10.168700 -20.286000
N -18.823600 -10.624300 -23.179700
C -18.785700 -11.540000 -26.797200
C -18.767100 -9.407800 -20.696700
C -18.526900 -10.967200 -24.500200
H -18.505700 -8.741100 -19.978900
C -17.648000 -10.374300 -22.624400
N -17.531000 -9.921900 -21.319000
C -17.397600 -11.485900 -26.970700
C -17.147900 -10.920200 -24.702400
H -17.040200 -11.687700 -27.841200
O -16.702100 -10.075500 -19.246400
N -16.597700 -10.546600 -23.480500
C -16.540400 -11.187700 -25.922100
C -16.488700 -10.202000 -20.439400
H -15.563300 -11.174300 -26.005800
N -15.218000 -10.323400 -23.426600
C -15.136600 -10.548400 -20.926000
C -14.620400 -10.389000 -22.270600
H -14.598200 -11.040700 -19.005600
C -14.263500 -10.878200 -19.915900
C -13.179800 -10.305800 -22.346900
N -12.934300 -10.986500 -20.093300
H -12.810600 -10.056200 -23.200700
H -12.437700 -12.116700 -18.533200
C -12.397800 -10.623000 -21.304400
C -12.052900 -11.374700 -18.987600
H -12.025700 -10.752400 -18.355500
H -11.423700 -10.597700 -21.334800
H -11.211600 -11.666600 -19.298300
