34
Fragment
H -19.119000 -9.430300 -34.577400
H -18.906900 -10.499200 -32.540900
H -18.304900 -10.344500 -35.520300
C -18.277600 -9.722200 -34.888100
C -17.932800 -10.473900 -32.571300
H -17.892900 -8.980200 -35.342500
H -17.520000 -11.040700 -30.675000
N -17.396300 -10.110400 -33.782400
C -17.150800 -10.791100 -31.528800
C -16.067100 -10.218700 -33.959800
H -15.732400 -10.056200 -34.870200
C -15.710200 -10.707900 -31.605100
C -15.194000 -10.548400 -32.949700
N -15.112600 -10.773500 -30.449100
H -14.767300 -9.922600 -27.869900
C -13.841900 -10.894900 -33.436400
C -13.790200 -9.909200 -27.953600
N -13.732900 -10.550300 -30.395200
O -13.628500 -11.021400 -34.629300
H -13.290400 -9.409200 -26.034500
C -13.182700 -10.176700 -29.173300
C -12.933000 -9.611000 -26.905000
N -12.799600 -11.175000 -32.556700
C -12.682600 -10.722600 -31.251300
H -11.824800 -12.355800 -33.896800
C -11.803700 -10.129700 -29.375600
C -11.563500 -11.689100 -33.179000
C -11.544900 -9.556900 -27.078500
N -11.507000 -10.472600 -30.696100
H -11.058300 -10.928200 -33.589700
H -11.015300 -12.123700 -32.481700
H -10.973400 -9.324800 -26.325500
C -10.959900 -9.803700 -28.312800
H -10.024700 -9.767900 -28.397900
34
Fragment
H -19.422000 -15.182700 -25.598200
H -19.210000 -14.113800 -23.561700
H -18.607900 -14.268500 -26.541000
C -18.580700 -14.890900 -25.908800
C -18.235800 -14.139100 -23.592000
H -18.196000 -15.632800 -26.363200
H -17.823000 -13.572300 -21.695800
N -17.699300 -14.502600 -24.803100
C -17.453900 -13.822000 -22.549500
C -16.370200 -14.394300 -24.980600
H -16.035400 -14.556900 -25.890900
C -16.013300 -13.905100 -22.625800
C -15.497000 -14.064600 -23.970400
N -15.415600 -13.839600 -21.469800
H -15.070400 -14.690500 -18.890600
C -14.144900 -13.718200 -24.457100
C -14.093200 -14.703800 -18.974300
N -14.035900 -14.062800 -21.416000
O -13.931600 -13.591700 -25.650100
H -13.593500 -15.203800 -17.055300
C -13.485700 -14.436400 -20.194100
C -13.236100 -15.002000 -17.925700
N -13.102700 -13.438000 -23.577500
C -12.985700 -13.890400 -22.272000
H -12.127900 -12.257300 -24.917500
C -12.106800 -14.483400 -20.396300
C -11.866500 -12.924000 -24.199700
C -11.847900 -15.056200 -18.099200
N -11.810100 -14.140400 -21.716800
H -11.361300 -13.684900 -24.610400
H -11.318400 -12.489400 -23.502400
H -11.276400 -15.288200 -17.346200
C -11.262900 -14.809300 -19.333500
H -10.327800 -14.845200 -19.418600
68
Fragment
H -19.119000 -9.430300 -34.577400
H -18.906900 -10.499200 -32.540900
H -18.304900 -10.344500 -35.520300
C -18.277600 -9.722200 -34.888100
C -17.932800 -10.473900 -32.571300
H -17.892900 -8.980200 -35.342500
H -17.520000 -11.040700 -30.675000
N -17.396300 -10.110400 -33.782400
C -17.150800 -10.791100 -31.528800
C -16.067100 -10.218700 -33.959800
H -15.732400 -10.056200 -34.870200
C -15.710200 -10.707900 -31.605100
C -15.194000 -10.548400 -32.949700
N -15.112600 -10.773500 -30.449100
H -14.767300 -9.922600 -27.869900
C -13.841900 -10.894900 -33.436400
C -13.790200 -9.909200 -27.953600
N -13.732900 -10.550300 -30.395200
O -13.628500 -11.021400 -34.629300
H -13.290400 -9.409200 -26.034500
C -13.182700 -10.176700 -29.173300
C -12.933000 -9.611000 -26.905000
N -12.799600 -11.175000 -32.556700
C -12.682600 -10.722600 -31.251300
H -11.824800 -12.355800 -33.896800
C -11.803700 -10.129700 -29.375600
C -11.563500 -11.689100 -33.179000
C -11.544900 -9.556900 -27.078500
N -11.507000 -10.472600 -30.696100
H -11.058300 -10.928200 -33.589700
H -11.015300 -12.123700 -32.481700
H -10.973400 -9.324800 -26.325500
C -10.959900 -9.803700 -28.312800
H -10.024700 -9.767900 -28.397900
H -19.422000 -15.182700 -25.598200
H -19.210000 -14.113800 -23.561700
H -18.607900 -14.268500 -26.541000
C -18.580700 -14.890900 -25.908800
C -18.235800 -14.139100 -23.592000
H -18.196000 -15.632800 -26.363200
H -17.823000 -13.572300 -21.695800
N -17.699300 -14.502600 -24.803100
C -17.453900 -13.822000 -22.549500
C -16.370200 -14.394300 -24.980600
H -16.035400 -14.556900 -25.890900
C -16.013300 -13.905100 -22.625800
C -15.497000 -14.064600 -23.970400
N -15.415600 -13.839600 -21.469800
H -15.070400 -14.690500 -18.890600
C -14.144900 -13.718200 -24.457100
C -14.093200 -14.703800 -18.974300
N -14.035900 -14.062800 -21.416000
O -13.931600 -13.591700 -25.650100
H -13.593500 -15.203800 -17.055300
C -13.485700 -14.436400 -20.194100
C -13.236100 -15.002000 -17.925700
N -13.102700 -13.438000 -23.577500
C -12.985700 -13.890400 -22.272000
H -12.127900 -12.257300 -24.917500
C -12.106800 -14.483400 -20.396300
C -11.866500 -12.924000 -24.199700
C -11.847900 -15.056200 -18.099200
N -11.810100 -14.140400 -21.716800
H -11.361300 -13.684900 -24.610400
H -11.318400 -12.489400 -23.502400
H -11.276400 -15.288200 -17.346200
C -11.262900 -14.809300 -19.333500
H -10.327800 -14.845200 -19.418600
