34
Fragment
H -19.119000 -9.430300 -34.577400
H -18.906900 -10.499200 -32.540900
H -18.304900 -10.344500 -35.520300
C -18.277600 -9.722200 -34.888100
C -17.932800 -10.473900 -32.571300
H -17.892900 -8.980200 -35.342500
H -17.520000 -11.040700 -30.675000
N -17.396300 -10.110400 -33.782400
C -17.150800 -10.791100 -31.528800
C -16.067100 -10.218700 -33.959800
H -15.732400 -10.056200 -34.870200
C -15.710200 -10.707900 -31.605100
C -15.194000 -10.548400 -32.949700
N -15.112600 -10.773500 -30.449100
H -14.767300 -9.922600 -27.869900
C -13.841900 -10.894900 -33.436400
C -13.790200 -9.909200 -27.953600
N -13.732900 -10.550300 -30.395200
O -13.628500 -11.021400 -34.629300
H -13.290400 -9.409200 -26.034500
C -13.182700 -10.176700 -29.173300
C -12.933000 -9.611000 -26.905000
N -12.799600 -11.175000 -32.556700
C -12.682600 -10.722600 -31.251300
H -11.824800 -12.355800 -33.896800
C -11.803700 -10.129700 -29.375600
C -11.563500 -11.689100 -33.179000
C -11.544900 -9.556900 -27.078500
N -11.507000 -10.472600 -30.696100
H -11.058300 -10.928200 -33.589700
H -11.015300 -12.123700 -32.481700
H -10.973400 -9.324800 -26.325500
C -10.959900 -9.803700 -28.312800
H -10.024700 -9.767900 -28.397900
34
Fragment
H -8.705700 -8.150400 -25.598200
H -8.493700 -7.081500 -23.561700
H -7.891600 -7.236200 -26.541000
C -7.864400 -7.858600 -25.908800
C -7.519500 -7.106800 -23.592000
H -7.479700 -8.600500 -26.363200
H -7.106700 -6.540000 -21.695800
N -6.983000 -7.470300 -24.803100
C -6.737600 -6.789700 -22.549500
C -5.653900 -7.362000 -24.980600
H -5.319100 -7.524600 -25.890900
C -5.297000 -6.872800 -22.625800
C -4.780700 -7.032300 -23.970400
N -4.699300 -6.807300 -21.469800
H -4.354100 -7.658200 -18.890600
C -3.428600 -6.685900 -24.457100
C -3.376900 -7.671500 -18.974300
N -3.319600 -7.030500 -21.416000
O -3.215300 -6.559400 -25.650100
H -2.877200 -8.171500 -17.055300
C -2.769400 -7.404100 -20.194100
C -2.519800 -7.969700 -17.925700
N -2.386400 -6.405700 -23.577500
C -2.269400 -6.858100 -22.272000
H -1.411600 -5.225000 -24.917500
C -1.390500 -7.451100 -20.396300
C -1.150200 -5.891700 -24.199700
C -1.131600 -8.023900 -18.099200
N -1.093800 -7.108100 -21.716800
H -0.645000 -6.652600 -24.610400
H -0.602100 -5.457100 -23.502400
H -0.560100 -8.255900 -17.346200
C -0.546600 -7.777000 -19.333500
H 0.388500 -7.812900 -19.418600
68
Fragment
H -19.119000 -9.430300 -34.577400
H -18.906900 -10.499200 -32.540900
H -18.304900 -10.344500 -35.520300
C -18.277600 -9.722200 -34.888100
C -17.932800 -10.473900 -32.571300
H -17.892900 -8.980200 -35.342500
H -17.520000 -11.040700 -30.675000
N -17.396300 -10.110400 -33.782400
C -17.150800 -10.791100 -31.528800
C -16.067100 -10.218700 -33.959800
H -15.732400 -10.056200 -34.870200
C -15.710200 -10.707900 -31.605100
C -15.194000 -10.548400 -32.949700
N -15.112600 -10.773500 -30.449100
H -14.767300 -9.922600 -27.869900
C -13.841900 -10.894900 -33.436400
C -13.790200 -9.909200 -27.953600
N -13.732900 -10.550300 -30.395200
O -13.628500 -11.021400 -34.629300
H -13.290400 -9.409200 -26.034500
C -13.182700 -10.176700 -29.173300
C -12.933000 -9.611000 -26.905000
N -12.799600 -11.175000 -32.556700
C -12.682600 -10.722600 -31.251300
H -11.824800 -12.355800 -33.896800
C -11.803700 -10.129700 -29.375600
C -11.563500 -11.689100 -33.179000
C -11.544900 -9.556900 -27.078500
N -11.507000 -10.472600 -30.696100
H -11.058300 -10.928200 -33.589700
H -11.015300 -12.123700 -32.481700
H -10.973400 -9.324800 -26.325500
C -10.959900 -9.803700 -28.312800
H -10.024700 -9.767900 -28.397900
H -8.705700 -8.150400 -25.598200
H -8.493700 -7.081500 -23.561700
H -7.891600 -7.236200 -26.541000
C -7.864400 -7.858600 -25.908800
C -7.519500 -7.106800 -23.592000
H -7.479700 -8.600500 -26.363200
H -7.106700 -6.540000 -21.695800
N -6.983000 -7.470300 -24.803100
C -6.737600 -6.789700 -22.549500
C -5.653900 -7.362000 -24.980600
H -5.319100 -7.524600 -25.890900
C -5.297000 -6.872800 -22.625800
C -4.780700 -7.032300 -23.970400
N -4.699300 -6.807300 -21.469800
H -4.354100 -7.658200 -18.890600
C -3.428600 -6.685900 -24.457100
C -3.376900 -7.671500 -18.974300
N -3.319600 -7.030500 -21.416000
O -3.215300 -6.559400 -25.650100
H -2.877200 -8.171500 -17.055300
C -2.769400 -7.404100 -20.194100
C -2.519800 -7.969700 -17.925700
N -2.386400 -6.405700 -23.577500
C -2.269400 -6.858100 -22.272000
H -1.411600 -5.225000 -24.917500
C -1.390500 -7.451100 -20.396300
C -1.150200 -5.891700 -24.199700
C -1.131600 -8.023900 -18.099200
N -1.093800 -7.108100 -21.716800
H -0.645000 -6.652600 -24.610400
H -0.602100 -5.457100 -23.502400
H -0.560100 -8.255900 -17.346200
C -0.546600 -7.777000 -19.333500
H 0.388500 -7.812900 -19.418600
