15
Fragment
O -19.325900 -14.688100 -21.906800
H -18.609900 -16.317200 -23.474700
H -18.412600 -14.684900 -19.110200
C -18.293400 -15.333800 -21.895800
H -17.972800 -13.567900 -19.841100
N -17.967700 -16.198200 -22.919600
C -17.717900 -14.433600 -19.697100
N -17.385600 -15.274500 -20.850200
H -16.926400 -14.381800 -18.935700
C -16.853600 -17.007400 -22.964700
O -16.647300 -17.807400 -23.865200
C -16.226800 -16.037300 -20.825800
N -15.986700 -16.808200 -21.923900
O -15.468500 -16.009000 -19.882600
H -15.133800 -17.274500 -21.900700
21
Fragment
H -26.681700 -11.322300 -23.749300
N -25.921400 -11.831700 -23.666300
H -25.622400 -12.581500 -24.232500
N -25.549500 -10.492300 -21.812900
H -25.240300 -9.496700 -20.204700
C -25.132600 -11.465300 -22.652300
C -24.758300 -10.099300 -20.790400
C -23.872000 -12.037800 -22.382700
N -23.556600 -10.576000 -20.447500
C -23.189500 -11.554400 -21.290600
N -23.154700 -13.055000 -23.013500
H -22.129900 -12.769400 -18.559900
C -22.053500 -13.129700 -22.288700
N -22.006100 -12.265300 -21.241800
H -21.347100 -13.989600 -19.277400
C -21.301900 -13.013300 -19.013800
H -21.293200 -13.744600 -22.444900
C -20.966200 -12.184000 -20.214500
H -20.909500 -11.259300 -19.989900
H -20.582900 -13.032000 -18.257300
H -20.021600 -12.485000 -20.596400
36
Fragment
O -19.325900 -14.688100 -21.906800
H -18.609900 -16.317200 -23.474700
H -18.412600 -14.684900 -19.110200
C -18.293400 -15.333800 -21.895800
H -17.972800 -13.567900 -19.841100
N -17.967700 -16.198200 -22.919600
C -17.717900 -14.433600 -19.697100
N -17.385600 -15.274500 -20.850200
H -16.926400 -14.381800 -18.935700
C -16.853600 -17.007400 -22.964700
O -16.647300 -17.807400 -23.865200
C -16.226800 -16.037300 -20.825800
N -15.986700 -16.808200 -21.923900
O -15.468500 -16.009000 -19.882600
H -15.133800 -17.274500 -21.900700
H -26.681700 -11.322300 -23.749300
N -25.921400 -11.831700 -23.666300
H -25.622400 -12.581500 -24.232500
N -25.549500 -10.492300 -21.812900
H -25.240300 -9.496700 -20.204700
C -25.132600 -11.465300 -22.652300
C -24.758300 -10.099300 -20.790400
C -23.872000 -12.037800 -22.382700
N -23.556600 -10.576000 -20.447500
C -23.189500 -11.554400 -21.290600
N -23.154700 -13.055000 -23.013500
H -22.129900 -12.769400 -18.559900
C -22.053500 -13.129700 -22.288700
N -22.006100 -12.265300 -21.241800
H -21.347100 -13.989600 -19.277400
C -21.301900 -13.013300 -19.013800
H -21.293200 -13.744600 -22.444900
C -20.966200 -12.184000 -20.214500
H -20.909500 -11.259300 -19.989900
H -20.582900 -13.032000 -18.257300
H -20.021600 -12.485000 -20.596400
