15
Fragment
O -19.325900 -14.688100 -21.906800
H -18.609900 -16.317200 -23.474700
H -18.412600 -14.684900 -19.110200
C -18.293400 -15.333800 -21.895800
H -17.972800 -13.567900 -19.841100
N -17.967700 -16.198200 -22.919600
C -17.717900 -14.433600 -19.697100
N -17.385600 -15.274500 -20.850200
H -16.926400 -14.381800 -18.935700
C -16.853600 -17.007400 -22.964700
O -16.647300 -17.807400 -23.865200
C -16.226800 -16.037300 -20.825800
N -15.986700 -16.808200 -21.923900
O -15.468500 -16.009000 -19.882600
H -15.133800 -17.274500 -21.900700
21
Fragment
H -21.210200 -14.409500 -28.210200
H -20.648900 -13.862600 -30.549200
H -20.322300 -15.635300 -28.816600
C -20.265600 -14.710600 -28.592100
H -19.938600 -13.150000 -26.361600
C -19.929900 -13.881300 -29.792700
H -19.884700 -12.905000 -29.529200
N -19.225700 -14.629300 -27.564700
C -19.178300 -13.764900 -26.517800
H -19.101800 -14.125200 -30.246600
N -18.077100 -13.839600 -25.793000
C -18.042300 -15.340200 -27.515900
N -17.675200 -16.318600 -28.359100
C -17.359800 -14.856800 -26.423900
C -16.473500 -16.795300 -28.016200
C -16.099200 -15.429300 -26.154200
H -15.991400 -17.397900 -28.601900
N -15.682300 -16.402300 -26.993700
H -15.609400 -14.313100 -24.574100
N -15.310400 -15.062900 -25.140300
H -14.550100 -15.572300 -25.057300
36
Fragment
O -19.325900 -14.688100 -21.906800
H -18.609900 -16.317200 -23.474700
H -18.412600 -14.684900 -19.110200
C -18.293400 -15.333800 -21.895800
H -17.972800 -13.567900 -19.841100
N -17.967700 -16.198200 -22.919600
C -17.717900 -14.433600 -19.697100
N -17.385600 -15.274500 -20.850200
H -16.926400 -14.381800 -18.935700
C -16.853600 -17.007400 -22.964700
O -16.647300 -17.807400 -23.865200
C -16.226800 -16.037300 -20.825800
N -15.986700 -16.808200 -21.923900
O -15.468500 -16.009000 -19.882600
H -15.133800 -17.274500 -21.900700
H -21.210200 -14.409500 -28.210200
H -20.648900 -13.862600 -30.549200
H -20.322300 -15.635300 -28.816600
C -20.265600 -14.710600 -28.592100
H -19.938600 -13.150000 -26.361600
C -19.929900 -13.881300 -29.792700
H -19.884700 -12.905000 -29.529200
N -19.225700 -14.629300 -27.564700
C -19.178300 -13.764900 -26.517800
H -19.101800 -14.125200 -30.246600
N -18.077100 -13.839600 -25.793000
C -18.042300 -15.340200 -27.515900
N -17.675200 -16.318600 -28.359100
C -17.359800 -14.856800 -26.423900
C -16.473500 -16.795300 -28.016200
C -16.099200 -15.429300 -26.154200
H -15.991400 -17.397900 -28.601900
N -15.682300 -16.402300 -26.993700
H -15.609400 -14.313100 -24.574100
N -15.310400 -15.062900 -25.140300
H -14.550100 -15.572300 -25.057300
