38
Fragment
H -21.713700 -13.586700 -23.746500
H -21.199100 -12.279200 -22.849100
C -20.891500 -13.128500 -23.321300
H -20.444300 -13.711700 -22.614400
H -20.175200 -12.199600 -24.975300
C -19.850100 -12.848800 -24.331900
H -19.709200 -10.687400 -21.786100
H -19.608300 -13.689000 -24.837200
H -19.217100 -10.448700 -24.104100
C -18.784600 -10.496400 -22.080100
H -18.634200 -9.561800 -21.937900
N -18.605100 -12.320200 -23.760600
C -18.521300 -10.876200 -23.510400
H -18.249600 -10.960300 -21.482300
O -17.761400 -14.400500 -23.632500
C -17.615900 -13.157600 -23.440400
H -17.615400 -10.516900 -23.768600
H -16.841900 -15.349000 -23.277100
N -16.489600 -12.683800 -22.924000
H -16.326300 -11.847100 -22.840800
O -16.250900 -16.243300 -23.038700
H -15.848400 -13.245600 -22.722100
O -15.702200 -21.022300 -22.673800
H -15.651500 -18.617700 -22.753900
C -15.126000 -16.020600 -22.471900
C -14.824100 -18.489600 -22.313600
O -14.682700 -14.883500 -22.245000
N -14.603800 -20.915400 -22.166800
C -14.343000 -17.211100 -22.067800
C -14.082400 -19.578800 -21.921400
O -13.925200 -21.878100 -21.873200
H -13.231100 -15.303500 -21.468500
C -13.118600 -17.069200 -21.415200
C -12.871000 -19.439700 -21.286800
O -12.611300 -15.857300 -21.127800
C -12.393000 -18.192500 -21.032200
H -12.391500 -20.215100 -21.055700
H -11.554300 -18.089000 -20.626300
38
Fragment
H -21.713700 -2.217100 -23.746500
H -21.199100 -0.909600 -22.849100
C -20.891500 -1.758900 -23.321300
H -20.444300 -2.342100 -22.614400
H -20.175200 -0.830000 -24.975300
C -19.850100 -1.479200 -24.331900
H -19.709200 0.682200 -21.786100
H -19.608300 -2.319400 -24.837200
H -19.217100 0.920900 -24.104100
C -18.784600 0.873200 -22.080100
H -18.634200 1.807800 -21.937900
N -18.605100 -0.950600 -23.760600
C -18.521300 0.493400 -23.510400
H -18.249600 0.409300 -21.482300
O -17.761400 -3.030900 -23.632500
C -17.615900 -1.788000 -23.440400
H -17.615400 0.852700 -23.768600
H -16.841900 -3.979400 -23.277100
N -16.489600 -1.314200 -22.924000
H -16.326300 -0.477500 -22.840800
O -16.250900 -4.873700 -23.038700
H -15.848400 -1.876000 -22.722100
O -15.702200 -9.652700 -22.673800
H -15.651500 -7.248100 -22.753900
C -15.126000 -4.651000 -22.471900
C -14.824100 -7.120000 -22.313600
O -14.682700 -3.513900 -22.245000
N -14.603800 -9.545800 -22.166800
C -14.343000 -5.841500 -22.067800
C -14.082400 -8.209200 -21.921400
O -13.925200 -10.508500 -21.873200
H -13.231100 -3.933900 -21.468500
C -13.118600 -5.699600 -21.415200
C -12.871000 -8.070100 -21.286800
O -12.611300 -4.487700 -21.127800
C -12.393000 -6.822900 -21.032200
H -12.391500 -8.845500 -21.055700
H -11.554300 -6.719400 -20.626300
76
Fragment
H -21.713700 -13.586700 -23.746500
H -21.199100 -12.279200 -22.849100
C -20.891500 -13.128500 -23.321300
H -20.444300 -13.711700 -22.614400
H -20.175200 -12.199600 -24.975300
C -19.850100 -12.848800 -24.331900
H -19.709200 -10.687400 -21.786100
H -19.608300 -13.689000 -24.837200
H -19.217100 -10.448700 -24.104100
C -18.784600 -10.496400 -22.080100
H -18.634200 -9.561800 -21.937900
N -18.605100 -12.320200 -23.760600
C -18.521300 -10.876200 -23.510400
H -18.249600 -10.960300 -21.482300
O -17.761400 -14.400500 -23.632500
C -17.615900 -13.157600 -23.440400
H -17.615400 -10.516900 -23.768600
H -16.841900 -15.349000 -23.277100
N -16.489600 -12.683800 -22.924000
H -16.326300 -11.847100 -22.840800
O -16.250900 -16.243300 -23.038700
H -15.848400 -13.245600 -22.722100
O -15.702200 -21.022300 -22.673800
H -15.651500 -18.617700 -22.753900
C -15.126000 -16.020600 -22.471900
C -14.824100 -18.489600 -22.313600
O -14.682700 -14.883500 -22.245000
N -14.603800 -20.915400 -22.166800
C -14.343000 -17.211100 -22.067800
C -14.082400 -19.578800 -21.921400
O -13.925200 -21.878100 -21.873200
H -13.231100 -15.303500 -21.468500
C -13.118600 -17.069200 -21.415200
C -12.871000 -19.439700 -21.286800
O -12.611300 -15.857300 -21.127800
C -12.393000 -18.192500 -21.032200
H -12.391500 -20.215100 -21.055700
H -11.554300 -18.089000 -20.626300
H -21.713700 -2.217100 -23.746500
H -21.199100 -0.909600 -22.849100
C -20.891500 -1.758900 -23.321300
H -20.444300 -2.342100 -22.614400
H -20.175200 -0.830000 -24.975300
C -19.850100 -1.479200 -24.331900
H -19.709200 0.682200 -21.786100
H -19.608300 -2.319400 -24.837200
H -19.217100 0.920900 -24.104100
C -18.784600 0.873200 -22.080100
H -18.634200 1.807800 -21.937900
N -18.605100 -0.950600 -23.760600
C -18.521300 0.493400 -23.510400
H -18.249600 0.409300 -21.482300
O -17.761400 -3.030900 -23.632500
C -17.615900 -1.788000 -23.440400
H -17.615400 0.852700 -23.768600
H -16.841900 -3.979400 -23.277100
N -16.489600 -1.314200 -22.924000
H -16.326300 -0.477500 -22.840800
O -16.250900 -4.873700 -23.038700
H -15.848400 -1.876000 -22.722100
O -15.702200 -9.652700 -22.673800
H -15.651500 -7.248100 -22.753900
C -15.126000 -4.651000 -22.471900
C -14.824100 -7.120000 -22.313600
O -14.682700 -3.513900 -22.245000
N -14.603800 -9.545800 -22.166800
C -14.343000 -5.841500 -22.067800
C -14.082400 -8.209200 -21.921400
O -13.925200 -10.508500 -21.873200
H -13.231100 -3.933900 -21.468500
C -13.118600 -5.699600 -21.415200
C -12.871000 -8.070100 -21.286800
O -12.611300 -4.487700 -21.127800
C -12.393000 -6.822900 -21.032200
H -12.391500 -8.845500 -21.055700
H -11.554300 -6.719400 -20.626300
