37
Fragment
H -19.443900 -14.246600 -34.252400
H -19.101900 -15.920900 -34.062500
H -18.859400 -14.867400 -32.901700
C -18.788800 -14.936700 -33.851400
C -17.374800 -14.670100 -34.267200
H -17.284200 -14.623000 -35.252700
H -17.204000 -17.078100 -34.803200
H -17.074300 -13.789300 -34.041400
N -16.419300 -15.641200 -33.735300
C -16.362600 -16.956200 -34.379000
H -16.260200 -17.663800 -33.695200
O -15.802700 -14.225400 -32.080800
C -15.680500 -15.353700 -32.661100
H -15.320900 -16.507900 -35.983000
C -15.213300 -17.091800 -35.360400
H -15.183600 -17.969100 -35.814100
N -14.822500 -16.269200 -32.188400
H -14.711200 -13.689500 -31.276700
H -14.523500 -16.986300 -32.669600
H -14.436200 -17.116900 -34.927700
O -14.419200 -14.038800 -27.830300
H -14.180400 -15.957000 -31.572100
O -14.126400 -13.175100 -30.580200
O -14.101700 -12.594800 -26.270700
N -13.748600 -13.160900 -27.294300
C -13.172600 -13.895800 -30.101200
O -12.960100 -15.070600 -30.367100
C -12.469300 -12.810900 -27.889400
C -12.203300 -13.159600 -29.216900
H -11.751200 -11.992700 -26.253800
C -11.522300 -12.181600 -27.085300
C -10.969500 -12.841300 -29.725500
H -10.809000 -13.030000 -30.673100
C -10.302300 -11.880400 -27.619300
C -10.016100 -12.200700 -28.942500
H -9.635700 -11.407800 -27.049500
H -9.175700 -12.023700 -29.303400
37
Fragment
H -19.890400 -15.055000 -37.432800
H -19.598800 -17.303300 -37.076200
C -19.026600 -15.488000 -37.696600
C -18.905000 -16.845500 -37.472900
H -18.052100 -13.854600 -38.454300
C -18.010700 -14.782800 -38.310800
C -17.757100 -17.511900 -37.854900
H -17.709400 -18.425700 -37.738800
C -16.836300 -15.425500 -38.699100
C -16.754200 -16.791000 -38.471200
O -15.886000 -14.498700 -40.644900
C -15.806800 -14.608800 -39.427200
N -15.538900 -17.518400 -38.855300
O -15.503800 -18.723500 -38.652700
O -14.956400 -14.001400 -38.671600
H -14.675300 -13.126700 -41.476400
O -14.633200 -16.901000 -39.372300
H -14.392000 -9.672200 -42.356500
H -14.376500 -11.996200 -42.335400
N -14.177500 -12.456600 -41.666400
H -14.165400 -13.468300 -39.169700
C -13.509700 -9.286700 -42.521100
H -13.488100 -8.956600 -43.475000
H -13.369000 -8.550700 -41.919600
C -13.280400 -12.027700 -40.782100
O -13.176400 -12.623200 -39.646700
H -12.727100 -11.180800 -43.057100
C -12.494900 -10.405500 -42.411300
N -12.470000 -11.030300 -41.086000
H -11.778900 -10.746600 -39.237200
H -11.685900 -10.030400 -42.609700
C -11.501300 -10.509100 -40.106700
H -11.487400 -9.569800 -40.208000
C -10.104200 -11.035700 -40.351600
H -10.081300 -12.031300 -40.262900
H -9.904900 -10.787600 -41.216800
H -9.462300 -10.636500 -39.691000
74
Fragment
H -19.443900 -14.246600 -34.252400
H -19.101900 -15.920900 -34.062500
H -18.859400 -14.867400 -32.901700
C -18.788800 -14.936700 -33.851400
C -17.374800 -14.670100 -34.267200
H -17.284200 -14.623000 -35.252700
H -17.204000 -17.078100 -34.803200
H -17.074300 -13.789300 -34.041400
N -16.419300 -15.641200 -33.735300
C -16.362600 -16.956200 -34.379000
H -16.260200 -17.663800 -33.695200
O -15.802700 -14.225400 -32.080800
C -15.680500 -15.353700 -32.661100
H -15.320900 -16.507900 -35.983000
C -15.213300 -17.091800 -35.360400
H -15.183600 -17.969100 -35.814100
N -14.822500 -16.269200 -32.188400
H -14.711200 -13.689500 -31.276700
H -14.523500 -16.986300 -32.669600
H -14.436200 -17.116900 -34.927700
O -14.419200 -14.038800 -27.830300
H -14.180400 -15.957000 -31.572100
O -14.126400 -13.175100 -30.580200
O -14.101700 -12.594800 -26.270700
N -13.748600 -13.160900 -27.294300
C -13.172600 -13.895800 -30.101200
O -12.960100 -15.070600 -30.367100
C -12.469300 -12.810900 -27.889400
C -12.203300 -13.159600 -29.216900
H -11.751200 -11.992700 -26.253800
C -11.522300 -12.181600 -27.085300
C -10.969500 -12.841300 -29.725500
H -10.809000 -13.030000 -30.673100
C -10.302300 -11.880400 -27.619300
C -10.016100 -12.200700 -28.942500
H -9.635700 -11.407800 -27.049500
H -9.175700 -12.023700 -29.303400
H -19.890400 -15.055000 -37.432800
H -19.598800 -17.303300 -37.076200
C -19.026600 -15.488000 -37.696600
C -18.905000 -16.845500 -37.472900
H -18.052100 -13.854600 -38.454300
C -18.010700 -14.782800 -38.310800
C -17.757100 -17.511900 -37.854900
H -17.709400 -18.425700 -37.738800
C -16.836300 -15.425500 -38.699100
C -16.754200 -16.791000 -38.471200
O -15.886000 -14.498700 -40.644900
C -15.806800 -14.608800 -39.427200
N -15.538900 -17.518400 -38.855300
O -15.503800 -18.723500 -38.652700
O -14.956400 -14.001400 -38.671600
H -14.675300 -13.126700 -41.476400
O -14.633200 -16.901000 -39.372300
H -14.392000 -9.672200 -42.356500
H -14.376500 -11.996200 -42.335400
N -14.177500 -12.456600 -41.666400
H -14.165400 -13.468300 -39.169700
C -13.509700 -9.286700 -42.521100
H -13.488100 -8.956600 -43.475000
H -13.369000 -8.550700 -41.919600
C -13.280400 -12.027700 -40.782100
O -13.176400 -12.623200 -39.646700
H -12.727100 -11.180800 -43.057100
C -12.494900 -10.405500 -42.411300
N -12.470000 -11.030300 -41.086000
H -11.778900 -10.746600 -39.237200
H -11.685900 -10.030400 -42.609700
C -11.501300 -10.509100 -40.106700
H -11.487400 -9.569800 -40.208000
C -10.104200 -11.035700 -40.351600
H -10.081300 -12.031300 -40.262900
H -9.904900 -10.787600 -41.216800
H -9.462300 -10.636500 -39.691000
