37
Fragment
H -19.443900 -14.246600 -34.252400
H -19.101900 -15.920900 -34.062500
H -18.859400 -14.867400 -32.901700
C -18.788800 -14.936700 -33.851400
C -17.374800 -14.670100 -34.267200
H -17.284200 -14.623000 -35.252700
H -17.204000 -17.078100 -34.803200
H -17.074300 -13.789300 -34.041400
N -16.419300 -15.641200 -33.735300
C -16.362600 -16.956200 -34.379000
H -16.260200 -17.663800 -33.695200
O -15.802700 -14.225400 -32.080800
C -15.680500 -15.353700 -32.661100
H -15.320900 -16.507900 -35.983000
C -15.213300 -17.091800 -35.360400
H -15.183600 -17.969100 -35.814100
N -14.822500 -16.269200 -32.188400
H -14.711200 -13.689500 -31.276700
H -14.523500 -16.986300 -32.669600
H -14.436200 -17.116900 -34.927700
O -14.419200 -14.038800 -27.830300
H -14.180400 -15.957000 -31.572100
O -14.126400 -13.175100 -30.580200
O -14.101700 -12.594800 -26.270700
N -13.748600 -13.160900 -27.294300
C -13.172600 -13.895800 -30.101200
O -12.960100 -15.070600 -30.367100
C -12.469300 -12.810900 -27.889400
C -12.203300 -13.159600 -29.216900
H -11.751200 -11.992700 -26.253800
C -11.522300 -12.181600 -27.085300
C -10.969500 -12.841300 -29.725500
H -10.809000 -13.030000 -30.673100
C -10.302300 -11.880400 -27.619300
C -10.016100 -12.200700 -28.942500
H -9.635700 -11.407800 -27.049500
H -9.175700 -12.023700 -29.303400
37
Fragment
H -12.491900 -14.246600 -34.252400
H -12.149900 -15.920900 -34.062500
H -11.907400 -14.867400 -32.901700
C -11.836800 -14.936700 -33.851400
C -10.422800 -14.670100 -34.267200
H -10.332200 -14.623000 -35.252700
H -10.252000 -17.078100 -34.803200
H -10.122300 -13.789300 -34.041400
N -9.467300 -15.641200 -33.735300
C -9.410600 -16.956200 -34.379000
H -9.308200 -17.663800 -33.695200
O -8.850700 -14.225400 -32.080800
C -8.728500 -15.353700 -32.661100
H -8.368900 -16.507900 -35.983000
C -8.261300 -17.091800 -35.360400
H -8.231600 -17.969100 -35.814100
N -7.870500 -16.269200 -32.188400
H -7.759200 -13.689500 -31.276700
H -7.571500 -16.986300 -32.669600
H -7.484200 -17.116900 -34.927700
O -7.467200 -14.038800 -27.830300
H -7.228400 -15.957000 -31.572100
O -7.174400 -13.175100 -30.580200
O -7.149700 -12.594800 -26.270700
N -6.796600 -13.160900 -27.294300
C -6.220600 -13.895800 -30.101200
O -6.008100 -15.070600 -30.367100
C -5.517300 -12.810900 -27.889400
C -5.251300 -13.159600 -29.216900
H -4.799200 -11.992700 -26.253800
C -4.570300 -12.181600 -27.085300
C -4.017500 -12.841300 -29.725500
H -3.857000 -13.030000 -30.673100
C -3.350300 -11.880400 -27.619300
C -3.064100 -12.200700 -28.942500
H -2.683700 -11.407800 -27.049500
H -2.223700 -12.023700 -29.303400
74
Fragment
H -19.443900 -14.246600 -34.252400
H -19.101900 -15.920900 -34.062500
H -18.859400 -14.867400 -32.901700
C -18.788800 -14.936700 -33.851400
C -17.374800 -14.670100 -34.267200
H -17.284200 -14.623000 -35.252700
H -17.204000 -17.078100 -34.803200
H -17.074300 -13.789300 -34.041400
N -16.419300 -15.641200 -33.735300
C -16.362600 -16.956200 -34.379000
H -16.260200 -17.663800 -33.695200
O -15.802700 -14.225400 -32.080800
C -15.680500 -15.353700 -32.661100
H -15.320900 -16.507900 -35.983000
C -15.213300 -17.091800 -35.360400
H -15.183600 -17.969100 -35.814100
N -14.822500 -16.269200 -32.188400
H -14.711200 -13.689500 -31.276700
H -14.523500 -16.986300 -32.669600
H -14.436200 -17.116900 -34.927700
O -14.419200 -14.038800 -27.830300
H -14.180400 -15.957000 -31.572100
O -14.126400 -13.175100 -30.580200
O -14.101700 -12.594800 -26.270700
N -13.748600 -13.160900 -27.294300
C -13.172600 -13.895800 -30.101200
O -12.960100 -15.070600 -30.367100
C -12.469300 -12.810900 -27.889400
C -12.203300 -13.159600 -29.216900
H -11.751200 -11.992700 -26.253800
C -11.522300 -12.181600 -27.085300
C -10.969500 -12.841300 -29.725500
H -10.809000 -13.030000 -30.673100
C -10.302300 -11.880400 -27.619300
C -10.016100 -12.200700 -28.942500
H -9.635700 -11.407800 -27.049500
H -9.175700 -12.023700 -29.303400
H -12.491900 -14.246600 -34.252400
H -12.149900 -15.920900 -34.062500
H -11.907400 -14.867400 -32.901700
C -11.836800 -14.936700 -33.851400
C -10.422800 -14.670100 -34.267200
H -10.332200 -14.623000 -35.252700
H -10.252000 -17.078100 -34.803200
H -10.122300 -13.789300 -34.041400
N -9.467300 -15.641200 -33.735300
C -9.410600 -16.956200 -34.379000
H -9.308200 -17.663800 -33.695200
O -8.850700 -14.225400 -32.080800
C -8.728500 -15.353700 -32.661100
H -8.368900 -16.507900 -35.983000
C -8.261300 -17.091800 -35.360400
H -8.231600 -17.969100 -35.814100
N -7.870500 -16.269200 -32.188400
H -7.759200 -13.689500 -31.276700
H -7.571500 -16.986300 -32.669600
H -7.484200 -17.116900 -34.927700
O -7.467200 -14.038800 -27.830300
H -7.228400 -15.957000 -31.572100
O -7.174400 -13.175100 -30.580200
O -7.149700 -12.594800 -26.270700
N -6.796600 -13.160900 -27.294300
C -6.220600 -13.895800 -30.101200
O -6.008100 -15.070600 -30.367100
C -5.517300 -12.810900 -27.889400
C -5.251300 -13.159600 -29.216900
H -4.799200 -11.992700 -26.253800
C -4.570300 -12.181600 -27.085300
C -4.017500 -12.841300 -29.725500
H -3.857000 -13.030000 -30.673100
C -3.350300 -11.880400 -27.619300
C -3.064100 -12.200700 -28.942500
H -2.683700 -11.407800 -27.049500
H -2.223700 -12.023700 -29.303400
