38
Fragment
H -21.713700 -13.586700 -23.746500
H -21.199100 -12.279200 -22.849100
C -20.891500 -13.128500 -23.321300
H -20.444300 -13.711700 -22.614400
H -20.175200 -12.199600 -24.975300
C -19.850100 -12.848800 -24.331900
H -19.709200 -10.687400 -21.786100
H -19.608300 -13.689000 -24.837200
H -19.217100 -10.448700 -24.104100
C -18.784600 -10.496400 -22.080100
H -18.634200 -9.561800 -21.937900
N -18.605100 -12.320200 -23.760600
C -18.521300 -10.876200 -23.510400
H -18.249600 -10.960300 -21.482300
O -17.761400 -14.400500 -23.632500
C -17.615900 -13.157600 -23.440400
H -17.615400 -10.516900 -23.768600
H -16.841900 -15.349000 -23.277100
N -16.489600 -12.683800 -22.924000
H -16.326300 -11.847100 -22.840800
O -16.250900 -16.243300 -23.038700
H -15.848400 -13.245600 -22.722100
O -15.702200 -21.022300 -22.673800
H -15.651500 -18.617700 -22.753900
C -15.126000 -16.020600 -22.471900
C -14.824100 -18.489600 -22.313600
O -14.682700 -14.883500 -22.245000
N -14.603800 -20.915400 -22.166800
C -14.343000 -17.211100 -22.067800
C -14.082400 -19.578800 -21.921400
O -13.925200 -21.878100 -21.873200
H -13.231100 -15.303500 -21.468500
C -13.118600 -17.069200 -21.415200
C -12.871000 -19.439700 -21.286800
O -12.611300 -15.857300 -21.127800
C -12.393000 -18.192500 -21.032200
H -12.391500 -20.215100 -21.055700
H -11.554300 -18.089000 -20.626300
38
Fragment
H -12.552200 -24.956300 -23.746500
H -12.037600 -23.648800 -22.849100
C -11.730000 -24.498100 -23.321300
H -11.282800 -25.081300 -22.614400
H -11.013700 -23.569200 -24.975300
C -10.688600 -24.218400 -24.331900
H -10.547700 -22.057000 -21.786100
H -10.446800 -25.058600 -24.837200
H -10.055600 -21.818300 -24.104100
C -9.623100 -21.866000 -22.080100
H -9.472700 -20.931400 -21.937900
N -9.443600 -23.689800 -23.760600
C -9.359800 -22.245800 -23.510400
H -9.088100 -22.329900 -21.482300
O -8.599900 -25.770100 -23.632500
C -8.454400 -24.527200 -23.440400
H -8.453900 -21.886500 -23.768600
H -7.680400 -26.718600 -23.277100
N -7.328100 -24.053400 -22.924000
H -7.164800 -23.216700 -22.840800
O -7.089400 -27.612900 -23.038700
H -6.686900 -24.615200 -22.722100
O -6.540700 -32.391900 -22.673800
H -6.490000 -29.987300 -22.753900
C -5.964500 -27.390200 -22.471900
C -5.662600 -29.859200 -22.313600
O -5.521200 -26.253100 -22.245000
N -5.442300 -32.285000 -22.166800
C -5.181500 -28.580700 -22.067800
C -4.920900 -30.948400 -21.921400
O -4.763700 -33.247700 -21.873200
H -4.069600 -26.673100 -21.468500
C -3.957100 -28.438800 -21.415200
C -3.709500 -30.809300 -21.286800
O -3.449800 -27.226900 -21.127800
C -3.231500 -29.562100 -21.032200
H -3.230000 -31.584700 -21.055700
H -2.392800 -29.458600 -20.626300
76
Fragment
H -21.713700 -13.586700 -23.746500
H -21.199100 -12.279200 -22.849100
C -20.891500 -13.128500 -23.321300
H -20.444300 -13.711700 -22.614400
H -20.175200 -12.199600 -24.975300
C -19.850100 -12.848800 -24.331900
H -19.709200 -10.687400 -21.786100
H -19.608300 -13.689000 -24.837200
H -19.217100 -10.448700 -24.104100
C -18.784600 -10.496400 -22.080100
H -18.634200 -9.561800 -21.937900
N -18.605100 -12.320200 -23.760600
C -18.521300 -10.876200 -23.510400
H -18.249600 -10.960300 -21.482300
O -17.761400 -14.400500 -23.632500
C -17.615900 -13.157600 -23.440400
H -17.615400 -10.516900 -23.768600
H -16.841900 -15.349000 -23.277100
N -16.489600 -12.683800 -22.924000
H -16.326300 -11.847100 -22.840800
O -16.250900 -16.243300 -23.038700
H -15.848400 -13.245600 -22.722100
O -15.702200 -21.022300 -22.673800
H -15.651500 -18.617700 -22.753900
C -15.126000 -16.020600 -22.471900
C -14.824100 -18.489600 -22.313600
O -14.682700 -14.883500 -22.245000
N -14.603800 -20.915400 -22.166800
C -14.343000 -17.211100 -22.067800
C -14.082400 -19.578800 -21.921400
O -13.925200 -21.878100 -21.873200
H -13.231100 -15.303500 -21.468500
C -13.118600 -17.069200 -21.415200
C -12.871000 -19.439700 -21.286800
O -12.611300 -15.857300 -21.127800
C -12.393000 -18.192500 -21.032200
H -12.391500 -20.215100 -21.055700
H -11.554300 -18.089000 -20.626300
H -12.552200 -24.956300 -23.746500
H -12.037600 -23.648800 -22.849100
C -11.730000 -24.498100 -23.321300
H -11.282800 -25.081300 -22.614400
H -11.013700 -23.569200 -24.975300
C -10.688600 -24.218400 -24.331900
H -10.547700 -22.057000 -21.786100
H -10.446800 -25.058600 -24.837200
H -10.055600 -21.818300 -24.104100
C -9.623100 -21.866000 -22.080100
H -9.472700 -20.931400 -21.937900
N -9.443600 -23.689800 -23.760600
C -9.359800 -22.245800 -23.510400
H -9.088100 -22.329900 -21.482300
O -8.599900 -25.770100 -23.632500
C -8.454400 -24.527200 -23.440400
H -8.453900 -21.886500 -23.768600
H -7.680400 -26.718600 -23.277100
N -7.328100 -24.053400 -22.924000
H -7.164800 -23.216700 -22.840800
O -7.089400 -27.612900 -23.038700
H -6.686900 -24.615200 -22.722100
O -6.540700 -32.391900 -22.673800
H -6.490000 -29.987300 -22.753900
C -5.964500 -27.390200 -22.471900
C -5.662600 -29.859200 -22.313600
O -5.521200 -26.253100 -22.245000
N -5.442300 -32.285000 -22.166800
C -5.181500 -28.580700 -22.067800
C -4.920900 -30.948400 -21.921400
O -4.763700 -33.247700 -21.873200
H -4.069600 -26.673100 -21.468500
C -3.957100 -28.438800 -21.415200
C -3.709500 -30.809300 -21.286800
O -3.449800 -27.226900 -21.127800
C -3.231500 -29.562100 -21.032200
H -3.230000 -31.584700 -21.055700
H -2.392800 -29.458600 -20.626300
