37
Fragment
H -19.443900 -14.246600 -34.252400
H -19.101900 -15.920900 -34.062500
H -18.859400 -14.867400 -32.901700
C -18.788800 -14.936700 -33.851400
C -17.374800 -14.670100 -34.267200
H -17.284200 -14.623000 -35.252700
H -17.204000 -17.078100 -34.803200
H -17.074300 -13.789300 -34.041400
N -16.419300 -15.641200 -33.735300
C -16.362600 -16.956200 -34.379000
H -16.260200 -17.663800 -33.695200
O -15.802700 -14.225400 -32.080800
C -15.680500 -15.353700 -32.661100
H -15.320900 -16.507900 -35.983000
C -15.213300 -17.091800 -35.360400
H -15.183600 -17.969100 -35.814100
N -14.822500 -16.269200 -32.188400
H -14.711200 -13.689500 -31.276700
H -14.523500 -16.986300 -32.669600
H -14.436200 -17.116900 -34.927700
O -14.419200 -14.038800 -27.830300
H -14.180400 -15.957000 -31.572100
O -14.126400 -13.175100 -30.580200
O -14.101700 -12.594800 -26.270700
N -13.748600 -13.160900 -27.294300
C -13.172600 -13.895800 -30.101200
O -12.960100 -15.070600 -30.367100
C -12.469300 -12.810900 -27.889400
C -12.203300 -13.159600 -29.216900
H -11.751200 -11.992700 -26.253800
C -11.522300 -12.181600 -27.085300
C -10.969500 -12.841300 -29.725500
H -10.809000 -13.030000 -30.673100
C -10.302300 -11.880400 -27.619300
C -10.016100 -12.200700 -28.942500
H -9.635700 -11.407800 -27.049500
H -9.175700 -12.023700 -29.303400
37
Fragment
H -26.395900 -14.246600 -34.252400
H -26.053900 -15.920900 -34.062500
H -25.811400 -14.867400 -32.901700
C -25.740800 -14.936700 -33.851400
C -24.326800 -14.670100 -34.267200
H -24.236200 -14.623000 -35.252700
H -24.156000 -17.078100 -34.803200
H -24.026300 -13.789300 -34.041400
N -23.371300 -15.641200 -33.735300
C -23.314600 -16.956200 -34.379000
H -23.212200 -17.663800 -33.695200
O -22.754700 -14.225400 -32.080800
C -22.632500 -15.353700 -32.661100
H -22.272900 -16.507900 -35.983000
C -22.165300 -17.091800 -35.360400
H -22.135600 -17.969100 -35.814100
N -21.774500 -16.269200 -32.188400
H -21.663200 -13.689500 -31.276700
H -21.475500 -16.986300 -32.669600
H -21.388200 -17.116900 -34.927700
O -21.371200 -14.038800 -27.830300
H -21.132400 -15.957000 -31.572100
O -21.078400 -13.175100 -30.580200
O -21.053700 -12.594800 -26.270700
N -20.700600 -13.160900 -27.294300
C -20.124600 -13.895800 -30.101200
O -19.912100 -15.070600 -30.367100
C -19.421300 -12.810900 -27.889400
C -19.155300 -13.159600 -29.216900
H -18.703200 -11.992700 -26.253800
C -18.474300 -12.181600 -27.085300
C -17.921500 -12.841300 -29.725500
H -17.761000 -13.030000 -30.673100
C -17.254300 -11.880400 -27.619300
C -16.968100 -12.200700 -28.942500
H -16.587700 -11.407800 -27.049500
H -16.127700 -12.023700 -29.303400
74
Fragment
H -19.443900 -14.246600 -34.252400
H -19.101900 -15.920900 -34.062500
H -18.859400 -14.867400 -32.901700
C -18.788800 -14.936700 -33.851400
C -17.374800 -14.670100 -34.267200
H -17.284200 -14.623000 -35.252700
H -17.204000 -17.078100 -34.803200
H -17.074300 -13.789300 -34.041400
N -16.419300 -15.641200 -33.735300
C -16.362600 -16.956200 -34.379000
H -16.260200 -17.663800 -33.695200
O -15.802700 -14.225400 -32.080800
C -15.680500 -15.353700 -32.661100
H -15.320900 -16.507900 -35.983000
C -15.213300 -17.091800 -35.360400
H -15.183600 -17.969100 -35.814100
N -14.822500 -16.269200 -32.188400
H -14.711200 -13.689500 -31.276700
H -14.523500 -16.986300 -32.669600
H -14.436200 -17.116900 -34.927700
O -14.419200 -14.038800 -27.830300
H -14.180400 -15.957000 -31.572100
O -14.126400 -13.175100 -30.580200
O -14.101700 -12.594800 -26.270700
N -13.748600 -13.160900 -27.294300
C -13.172600 -13.895800 -30.101200
O -12.960100 -15.070600 -30.367100
C -12.469300 -12.810900 -27.889400
C -12.203300 -13.159600 -29.216900
H -11.751200 -11.992700 -26.253800
C -11.522300 -12.181600 -27.085300
C -10.969500 -12.841300 -29.725500
H -10.809000 -13.030000 -30.673100
C -10.302300 -11.880400 -27.619300
C -10.016100 -12.200700 -28.942500
H -9.635700 -11.407800 -27.049500
H -9.175700 -12.023700 -29.303400
H -26.395900 -14.246600 -34.252400
H -26.053900 -15.920900 -34.062500
H -25.811400 -14.867400 -32.901700
C -25.740800 -14.936700 -33.851400
C -24.326800 -14.670100 -34.267200
H -24.236200 -14.623000 -35.252700
H -24.156000 -17.078100 -34.803200
H -24.026300 -13.789300 -34.041400
N -23.371300 -15.641200 -33.735300
C -23.314600 -16.956200 -34.379000
H -23.212200 -17.663800 -33.695200
O -22.754700 -14.225400 -32.080800
C -22.632500 -15.353700 -32.661100
H -22.272900 -16.507900 -35.983000
C -22.165300 -17.091800 -35.360400
H -22.135600 -17.969100 -35.814100
N -21.774500 -16.269200 -32.188400
H -21.663200 -13.689500 -31.276700
H -21.475500 -16.986300 -32.669600
H -21.388200 -17.116900 -34.927700
O -21.371200 -14.038800 -27.830300
H -21.132400 -15.957000 -31.572100
O -21.078400 -13.175100 -30.580200
O -21.053700 -12.594800 -26.270700
N -20.700600 -13.160900 -27.294300
C -20.124600 -13.895800 -30.101200
O -19.912100 -15.070600 -30.367100
C -19.421300 -12.810900 -27.889400
C -19.155300 -13.159600 -29.216900
H -18.703200 -11.992700 -26.253800
C -18.474300 -12.181600 -27.085300
C -17.921500 -12.841300 -29.725500
H -17.761000 -13.030000 -30.673100
C -17.254300 -11.880400 -27.619300
C -16.968100 -12.200700 -28.942500
H -16.587700 -11.407800 -27.049500
H -16.127700 -12.023700 -29.303400
