37
Fragment
H -19.443900 -14.246600 -34.252400
H -19.101900 -15.920900 -34.062500
H -18.859400 -14.867400 -32.901700
C -18.788800 -14.936700 -33.851400
C -17.374800 -14.670100 -34.267200
H -17.284200 -14.623000 -35.252700
H -17.204000 -17.078100 -34.803200
H -17.074300 -13.789300 -34.041400
N -16.419300 -15.641200 -33.735300
C -16.362600 -16.956200 -34.379000
H -16.260200 -17.663800 -33.695200
O -15.802700 -14.225400 -32.080800
C -15.680500 -15.353700 -32.661100
H -15.320900 -16.507900 -35.983000
C -15.213300 -17.091800 -35.360400
H -15.183600 -17.969100 -35.814100
N -14.822500 -16.269200 -32.188400
H -14.711200 -13.689500 -31.276700
H -14.523500 -16.986300 -32.669600
H -14.436200 -17.116900 -34.927700
O -14.419200 -14.038800 -27.830300
H -14.180400 -15.957000 -31.572100
O -14.126400 -13.175100 -30.580200
O -14.101700 -12.594800 -26.270700
N -13.748600 -13.160900 -27.294300
C -13.172600 -13.895800 -30.101200
O -12.960100 -15.070600 -30.367100
C -12.469300 -12.810900 -27.889400
C -12.203300 -13.159600 -29.216900
H -11.751200 -11.992700 -26.253800
C -11.522300 -12.181600 -27.085300
C -10.969500 -12.841300 -29.725500
H -10.809000 -13.030000 -30.673100
C -10.302300 -11.880400 -27.619300
C -10.016100 -12.200700 -28.942500
H -9.635700 -11.407800 -27.049500
H -9.175700 -12.023700 -29.303400
37
Fragment
H -22.070600 -13.539100 -23.622100
H -21.628000 -13.388000 -22.096300
H -21.451600 -12.144400 -23.050200
C -21.428700 -13.139900 -22.961600
H -20.045500 -14.605800 -23.105100
C -20.031700 -13.666500 -23.206400
H -19.847000 -14.145200 -20.703400
H -19.754000 -13.429000 -24.075900
N -19.062900 -13.145300 -22.227100
C -19.038000 -13.770100 -20.901800
H -18.805800 -12.994800 -20.256000
O -18.356500 -11.552400 -23.666400
C -18.252500 -12.147900 -22.531000
H -18.163900 -15.624900 -21.393500
H -18.044800 -15.219100 -19.838100
C -18.023200 -14.889000 -20.792000
H -17.367500 -10.707300 -24.143400
N -17.355400 -11.719000 -21.646800
H -17.156400 -12.179400 -20.977700
H -17.140900 -14.503500 -20.956600
O -16.899700 -7.274700 -23.940800
H -16.857700 -11.048900 -21.836700
O -16.576500 -10.174200 -24.641500
O -16.029100 -5.452100 -24.660500
N -15.994000 -6.657200 -24.457900
C -15.726100 -9.566800 -23.885900
O -15.647000 -9.677000 -22.668200
C -14.778700 -7.384600 -24.842000
C -14.696600 -8.750100 -24.614000
H -13.823500 -5.750000 -25.574300
C -13.775800 -6.663700 -25.458200
C -13.522200 -9.392800 -25.002300
H -13.480800 -10.321000 -24.858800
C -12.627900 -7.330200 -25.840200
C -12.506300 -8.687600 -25.616500
H -11.934100 -6.872300 -26.237000
H -11.642500 -9.120600 -25.880300
74
Fragment
H -19.443900 -14.246600 -34.252400
H -19.101900 -15.920900 -34.062500
H -18.859400 -14.867400 -32.901700
C -18.788800 -14.936700 -33.851400
C -17.374800 -14.670100 -34.267200
H -17.284200 -14.623000 -35.252700
H -17.204000 -17.078100 -34.803200
H -17.074300 -13.789300 -34.041400
N -16.419300 -15.641200 -33.735300
C -16.362600 -16.956200 -34.379000
H -16.260200 -17.663800 -33.695200
O -15.802700 -14.225400 -32.080800
C -15.680500 -15.353700 -32.661100
H -15.320900 -16.507900 -35.983000
C -15.213300 -17.091800 -35.360400
H -15.183600 -17.969100 -35.814100
N -14.822500 -16.269200 -32.188400
H -14.711200 -13.689500 -31.276700
H -14.523500 -16.986300 -32.669600
H -14.436200 -17.116900 -34.927700
O -14.419200 -14.038800 -27.830300
H -14.180400 -15.957000 -31.572100
O -14.126400 -13.175100 -30.580200
O -14.101700 -12.594800 -26.270700
N -13.748600 -13.160900 -27.294300
C -13.172600 -13.895800 -30.101200
O -12.960100 -15.070600 -30.367100
C -12.469300 -12.810900 -27.889400
C -12.203300 -13.159600 -29.216900
H -11.751200 -11.992700 -26.253800
C -11.522300 -12.181600 -27.085300
C -10.969500 -12.841300 -29.725500
H -10.809000 -13.030000 -30.673100
C -10.302300 -11.880400 -27.619300
C -10.016100 -12.200700 -28.942500
H -9.635700 -11.407800 -27.049500
H -9.175700 -12.023700 -29.303400
H -22.070600 -13.539100 -23.622100
H -21.628000 -13.388000 -22.096300
H -21.451600 -12.144400 -23.050200
C -21.428700 -13.139900 -22.961600
H -20.045500 -14.605800 -23.105100
C -20.031700 -13.666500 -23.206400
H -19.847000 -14.145200 -20.703400
H -19.754000 -13.429000 -24.075900
N -19.062900 -13.145300 -22.227100
C -19.038000 -13.770100 -20.901800
H -18.805800 -12.994800 -20.256000
O -18.356500 -11.552400 -23.666400
C -18.252500 -12.147900 -22.531000
H -18.163900 -15.624900 -21.393500
H -18.044800 -15.219100 -19.838100
C -18.023200 -14.889000 -20.792000
H -17.367500 -10.707300 -24.143400
N -17.355400 -11.719000 -21.646800
H -17.156400 -12.179400 -20.977700
H -17.140900 -14.503500 -20.956600
O -16.899700 -7.274700 -23.940800
H -16.857700 -11.048900 -21.836700
O -16.576500 -10.174200 -24.641500
O -16.029100 -5.452100 -24.660500
N -15.994000 -6.657200 -24.457900
C -15.726100 -9.566800 -23.885900
O -15.647000 -9.677000 -22.668200
C -14.778700 -7.384600 -24.842000
C -14.696600 -8.750100 -24.614000
H -13.823500 -5.750000 -25.574300
C -13.775800 -6.663700 -25.458200
C -13.522200 -9.392800 -25.002300
H -13.480800 -10.321000 -24.858800
C -12.627900 -7.330200 -25.840200
C -12.506300 -8.687600 -25.616500
H -11.934100 -6.872300 -26.237000
H -11.642500 -9.120600 -25.880300
