37
Fragment
H -19.443900 -14.246600 -34.252400
H -19.101900 -15.920900 -34.062500
H -18.859400 -14.867400 -32.901700
C -18.788800 -14.936700 -33.851400
C -17.374800 -14.670100 -34.267200
H -17.284200 -14.623000 -35.252700
H -17.204000 -17.078100 -34.803200
H -17.074300 -13.789300 -34.041400
N -16.419300 -15.641200 -33.735300
C -16.362600 -16.956200 -34.379000
H -16.260200 -17.663800 -33.695200
O -15.802700 -14.225400 -32.080800
C -15.680500 -15.353700 -32.661100
H -15.320900 -16.507900 -35.983000
C -15.213300 -17.091800 -35.360400
H -15.183600 -17.969100 -35.814100
N -14.822500 -16.269200 -32.188400
H -14.711200 -13.689500 -31.276700
H -14.523500 -16.986300 -32.669600
H -14.436200 -17.116900 -34.927700
O -14.419200 -14.038800 -27.830300
H -14.180400 -15.957000 -31.572100
O -14.126400 -13.175100 -30.580200
O -14.101700 -12.594800 -26.270700
N -13.748600 -13.160900 -27.294300
C -13.172600 -13.895800 -30.101200
O -12.960100 -15.070600 -30.367100
C -12.469300 -12.810900 -27.889400
C -12.203300 -13.159600 -29.216900
H -11.751200 -11.992700 -26.253800
C -11.522300 -12.181600 -27.085300
C -10.969500 -12.841300 -29.725500
H -10.809000 -13.030000 -30.673100
C -10.302300 -11.880400 -27.619300
C -10.016100 -12.200700 -28.942500
H -9.635700 -11.407800 -27.049500
H -9.175700 -12.023700 -29.303400
37
Fragment
H -15.405200 -12.151900 -34.009700
H -14.945200 -12.767800 -36.263600
C -14.564800 -11.974900 -34.370600
C -14.278600 -12.295200 -35.693800
H -13.771900 -11.145600 -32.640000
C -13.611400 -11.334300 -33.587600
C -13.058600 -11.994100 -36.227800
H -12.829700 -12.183000 -37.059300
C -12.377600 -11.016000 -34.096200
C -12.111600 -11.364800 -35.423700
O -11.620800 -9.105000 -32.946000
C -11.408300 -10.279800 -33.211900
N -10.832300 -11.014700 -36.018800
O -10.479200 -11.580900 -37.042400
O -10.454500 -11.000500 -32.732900
H -10.400500 -8.218600 -31.741000
O -10.161700 -10.136900 -35.482800
H -10.144700 -7.058800 -28.385400
H -10.057400 -7.189300 -30.643500
H -9.869800 -10.486100 -32.036400
N -9.758400 -7.906400 -31.124700
H -9.397300 -6.206500 -27.499000
C -9.367600 -7.083800 -27.952700
H -9.260000 -7.667800 -27.330200
C -8.900400 -8.821900 -30.652000
O -8.778200 -9.950200 -31.232400
H -8.320700 -6.511800 -29.617900
C -8.218300 -7.219400 -28.934100
N -8.161600 -8.534400 -29.577800
H -7.506600 -10.386300 -29.271800
H -7.376900 -7.097600 -28.509900
H -7.296700 -9.552600 -28.060400
C -7.206100 -9.505500 -29.045900
C -5.792100 -9.238900 -29.461700
H -5.721600 -9.308200 -30.411400
H -5.479000 -8.254800 -29.250700
H -5.137000 -9.929000 -29.060700
74
Fragment
H -19.443900 -14.246600 -34.252400
H -19.101900 -15.920900 -34.062500
H -18.859400 -14.867400 -32.901700
C -18.788800 -14.936700 -33.851400
C -17.374800 -14.670100 -34.267200
H -17.284200 -14.623000 -35.252700
H -17.204000 -17.078100 -34.803200
H -17.074300 -13.789300 -34.041400
N -16.419300 -15.641200 -33.735300
C -16.362600 -16.956200 -34.379000
H -16.260200 -17.663800 -33.695200
O -15.802700 -14.225400 -32.080800
C -15.680500 -15.353700 -32.661100
H -15.320900 -16.507900 -35.983000
C -15.213300 -17.091800 -35.360400
H -15.183600 -17.969100 -35.814100
N -14.822500 -16.269200 -32.188400
H -14.711200 -13.689500 -31.276700
H -14.523500 -16.986300 -32.669600
H -14.436200 -17.116900 -34.927700
O -14.419200 -14.038800 -27.830300
H -14.180400 -15.957000 -31.572100
O -14.126400 -13.175100 -30.580200
O -14.101700 -12.594800 -26.270700
N -13.748600 -13.160900 -27.294300
C -13.172600 -13.895800 -30.101200
O -12.960100 -15.070600 -30.367100
C -12.469300 -12.810900 -27.889400
C -12.203300 -13.159600 -29.216900
H -11.751200 -11.992700 -26.253800
C -11.522300 -12.181600 -27.085300
C -10.969500 -12.841300 -29.725500
H -10.809000 -13.030000 -30.673100
C -10.302300 -11.880400 -27.619300
C -10.016100 -12.200700 -28.942500
H -9.635700 -11.407800 -27.049500
H -9.175700 -12.023700 -29.303400
H -15.405200 -12.151900 -34.009700
H -14.945200 -12.767800 -36.263600
C -14.564800 -11.974900 -34.370600
C -14.278600 -12.295200 -35.693800
H -13.771900 -11.145600 -32.640000
C -13.611400 -11.334300 -33.587600
C -13.058600 -11.994100 -36.227800
H -12.829700 -12.183000 -37.059300
C -12.377600 -11.016000 -34.096200
C -12.111600 -11.364800 -35.423700
O -11.620800 -9.105000 -32.946000
C -11.408300 -10.279800 -33.211900
N -10.832300 -11.014700 -36.018800
O -10.479200 -11.580900 -37.042400
O -10.454500 -11.000500 -32.732900
H -10.400500 -8.218600 -31.741000
O -10.161700 -10.136900 -35.482800
H -10.144700 -7.058800 -28.385400
H -10.057400 -7.189300 -30.643500
H -9.869800 -10.486100 -32.036400
N -9.758400 -7.906400 -31.124700
H -9.397300 -6.206500 -27.499000
C -9.367600 -7.083800 -27.952700
H -9.260000 -7.667800 -27.330200
C -8.900400 -8.821900 -30.652000
O -8.778200 -9.950200 -31.232400
H -8.320700 -6.511800 -29.617900
C -8.218300 -7.219400 -28.934100
N -8.161600 -8.534400 -29.577800
H -7.506600 -10.386300 -29.271800
H -7.376900 -7.097600 -28.509900
H -7.296700 -9.552600 -28.060400
C -7.206100 -9.505500 -29.045900
C -5.792100 -9.238900 -29.461700
H -5.721600 -9.308200 -30.411400
H -5.479000 -8.254800 -29.250700
H -5.137000 -9.929000 -29.060700
