37
Fragment
H -19.443900 -14.246600 -34.252400
H -19.101900 -15.920900 -34.062500
H -18.859400 -14.867400 -32.901700
C -18.788800 -14.936700 -33.851400
C -17.374800 -14.670100 -34.267200
H -17.284200 -14.623000 -35.252700
H -17.204000 -17.078100 -34.803200
H -17.074300 -13.789300 -34.041400
N -16.419300 -15.641200 -33.735300
C -16.362600 -16.956200 -34.379000
H -16.260200 -17.663800 -33.695200
O -15.802700 -14.225400 -32.080800
C -15.680500 -15.353700 -32.661100
H -15.320900 -16.507900 -35.983000
C -15.213300 -17.091800 -35.360400
H -15.183600 -17.969100 -35.814100
N -14.822500 -16.269200 -32.188400
H -14.711200 -13.689500 -31.276700
H -14.523500 -16.986300 -32.669600
H -14.436200 -17.116900 -34.927700
O -14.419200 -14.038800 -27.830300
H -14.180400 -15.957000 -31.572100
O -14.126400 -13.175100 -30.580200
O -14.101700 -12.594800 -26.270700
N -13.748600 -13.160900 -27.294300
C -13.172600 -13.895800 -30.101200
O -12.960100 -15.070600 -30.367100
C -12.469300 -12.810900 -27.889400
C -12.203300 -13.159600 -29.216900
H -11.751200 -11.992700 -26.253800
C -11.522300 -12.181600 -27.085300
C -10.969500 -12.841300 -29.725500
H -10.809000 -13.030000 -30.673100
C -10.302300 -11.880400 -27.619300
C -10.016100 -12.200700 -28.942500
H -9.635700 -11.407800 -27.049500
H -9.175700 -12.023700 -29.303400
37
Fragment
H -23.748200 -21.492900 -34.009700
H -23.288200 -22.108800 -36.263600
C -22.907800 -21.315900 -34.370600
C -22.621700 -21.636200 -35.693800
H -22.114900 -20.486600 -32.640000
C -21.954400 -20.675300 -33.587600
C -21.401600 -21.335000 -36.227800
H -21.172700 -21.524000 -37.059300
C -20.720600 -20.357000 -34.096200
C -20.454700 -20.705800 -35.423700
O -19.963800 -18.446000 -32.946000
C -19.751400 -19.620800 -33.211900
N -19.175300 -20.355700 -36.018800
O -18.822300 -20.921900 -37.042400
O -18.797600 -20.341500 -32.732900
H -18.743500 -17.559600 -31.741000
O -18.504700 -19.477900 -35.482800
H -18.487700 -16.399700 -28.385400
H -18.400400 -16.530300 -30.643500
H -18.212800 -19.827100 -32.036400
N -18.101400 -17.247400 -31.124700
H -17.740300 -15.547500 -27.499000
C -17.710600 -16.424800 -27.952700
H -17.603100 -17.008800 -27.330200
C -17.243400 -18.162900 -30.652000
O -17.121300 -19.291200 -31.232400
H -16.663800 -15.852800 -29.617900
C -16.561300 -16.560400 -28.934100
N -16.504600 -17.875400 -29.577800
H -15.849600 -19.727300 -29.271800
H -15.719900 -16.438600 -28.509900
H -15.639700 -18.893600 -28.060400
C -15.549100 -18.846500 -29.045900
C -14.135100 -18.579900 -29.461700
H -14.064600 -18.649200 -30.411400
H -13.822000 -17.595700 -29.250700
H -13.480000 -19.270000 -29.060700
74
Fragment
H -19.443900 -14.246600 -34.252400
H -19.101900 -15.920900 -34.062500
H -18.859400 -14.867400 -32.901700
C -18.788800 -14.936700 -33.851400
C -17.374800 -14.670100 -34.267200
H -17.284200 -14.623000 -35.252700
H -17.204000 -17.078100 -34.803200
H -17.074300 -13.789300 -34.041400
N -16.419300 -15.641200 -33.735300
C -16.362600 -16.956200 -34.379000
H -16.260200 -17.663800 -33.695200
O -15.802700 -14.225400 -32.080800
C -15.680500 -15.353700 -32.661100
H -15.320900 -16.507900 -35.983000
C -15.213300 -17.091800 -35.360400
H -15.183600 -17.969100 -35.814100
N -14.822500 -16.269200 -32.188400
H -14.711200 -13.689500 -31.276700
H -14.523500 -16.986300 -32.669600
H -14.436200 -17.116900 -34.927700
O -14.419200 -14.038800 -27.830300
H -14.180400 -15.957000 -31.572100
O -14.126400 -13.175100 -30.580200
O -14.101700 -12.594800 -26.270700
N -13.748600 -13.160900 -27.294300
C -13.172600 -13.895800 -30.101200
O -12.960100 -15.070600 -30.367100
C -12.469300 -12.810900 -27.889400
C -12.203300 -13.159600 -29.216900
H -11.751200 -11.992700 -26.253800
C -11.522300 -12.181600 -27.085300
C -10.969500 -12.841300 -29.725500
H -10.809000 -13.030000 -30.673100
C -10.302300 -11.880400 -27.619300
C -10.016100 -12.200700 -28.942500
H -9.635700 -11.407800 -27.049500
H -9.175700 -12.023700 -29.303400
H -23.748200 -21.492900 -34.009700
H -23.288200 -22.108800 -36.263600
C -22.907800 -21.315900 -34.370600
C -22.621700 -21.636200 -35.693800
H -22.114900 -20.486600 -32.640000
C -21.954400 -20.675300 -33.587600
C -21.401600 -21.335000 -36.227800
H -21.172700 -21.524000 -37.059300
C -20.720600 -20.357000 -34.096200
C -20.454700 -20.705800 -35.423700
O -19.963800 -18.446000 -32.946000
C -19.751400 -19.620800 -33.211900
N -19.175300 -20.355700 -36.018800
O -18.822300 -20.921900 -37.042400
O -18.797600 -20.341500 -32.732900
H -18.743500 -17.559600 -31.741000
O -18.504700 -19.477900 -35.482800
H -18.487700 -16.399700 -28.385400
H -18.400400 -16.530300 -30.643500
H -18.212800 -19.827100 -32.036400
N -18.101400 -17.247400 -31.124700
H -17.740300 -15.547500 -27.499000
C -17.710600 -16.424800 -27.952700
H -17.603100 -17.008800 -27.330200
C -17.243400 -18.162900 -30.652000
O -17.121300 -19.291200 -31.232400
H -16.663800 -15.852800 -29.617900
C -16.561300 -16.560400 -28.934100
N -16.504600 -17.875400 -29.577800
H -15.849600 -19.727300 -29.271800
H -15.719900 -16.438600 -28.509900
H -15.639700 -18.893600 -28.060400
C -15.549100 -18.846500 -29.045900
C -14.135100 -18.579900 -29.461700
H -14.064600 -18.649200 -30.411400
H -13.822000 -17.595700 -29.250700
H -13.480000 -19.270000 -29.060700
