38
Fragment
H -21.713700 -13.586700 -23.746500
H -21.199100 -12.279200 -22.849100
C -20.891500 -13.128500 -23.321300
H -20.444300 -13.711700 -22.614400
H -20.175200 -12.199600 -24.975300
C -19.850100 -12.848800 -24.331900
H -19.709200 -10.687400 -21.786100
H -19.608300 -13.689000 -24.837200
H -19.217100 -10.448700 -24.104100
C -18.784600 -10.496400 -22.080100
H -18.634200 -9.561800 -21.937900
N -18.605100 -12.320200 -23.760600
C -18.521300 -10.876200 -23.510400
H -18.249600 -10.960300 -21.482300
O -17.761400 -14.400500 -23.632500
C -17.615900 -13.157600 -23.440400
H -17.615400 -10.516900 -23.768600
H -16.841900 -15.349000 -23.277100
N -16.489600 -12.683800 -22.924000
H -16.326300 -11.847100 -22.840800
O -16.250900 -16.243300 -23.038700
H -15.848400 -13.245600 -22.722100
O -15.702200 -21.022300 -22.673800
H -15.651500 -18.617700 -22.753900
C -15.126000 -16.020600 -22.471900
C -14.824100 -18.489600 -22.313600
O -14.682700 -14.883500 -22.245000
N -14.603800 -20.915400 -22.166800
C -14.343000 -17.211100 -22.067800
C -14.082400 -19.578800 -21.921400
O -13.925200 -21.878100 -21.873200
H -13.231100 -15.303500 -21.468500
C -13.118600 -17.069200 -21.415200
C -12.871000 -19.439700 -21.286800
O -12.611300 -15.857300 -21.127800
C -12.393000 -18.192500 -21.032200
H -12.391500 -20.215100 -21.055700
H -11.554300 -18.089000 -20.626300
38
Fragment
H -19.244900 -16.019800 -20.792000
H -18.407700 -13.893700 -20.362600
C -18.406200 -15.916300 -20.386100
O -18.187900 -18.251500 -20.290600
C -17.928200 -14.669100 -20.131500
C -17.680600 -17.039600 -20.003100
H -17.568100 -18.805300 -19.949800
O -16.874000 -12.230700 -19.545200
C -16.716800 -14.530000 -19.497000
C -16.456300 -16.897700 -19.350500
N -16.195400 -13.193400 -19.251500
O -16.116500 -19.225300 -19.173400
C -15.975200 -15.619200 -19.104800
C -15.673200 -18.088200 -18.946400
H -15.147700 -15.491100 -18.664500
O -15.097000 -13.086500 -18.744600
H -14.950800 -20.863200 -18.696200
O -14.548400 -17.865500 -18.379700
H -14.472900 -22.261700 -18.577500
N -14.309600 -21.425000 -18.494400
H -13.957300 -18.759800 -18.141200
H -13.183800 -23.591900 -17.649700
C -13.183300 -20.951200 -17.977900
O -13.037800 -19.708300 -17.785900
H -12.549600 -23.148500 -19.936000
C -12.278000 -23.232600 -17.907900
N -12.194200 -21.788600 -17.657800
H -12.165000 -24.547000 -19.480400
C -12.014700 -23.612400 -19.338200
H -11.582100 -23.660100 -17.314300
H -11.190900 -20.419800 -16.581100
H -11.090000 -23.421400 -19.632300
C -10.949100 -21.260000 -17.086500
H -10.624000 -21.909200 -16.443100
H -10.354900 -20.397100 -18.803900
C -9.907700 -20.980300 -18.097100
H -9.600100 -21.829600 -18.569200
H -9.085500 -20.522100 -17.671800
76
Fragment
H -21.713700 -13.586700 -23.746500
H -21.199100 -12.279200 -22.849100
C -20.891500 -13.128500 -23.321300
H -20.444300 -13.711700 -22.614400
H -20.175200 -12.199600 -24.975300
C -19.850100 -12.848800 -24.331900
H -19.709200 -10.687400 -21.786100
H -19.608300 -13.689000 -24.837200
H -19.217100 -10.448700 -24.104100
C -18.784600 -10.496400 -22.080100
H -18.634200 -9.561800 -21.937900
N -18.605100 -12.320200 -23.760600
C -18.521300 -10.876200 -23.510400
H -18.249600 -10.960300 -21.482300
O -17.761400 -14.400500 -23.632500
C -17.615900 -13.157600 -23.440400
H -17.615400 -10.516900 -23.768600
H -16.841900 -15.349000 -23.277100
N -16.489600 -12.683800 -22.924000
H -16.326300 -11.847100 -22.840800
O -16.250900 -16.243300 -23.038700
H -15.848400 -13.245600 -22.722100
O -15.702200 -21.022300 -22.673800
H -15.651500 -18.617700 -22.753900
C -15.126000 -16.020600 -22.471900
C -14.824100 -18.489600 -22.313600
O -14.682700 -14.883500 -22.245000
N -14.603800 -20.915400 -22.166800
C -14.343000 -17.211100 -22.067800
C -14.082400 -19.578800 -21.921400
O -13.925200 -21.878100 -21.873200
H -13.231100 -15.303500 -21.468500
C -13.118600 -17.069200 -21.415200
C -12.871000 -19.439700 -21.286800
O -12.611300 -15.857300 -21.127800
C -12.393000 -18.192500 -21.032200
H -12.391500 -20.215100 -21.055700
H -11.554300 -18.089000 -20.626300
H -19.244900 -16.019800 -20.792000
H -18.407700 -13.893700 -20.362600
C -18.406200 -15.916300 -20.386100
O -18.187900 -18.251500 -20.290600
C -17.928200 -14.669100 -20.131500
C -17.680600 -17.039600 -20.003100
H -17.568100 -18.805300 -19.949800
O -16.874000 -12.230700 -19.545200
C -16.716800 -14.530000 -19.497000
C -16.456300 -16.897700 -19.350500
N -16.195400 -13.193400 -19.251500
O -16.116500 -19.225300 -19.173400
C -15.975200 -15.619200 -19.104800
C -15.673200 -18.088200 -18.946400
H -15.147700 -15.491100 -18.664500
O -15.097000 -13.086500 -18.744600
H -14.950800 -20.863200 -18.696200
O -14.548400 -17.865500 -18.379700
H -14.472900 -22.261700 -18.577500
N -14.309600 -21.425000 -18.494400
H -13.957300 -18.759800 -18.141200
H -13.183800 -23.591900 -17.649700
C -13.183300 -20.951200 -17.977900
O -13.037800 -19.708300 -17.785900
H -12.549600 -23.148500 -19.936000
C -12.278000 -23.232600 -17.907900
N -12.194200 -21.788600 -17.657800
H -12.165000 -24.547000 -19.480400
C -12.014700 -23.612400 -19.338200
H -11.582100 -23.660100 -17.314300
H -11.190900 -20.419800 -16.581100
H -11.090000 -23.421400 -19.632300
C -10.949100 -21.260000 -17.086500
H -10.624000 -21.909200 -16.443100
H -10.354900 -20.397100 -18.803900
C -9.907700 -20.980300 -18.097100
H -9.600100 -21.829600 -18.569200
H -9.085500 -20.522100 -17.671800
