40
Fragment
O -30.998700 -12.143400 -5.258100
H -30.716700 -15.501700 -6.215100
O -30.598200 -14.633900 -5.980900
O -30.529900 -17.089500 -6.174600
H -30.265900 -23.380100 -7.696100
N -30.064700 -12.254900 -4.508100
H -30.041300 -22.629200 -6.336600
H -29.980200 -18.443500 -7.531500
C -29.958700 -14.718500 -4.811900
O -29.953300 -20.337600 -6.044200
H -29.919200 -20.908500 -9.859900
C -29.894000 -17.223800 -5.098000
N -29.798800 -19.185000 -7.971400
C -29.782700 -20.344300 -7.332800
H -29.782700 -19.209200 -8.740300
C -29.671300 -22.778300 -7.221400
C -29.669500 -13.588800 -4.074600
H -29.621000 -19.128600 -5.253100
N -29.603000 -21.475300 -7.952400
C -29.568900 -15.992000 -4.325200
O -29.524000 -18.338700 -4.636600
H -29.491700 -22.408900 -9.734000
O -29.455700 -11.302500 -4.072100
C -29.312000 -21.514300 -9.406200
C -28.981500 -13.661400 -2.870200
C -28.889900 -16.063200 -3.112600
H -28.771300 -12.894300 -2.387900
C -28.622200 -14.899900 -2.418300
H -28.620400 -16.886600 -2.772700
H -28.439000 -24.229100 -6.615700
C -28.356400 -23.400300 -7.094200
H -27.998900 -23.570900 -7.968200
C -27.910900 -21.146200 -9.767500
N -27.910900 -15.000600 -1.115800
H -27.801300 -21.201300 -10.719400
H -27.769000 -22.811900 -6.616300
H -27.729500 -20.248900 -9.476400
O -27.672000 -13.948800 -0.527800
O -27.614500 -16.115600 -0.725900
H -27.300200 -21.750700 -9.339100
40
Fragment
H -26.588800 -5.115300 -12.503600
O -26.274500 -10.750400 -3.890400
O -26.217000 -12.917200 -3.692300
H -26.159500 -6.617100 -12.640900
H -26.120000 -4.054100 -9.780800
H -26.087700 -5.664700 -13.883900
N -25.978100 -11.865400 -4.280300
C -25.978100 -5.719800 -12.932000
H -25.890100 -3.295100 -11.132700
C -25.532600 -3.465700 -10.258700
H -25.450000 -2.636900 -9.780200
H -25.268600 -9.979400 -5.937200
C -25.266800 -11.966100 -5.582800
H -25.117700 -13.971700 -5.552400
C -24.999100 -10.802800 -6.277100
C -24.907500 -13.204600 -6.034700
C -24.577000 -5.351700 -12.570700
O -24.433300 -15.563500 -7.236600
H -24.397300 -4.457100 -12.898500
O -24.365000 -8.527300 -7.801100
C -24.320100 -10.874000 -7.489700
N -24.286000 -5.390700 -11.116900
H -24.268000 -7.737400 -8.417600
C -24.219500 -13.277200 -7.239100
C -24.217700 -4.087700 -10.385900
H -24.106300 -7.656800 -11.904800
C -24.106300 -6.521700 -10.497300
N -24.090200 -7.681000 -11.135900
C -23.995000 -9.642200 -8.262500
H -23.969800 -5.957500 -13.024400
O -23.935700 -6.528400 -9.208700
C -23.930300 -12.147500 -7.976400
H -23.908800 -8.422500 -10.696000
H -23.847700 -4.236800 -9.501100
N -23.824300 -14.611100 -7.672600
H -23.623100 -3.485900 -10.860600
O -23.359100 -9.776500 -9.339100
O -23.290800 -12.232100 -9.145400
H -23.172300 -11.364300 -9.379600
O -22.890300 -14.722600 -8.422600
80
Fragment
O -30.998700 -12.143400 -5.258100
H -30.716700 -15.501700 -6.215100
O -30.598200 -14.633900 -5.980900
O -30.529900 -17.089500 -6.174600
H -30.265900 -23.380100 -7.696100
N -30.064700 -12.254900 -4.508100
H -30.041300 -22.629200 -6.336600
H -29.980200 -18.443500 -7.531500
C -29.958700 -14.718500 -4.811900
O -29.953300 -20.337600 -6.044200
H -29.919200 -20.908500 -9.859900
C -29.894000 -17.223800 -5.098000
N -29.798800 -19.185000 -7.971400
C -29.782700 -20.344300 -7.332800
H -29.782700 -19.209200 -8.740300
C -29.671300 -22.778300 -7.221400
C -29.669500 -13.588800 -4.074600
H -29.621000 -19.128600 -5.253100
N -29.603000 -21.475300 -7.952400
C -29.568900 -15.992000 -4.325200
O -29.524000 -18.338700 -4.636600
H -29.491700 -22.408900 -9.734000
O -29.455700 -11.302500 -4.072100
C -29.312000 -21.514300 -9.406200
C -28.981500 -13.661400 -2.870200
C -28.889900 -16.063200 -3.112600
H -28.771300 -12.894300 -2.387900
C -28.622200 -14.899900 -2.418300
H -28.620400 -16.886600 -2.772700
H -28.439000 -24.229100 -6.615700
C -28.356400 -23.400300 -7.094200
H -27.998900 -23.570900 -7.968200
C -27.910900 -21.146200 -9.767500
N -27.910900 -15.000600 -1.115800
H -27.801300 -21.201300 -10.719400
H -27.769000 -22.811900 -6.616300
H -27.729500 -20.248900 -9.476400
O -27.672000 -13.948800 -0.527800
O -27.614500 -16.115600 -0.725900
H -27.300200 -21.750700 -9.339100
H -26.588800 -5.115300 -12.503600
O -26.274500 -10.750400 -3.890400
O -26.217000 -12.917200 -3.692300
H -26.159500 -6.617100 -12.640900
H -26.120000 -4.054100 -9.780800
H -26.087700 -5.664700 -13.883900
N -25.978100 -11.865400 -4.280300
C -25.978100 -5.719800 -12.932000
H -25.890100 -3.295100 -11.132700
C -25.532600 -3.465700 -10.258700
H -25.450000 -2.636900 -9.780200
H -25.268600 -9.979400 -5.937200
C -25.266800 -11.966100 -5.582800
H -25.117700 -13.971700 -5.552400
C -24.999100 -10.802800 -6.277100
C -24.907500 -13.204600 -6.034700
C -24.577000 -5.351700 -12.570700
O -24.433300 -15.563500 -7.236600
H -24.397300 -4.457100 -12.898500
O -24.365000 -8.527300 -7.801100
C -24.320100 -10.874000 -7.489700
N -24.286000 -5.390700 -11.116900
H -24.268000 -7.737400 -8.417600
C -24.219500 -13.277200 -7.239100
C -24.217700 -4.087700 -10.385900
H -24.106300 -7.656800 -11.904800
C -24.106300 -6.521700 -10.497300
N -24.090200 -7.681000 -11.135900
C -23.995000 -9.642200 -8.262500
H -23.969800 -5.957500 -13.024400
O -23.935700 -6.528400 -9.208700
C -23.930300 -12.147500 -7.976400
H -23.908800 -8.422500 -10.696000
H -23.847700 -4.236800 -9.501100
N -23.824300 -14.611100 -7.672600
H -23.623100 -3.485900 -10.860600
O -23.359100 -9.776500 -9.339100
O -23.290800 -12.232100 -9.145400
H -23.172300 -11.364300 -9.379600
O -22.890300 -14.722600 -8.422600
