40
Fragment
O -30.998700 -12.143400 -5.258100
H -30.716700 -15.501700 -6.215100
O -30.598200 -14.633900 -5.980900
O -30.529900 -17.089500 -6.174600
H -30.265900 -23.380100 -7.696100
N -30.064700 -12.254900 -4.508100
H -30.041300 -22.629200 -6.336600
H -29.980200 -18.443500 -7.531500
C -29.958700 -14.718500 -4.811900
O -29.953300 -20.337600 -6.044200
H -29.919200 -20.908500 -9.859900
C -29.894000 -17.223800 -5.098000
N -29.798800 -19.185000 -7.971400
C -29.782700 -20.344300 -7.332800
H -29.782700 -19.209200 -8.740300
C -29.671300 -22.778300 -7.221400
C -29.669500 -13.588800 -4.074600
H -29.621000 -19.128600 -5.253100
N -29.603000 -21.475300 -7.952400
C -29.568900 -15.992000 -4.325200
O -29.524000 -18.338700 -4.636600
H -29.491700 -22.408900 -9.734000
O -29.455700 -11.302500 -4.072100
C -29.312000 -21.514300 -9.406200
C -28.981500 -13.661400 -2.870200
C -28.889900 -16.063200 -3.112600
H -28.771300 -12.894300 -2.387900
C -28.622200 -14.899900 -2.418300
H -28.620400 -16.886600 -2.772700
H -28.439000 -24.229100 -6.615700
C -28.356400 -23.400300 -7.094200
H -27.998900 -23.570900 -7.968200
C -27.910900 -21.146200 -9.767500
N -27.910900 -15.000600 -1.115800
H -27.801300 -21.201300 -10.719400
H -27.769000 -22.811900 -6.616300
H -27.729500 -20.248900 -9.476400
O -27.672000 -13.948800 -0.527800
O -27.614500 -16.115600 -0.725900
H -27.300200 -21.750700 -9.339100
40
Fragment
H -26.588800 -18.548300 -18.832600
O -26.274500 -24.183400 -10.219400
O -26.217000 -26.350200 -10.021300
H -26.159500 -20.050100 -18.969900
H -26.120000 -17.487100 -16.109800
H -26.087700 -19.097700 -20.212900
N -25.978100 -25.298400 -10.609300
C -25.978100 -19.152800 -19.261000
H -25.890100 -16.728100 -17.461700
C -25.532600 -16.898700 -16.587700
H -25.450000 -16.069900 -16.109200
H -25.268600 -23.412400 -12.266200
C -25.266800 -25.399100 -11.911800
H -25.117700 -27.404700 -11.881400
C -24.999100 -24.235800 -12.606100
C -24.907500 -26.637600 -12.363700
C -24.577000 -18.784700 -18.899700
O -24.433300 -28.996500 -13.565600
H -24.397300 -17.890100 -19.227500
O -24.365000 -21.960300 -14.130100
C -24.320100 -24.307000 -13.818700
N -24.286000 -18.823700 -17.445900
H -24.268000 -21.170400 -14.746600
C -24.219500 -26.710200 -13.568100
C -24.217700 -17.520700 -16.714900
H -24.106300 -21.089800 -18.233800
C -24.106300 -19.954700 -16.826300
N -24.090200 -21.114000 -17.464900
C -23.995000 -23.075200 -14.591500
H -23.969800 -19.390500 -19.353400
O -23.935700 -19.961400 -15.537700
C -23.930300 -25.580500 -14.305400
H -23.908800 -21.855500 -17.025000
H -23.847700 -17.669800 -15.830100
N -23.824300 -28.044100 -14.001600
H -23.623100 -16.918900 -17.189600
O -23.359100 -23.209500 -15.668100
O -23.290800 -25.665100 -15.474400
H -23.172300 -24.797300 -15.708600
O -22.890300 -28.155600 -14.751600
80
Fragment
O -30.998700 -12.143400 -5.258100
H -30.716700 -15.501700 -6.215100
O -30.598200 -14.633900 -5.980900
O -30.529900 -17.089500 -6.174600
H -30.265900 -23.380100 -7.696100
N -30.064700 -12.254900 -4.508100
H -30.041300 -22.629200 -6.336600
H -29.980200 -18.443500 -7.531500
C -29.958700 -14.718500 -4.811900
O -29.953300 -20.337600 -6.044200
H -29.919200 -20.908500 -9.859900
C -29.894000 -17.223800 -5.098000
N -29.798800 -19.185000 -7.971400
C -29.782700 -20.344300 -7.332800
H -29.782700 -19.209200 -8.740300
C -29.671300 -22.778300 -7.221400
C -29.669500 -13.588800 -4.074600
H -29.621000 -19.128600 -5.253100
N -29.603000 -21.475300 -7.952400
C -29.568900 -15.992000 -4.325200
O -29.524000 -18.338700 -4.636600
H -29.491700 -22.408900 -9.734000
O -29.455700 -11.302500 -4.072100
C -29.312000 -21.514300 -9.406200
C -28.981500 -13.661400 -2.870200
C -28.889900 -16.063200 -3.112600
H -28.771300 -12.894300 -2.387900
C -28.622200 -14.899900 -2.418300
H -28.620400 -16.886600 -2.772700
H -28.439000 -24.229100 -6.615700
C -28.356400 -23.400300 -7.094200
H -27.998900 -23.570900 -7.968200
C -27.910900 -21.146200 -9.767500
N -27.910900 -15.000600 -1.115800
H -27.801300 -21.201300 -10.719400
H -27.769000 -22.811900 -6.616300
H -27.729500 -20.248900 -9.476400
O -27.672000 -13.948800 -0.527800
O -27.614500 -16.115600 -0.725900
H -27.300200 -21.750700 -9.339100
H -26.588800 -18.548300 -18.832600
O -26.274500 -24.183400 -10.219400
O -26.217000 -26.350200 -10.021300
H -26.159500 -20.050100 -18.969900
H -26.120000 -17.487100 -16.109800
H -26.087700 -19.097700 -20.212900
N -25.978100 -25.298400 -10.609300
C -25.978100 -19.152800 -19.261000
H -25.890100 -16.728100 -17.461700
C -25.532600 -16.898700 -16.587700
H -25.450000 -16.069900 -16.109200
H -25.268600 -23.412400 -12.266200
C -25.266800 -25.399100 -11.911800
H -25.117700 -27.404700 -11.881400
C -24.999100 -24.235800 -12.606100
C -24.907500 -26.637600 -12.363700
C -24.577000 -18.784700 -18.899700
O -24.433300 -28.996500 -13.565600
H -24.397300 -17.890100 -19.227500
O -24.365000 -21.960300 -14.130100
C -24.320100 -24.307000 -13.818700
N -24.286000 -18.823700 -17.445900
H -24.268000 -21.170400 -14.746600
C -24.219500 -26.710200 -13.568100
C -24.217700 -17.520700 -16.714900
H -24.106300 -21.089800 -18.233800
C -24.106300 -19.954700 -16.826300
N -24.090200 -21.114000 -17.464900
C -23.995000 -23.075200 -14.591500
H -23.969800 -19.390500 -19.353400
O -23.935700 -19.961400 -15.537700
C -23.930300 -25.580500 -14.305400
H -23.908800 -21.855500 -17.025000
H -23.847700 -17.669800 -15.830100
N -23.824300 -28.044100 -14.001600
H -23.623100 -16.918900 -17.189600
O -23.359100 -23.209500 -15.668100
O -23.290800 -25.665100 -15.474400
H -23.172300 -24.797300 -15.708600
O -22.890300 -28.155600 -14.751600
