43
Fragment
H -46.471900 -18.824700 -28.393100
C -45.642300 -18.889700 -27.936500
H -45.474000 -16.914000 -27.523700
H -45.446700 -20.901900 -28.122900
C -45.042100 -17.753700 -27.422500
C -45.031700 -20.116600 -27.783500
O -44.956000 -13.306600 -29.841300
O -44.630400 -11.378700 -28.910300
N -44.549300 -12.613200 -28.913000
H -44.293900 -15.167500 -28.429200
C -43.943100 -14.649800 -27.714100
C -43.941700 -13.279800 -27.750200
C -43.817100 -17.814500 -26.759300
C -43.808700 -20.198100 -27.132400
H -43.479400 -11.510200 -26.802700
C -43.428100 -12.455900 -26.729200
C -43.402700 -15.248500 -26.565400
O -43.401100 -19.412000 -21.296000
H -43.391700 -21.046000 -27.032900
C -43.238800 -16.618100 -26.143900
C -43.182800 -19.069200 -26.624600
C -42.851700 -13.036100 -25.627000
C -42.842800 -14.431300 -25.566100
C -42.557700 -16.560100 -24.936400
H -42.474100 -12.509300 -24.932600
N -42.337600 -15.246700 -24.591500
C -42.218700 -19.158900 -21.204300
C -42.158400 -17.623600 -24.018900
N -42.023800 -17.281900 -22.753300
N -41.940900 -18.850100 -24.509200
H -41.934300 -14.973800 -23.857800
C -41.855200 -19.144800 -25.946200
H -41.845100 -19.515600 -23.941500
H -41.569300 -20.329200 -19.672500
H -41.480100 -20.051700 -26.068400
N -41.472000 -18.317900 -21.960300
N -41.332600 -19.727400 -20.268700
H -41.235300 -18.500000 -26.372700
C -40.097200 -18.242500 -21.523600
C -40.068800 -19.243900 -20.390500
H -39.869000 -17.333300 -21.205900
H -39.474900 -18.501200 -22.248400
O -39.101600 -19.554300 -19.713600
43
Fragment
O -41.605400 -21.777200 -18.334000
H -41.232100 -22.830300 -15.799300
H -40.838000 -23.998200 -16.841800
C -40.638200 -22.087600 -17.657200
C -40.609800 -23.089000 -16.524100
H -39.471700 -22.831500 -11.674900
N -39.374400 -21.604100 -17.778900
N -39.235000 -23.013600 -16.087300
H -39.227000 -21.279800 -11.979300
H -39.137700 -21.002300 -18.375100
H -38.861900 -21.815900 -14.106200
C -38.851800 -22.186700 -12.101400
H -38.772700 -26.357700 -14.189900
N -38.766100 -22.481400 -13.538500
N -38.683200 -24.049600 -15.294400
C -38.548600 -23.707900 -14.028700
C -38.488300 -22.172600 -16.843300
N -38.369400 -26.084800 -13.456100
H -38.232900 -28.822200 -13.115000
C -38.149300 -24.771400 -13.111200
C -37.864200 -26.900200 -12.481500
C -37.855300 -28.295400 -12.420700
C -37.524200 -22.262300 -11.423000
C -37.468200 -24.713400 -11.903800
H -37.315300 -20.285500 -11.014800
O -37.305900 -21.919500 -16.751600
C -37.304400 -26.083000 -11.482200
C -37.278900 -28.875600 -11.318400
H -37.227600 -29.821300 -11.245000
C -36.898400 -21.133400 -10.915300
C -36.889900 -23.517000 -11.288400
C -36.765300 -28.051700 -10.297400
C -36.763900 -26.681700 -10.333600
H -36.413100 -26.164000 -9.618400
N -36.157700 -28.718300 -9.134700
O -36.076600 -29.952800 -9.137300
O -35.751100 -28.024900 -8.206300
C -35.675300 -21.214900 -10.264100
C -35.664900 -23.577800 -10.625200
H -35.260300 -20.429600 -9.924700
H -35.233000 -24.417500 -10.524000
C -35.064700 -22.441800 -10.111200
H -34.235100 -22.506800 -9.654600
86
Fragment
H -46.471900 -18.824700 -28.393100
C -45.642300 -18.889700 -27.936500
H -45.474000 -16.914000 -27.523700
H -45.446700 -20.901900 -28.122900
C -45.042100 -17.753700 -27.422500
C -45.031700 -20.116600 -27.783500
O -44.956000 -13.306600 -29.841300
O -44.630400 -11.378700 -28.910300
N -44.549300 -12.613200 -28.913000
H -44.293900 -15.167500 -28.429200
C -43.943100 -14.649800 -27.714100
C -43.941700 -13.279800 -27.750200
C -43.817100 -17.814500 -26.759300
C -43.808700 -20.198100 -27.132400
H -43.479400 -11.510200 -26.802700
C -43.428100 -12.455900 -26.729200
C -43.402700 -15.248500 -26.565400
O -43.401100 -19.412000 -21.296000
H -43.391700 -21.046000 -27.032900
C -43.238800 -16.618100 -26.143900
C -43.182800 -19.069200 -26.624600
C -42.851700 -13.036100 -25.627000
C -42.842800 -14.431300 -25.566100
C -42.557700 -16.560100 -24.936400
H -42.474100 -12.509300 -24.932600
N -42.337600 -15.246700 -24.591500
C -42.218700 -19.158900 -21.204300
C -42.158400 -17.623600 -24.018900
N -42.023800 -17.281900 -22.753300
N -41.940900 -18.850100 -24.509200
H -41.934300 -14.973800 -23.857800
C -41.855200 -19.144800 -25.946200
H -41.845100 -19.515600 -23.941500
H -41.569300 -20.329200 -19.672500
H -41.480100 -20.051700 -26.068400
N -41.472000 -18.317900 -21.960300
N -41.332600 -19.727400 -20.268700
H -41.235300 -18.500000 -26.372700
C -40.097200 -18.242500 -21.523600
C -40.068800 -19.243900 -20.390500
H -39.869000 -17.333300 -21.205900
H -39.474900 -18.501200 -22.248400
O -39.101600 -19.554300 -19.713600
O -41.605400 -21.777200 -18.334000
H -41.232100 -22.830300 -15.799300
H -40.838000 -23.998200 -16.841800
C -40.638200 -22.087600 -17.657200
C -40.609800 -23.089000 -16.524100
H -39.471700 -22.831500 -11.674900
N -39.374400 -21.604100 -17.778900
N -39.235000 -23.013600 -16.087300
H -39.227000 -21.279800 -11.979300
H -39.137700 -21.002300 -18.375100
H -38.861900 -21.815900 -14.106200
C -38.851800 -22.186700 -12.101400
H -38.772700 -26.357700 -14.189900
N -38.766100 -22.481400 -13.538500
N -38.683200 -24.049600 -15.294400
C -38.548600 -23.707900 -14.028700
C -38.488300 -22.172600 -16.843300
N -38.369400 -26.084800 -13.456100
H -38.232900 -28.822200 -13.115000
C -38.149300 -24.771400 -13.111200
C -37.864200 -26.900200 -12.481500
C -37.855300 -28.295400 -12.420700
C -37.524200 -22.262300 -11.423000
C -37.468200 -24.713400 -11.903800
H -37.315300 -20.285500 -11.014800
O -37.305900 -21.919500 -16.751600
C -37.304400 -26.083000 -11.482200
C -37.278900 -28.875600 -11.318400
H -37.227600 -29.821300 -11.245000
C -36.898400 -21.133400 -10.915300
C -36.889900 -23.517000 -11.288400
C -36.765300 -28.051700 -10.297400
C -36.763900 -26.681700 -10.333600
H -36.413100 -26.164000 -9.618400
N -36.157700 -28.718300 -9.134700
O -36.076600 -29.952800 -9.137300
O -35.751100 -28.024900 -8.206300
C -35.675300 -21.214900 -10.264100
C -35.664900 -23.577800 -10.625200
H -35.260300 -20.429600 -9.924700
H -35.233000 -24.417500 -10.524000
C -35.064700 -22.441800 -10.111200
H -34.235100 -22.506800 -9.654600
