43
Fragment
H -46.471900 -18.824700 -28.393100
C -45.642300 -18.889700 -27.936500
H -45.474000 -16.914000 -27.523700
H -45.446700 -20.901900 -28.122900
C -45.042100 -17.753700 -27.422500
C -45.031700 -20.116600 -27.783500
O -44.956000 -13.306600 -29.841300
O -44.630400 -11.378700 -28.910300
N -44.549300 -12.613200 -28.913000
H -44.293900 -15.167500 -28.429200
C -43.943100 -14.649800 -27.714100
C -43.941700 -13.279800 -27.750200
C -43.817100 -17.814500 -26.759300
C -43.808700 -20.198100 -27.132400
H -43.479400 -11.510200 -26.802700
C -43.428100 -12.455900 -26.729200
C -43.402700 -15.248500 -26.565400
O -43.401100 -19.412000 -21.296000
H -43.391700 -21.046000 -27.032900
C -43.238800 -16.618100 -26.143900
C -43.182800 -19.069200 -26.624600
C -42.851700 -13.036100 -25.627000
C -42.842800 -14.431300 -25.566100
C -42.557700 -16.560100 -24.936400
H -42.474100 -12.509300 -24.932600
N -42.337600 -15.246700 -24.591500
C -42.218700 -19.158900 -21.204300
C -42.158400 -17.623600 -24.018900
N -42.023800 -17.281900 -22.753300
N -41.940900 -18.850100 -24.509200
H -41.934300 -14.973800 -23.857800
C -41.855200 -19.144800 -25.946200
H -41.845100 -19.515600 -23.941500
H -41.569300 -20.329200 -19.672500
H -41.480100 -20.051700 -26.068400
N -41.472000 -18.317900 -21.960300
N -41.332600 -19.727400 -20.268700
H -41.235300 -18.500000 -26.372700
C -40.097200 -18.242500 -21.523600
C -40.068800 -19.243900 -20.390500
H -39.869000 -17.333300 -21.205900
H -39.474900 -18.501200 -22.248400
O -39.101600 -19.554300 -19.713600
43
Fragment
H -54.709900 -21.068400 -36.674100
O -54.098200 -22.013900 -34.320100
N -53.996900 -21.580400 -36.611700
C -53.557300 -22.164000 -35.413400
O -53.324000 -21.519800 -38.820000
C -53.201900 -21.891100 -37.661300
N -52.460900 -22.882400 -35.717600
H -52.196000 -23.712500 -37.556800
C -52.137600 -22.819700 -37.134300
N -51.909500 -23.890900 -34.891200
H -51.230600 -22.448900 -37.281000
H -50.847500 -26.191200 -34.707100
C -50.714700 -23.547500 -34.428400
H -50.671100 -21.664800 -34.771800
N -50.243000 -25.932000 -34.121900
N -50.164600 -22.338600 -34.519500
C -49.960200 -24.623400 -33.796800
H -49.958500 -28.665200 -33.984200
C -49.445800 -26.756500 -33.401300
C -49.382500 -28.154100 -33.427700
C -48.978200 -24.594600 -32.809300
C -48.749300 -22.079400 -34.216100
C -48.622000 -25.961100 -32.566500
C -48.511800 -23.397400 -32.091500
H -48.505300 -21.180600 -34.551100
C -48.452400 -28.758100 -32.614500
C -48.446400 -22.153000 -32.735800
H -48.379800 -29.705500 -32.593500
H -48.208700 -24.302900 -30.282100
H -48.188600 -22.741800 -34.693800
C -48.175600 -23.466100 -30.729600
C -48.081000 -21.021800 -32.025700
H -48.053700 -20.179200 -32.462300
C -47.797200 -22.339400 -30.031600
C -47.750200 -21.110900 -30.667000
C -47.660200 -26.601000 -31.759100
C -47.612100 -27.965600 -31.816400
H -47.569400 -22.406400 -29.112200
H -47.496200 -20.332700 -30.185100
H -47.071600 -26.106200 -31.201000
N -46.632500 -28.665400 -30.981100
O -46.515600 -29.888200 -31.102800
O -45.969600 -28.006600 -30.180900
86
Fragment
H -46.471900 -18.824700 -28.393100
C -45.642300 -18.889700 -27.936500
H -45.474000 -16.914000 -27.523700
H -45.446700 -20.901900 -28.122900
C -45.042100 -17.753700 -27.422500
C -45.031700 -20.116600 -27.783500
O -44.956000 -13.306600 -29.841300
O -44.630400 -11.378700 -28.910300
N -44.549300 -12.613200 -28.913000
H -44.293900 -15.167500 -28.429200
C -43.943100 -14.649800 -27.714100
C -43.941700 -13.279800 -27.750200
C -43.817100 -17.814500 -26.759300
C -43.808700 -20.198100 -27.132400
H -43.479400 -11.510200 -26.802700
C -43.428100 -12.455900 -26.729200
C -43.402700 -15.248500 -26.565400
O -43.401100 -19.412000 -21.296000
H -43.391700 -21.046000 -27.032900
C -43.238800 -16.618100 -26.143900
C -43.182800 -19.069200 -26.624600
C -42.851700 -13.036100 -25.627000
C -42.842800 -14.431300 -25.566100
C -42.557700 -16.560100 -24.936400
H -42.474100 -12.509300 -24.932600
N -42.337600 -15.246700 -24.591500
C -42.218700 -19.158900 -21.204300
C -42.158400 -17.623600 -24.018900
N -42.023800 -17.281900 -22.753300
N -41.940900 -18.850100 -24.509200
H -41.934300 -14.973800 -23.857800
C -41.855200 -19.144800 -25.946200
H -41.845100 -19.515600 -23.941500
H -41.569300 -20.329200 -19.672500
H -41.480100 -20.051700 -26.068400
N -41.472000 -18.317900 -21.960300
N -41.332600 -19.727400 -20.268700
H -41.235300 -18.500000 -26.372700
C -40.097200 -18.242500 -21.523600
C -40.068800 -19.243900 -20.390500
H -39.869000 -17.333300 -21.205900
H -39.474900 -18.501200 -22.248400
O -39.101600 -19.554300 -19.713600
H -54.709900 -21.068400 -36.674100
O -54.098200 -22.013900 -34.320100
N -53.996900 -21.580400 -36.611700
C -53.557300 -22.164000 -35.413400
O -53.324000 -21.519800 -38.820000
C -53.201900 -21.891100 -37.661300
N -52.460900 -22.882400 -35.717600
H -52.196000 -23.712500 -37.556800
C -52.137600 -22.819700 -37.134300
N -51.909500 -23.890900 -34.891200
H -51.230600 -22.448900 -37.281000
H -50.847500 -26.191200 -34.707100
C -50.714700 -23.547500 -34.428400
H -50.671100 -21.664800 -34.771800
N -50.243000 -25.932000 -34.121900
N -50.164600 -22.338600 -34.519500
C -49.960200 -24.623400 -33.796800
H -49.958500 -28.665200 -33.984200
C -49.445800 -26.756500 -33.401300
C -49.382500 -28.154100 -33.427700
C -48.978200 -24.594600 -32.809300
C -48.749300 -22.079400 -34.216100
C -48.622000 -25.961100 -32.566500
C -48.511800 -23.397400 -32.091500
H -48.505300 -21.180600 -34.551100
C -48.452400 -28.758100 -32.614500
C -48.446400 -22.153000 -32.735800
H -48.379800 -29.705500 -32.593500
H -48.208700 -24.302900 -30.282100
H -48.188600 -22.741800 -34.693800
C -48.175600 -23.466100 -30.729600
C -48.081000 -21.021800 -32.025700
H -48.053700 -20.179200 -32.462300
C -47.797200 -22.339400 -30.031600
C -47.750200 -21.110900 -30.667000
C -47.660200 -26.601000 -31.759100
C -47.612100 -27.965600 -31.816400
H -47.569400 -22.406400 -29.112200
H -47.496200 -20.332700 -30.185100
H -47.071600 -26.106200 -31.201000
N -46.632500 -28.665400 -30.981100
O -46.515600 -29.888200 -31.102800
O -45.969600 -28.006600 -30.180900
