43
Fragment
H -46.471900 -18.824700 -28.393100
C -45.642300 -18.889700 -27.936500
H -45.474000 -16.914000 -27.523700
H -45.446700 -20.901900 -28.122900
C -45.042100 -17.753700 -27.422500
C -45.031700 -20.116600 -27.783500
O -44.956000 -13.306600 -29.841300
O -44.630400 -11.378700 -28.910300
N -44.549300 -12.613200 -28.913000
H -44.293900 -15.167500 -28.429200
C -43.943100 -14.649800 -27.714100
C -43.941700 -13.279800 -27.750200
C -43.817100 -17.814500 -26.759300
C -43.808700 -20.198100 -27.132400
H -43.479400 -11.510200 -26.802700
C -43.428100 -12.455900 -26.729200
C -43.402700 -15.248500 -26.565400
O -43.401100 -19.412000 -21.296000
H -43.391700 -21.046000 -27.032900
C -43.238800 -16.618100 -26.143900
C -43.182800 -19.069200 -26.624600
C -42.851700 -13.036100 -25.627000
C -42.842800 -14.431300 -25.566100
C -42.557700 -16.560100 -24.936400
H -42.474100 -12.509300 -24.932600
N -42.337600 -15.246700 -24.591500
C -42.218700 -19.158900 -21.204300
C -42.158400 -17.623600 -24.018900
N -42.023800 -17.281900 -22.753300
N -41.940900 -18.850100 -24.509200
H -41.934300 -14.973800 -23.857800
C -41.855200 -19.144800 -25.946200
H -41.845100 -19.515600 -23.941500
H -41.569300 -20.329200 -19.672500
H -41.480100 -20.051700 -26.068400
N -41.472000 -18.317900 -21.960300
N -41.332600 -19.727400 -20.268700
H -41.235300 -18.500000 -26.372700
C -40.097200 -18.242500 -21.523600
C -40.068800 -19.243900 -20.390500
H -39.869000 -17.333300 -21.205900
H -39.474900 -18.501200 -22.248400
O -39.101600 -19.554300 -19.713600
43
Fragment
H -46.471900 -7.015700 -28.393100
C -45.642300 -7.080700 -27.936500
H -45.474000 -5.105000 -27.523700
H -45.446700 -9.092900 -28.122900
C -45.042100 -5.944700 -27.422500
C -45.031700 -8.307600 -27.783500
O -44.956000 -1.497600 -29.841300
O -44.630400 0.430300 -28.910300
N -44.549300 -0.804200 -28.913000
H -44.293900 -3.358500 -28.429200
C -43.943100 -2.840800 -27.714100
C -43.941700 -1.470800 -27.750200
C -43.817100 -6.005500 -26.759300
C -43.808700 -8.389100 -27.132400
H -43.479400 0.298800 -26.802700
C -43.428100 -0.646900 -26.729200
C -43.402700 -3.439500 -26.565400
O -43.401100 -7.603000 -21.296000
H -43.391700 -9.237000 -27.032900
C -43.238800 -4.809100 -26.143900
C -43.182800 -7.260200 -26.624600
C -42.851700 -1.227100 -25.627000
C -42.842800 -2.622300 -25.566100
C -42.557700 -4.751100 -24.936400
H -42.474100 -0.700300 -24.932600
N -42.337600 -3.437700 -24.591500
C -42.218700 -7.349900 -21.204300
C -42.158400 -5.814600 -24.018900
N -42.023800 -5.472900 -22.753300
N -41.940900 -7.041100 -24.509200
H -41.934300 -3.164800 -23.857800
C -41.855200 -7.335800 -25.946200
H -41.845100 -7.706600 -23.941500
H -41.569300 -8.520200 -19.672500
H -41.480100 -8.242700 -26.068400
N -41.472000 -6.508900 -21.960300
N -41.332600 -7.918400 -20.268700
H -41.235300 -6.691000 -26.372700
C -40.097200 -6.433500 -21.523600
C -40.068800 -7.434900 -20.390500
H -39.869000 -5.524300 -21.205900
H -39.474900 -6.692200 -22.248400
O -39.101600 -7.745300 -19.713600
86
Fragment
H -46.471900 -18.824700 -28.393100
C -45.642300 -18.889700 -27.936500
H -45.474000 -16.914000 -27.523700
H -45.446700 -20.901900 -28.122900
C -45.042100 -17.753700 -27.422500
C -45.031700 -20.116600 -27.783500
O -44.956000 -13.306600 -29.841300
O -44.630400 -11.378700 -28.910300
N -44.549300 -12.613200 -28.913000
H -44.293900 -15.167500 -28.429200
C -43.943100 -14.649800 -27.714100
C -43.941700 -13.279800 -27.750200
C -43.817100 -17.814500 -26.759300
C -43.808700 -20.198100 -27.132400
H -43.479400 -11.510200 -26.802700
C -43.428100 -12.455900 -26.729200
C -43.402700 -15.248500 -26.565400
O -43.401100 -19.412000 -21.296000
H -43.391700 -21.046000 -27.032900
C -43.238800 -16.618100 -26.143900
C -43.182800 -19.069200 -26.624600
C -42.851700 -13.036100 -25.627000
C -42.842800 -14.431300 -25.566100
C -42.557700 -16.560100 -24.936400
H -42.474100 -12.509300 -24.932600
N -42.337600 -15.246700 -24.591500
C -42.218700 -19.158900 -21.204300
C -42.158400 -17.623600 -24.018900
N -42.023800 -17.281900 -22.753300
N -41.940900 -18.850100 -24.509200
H -41.934300 -14.973800 -23.857800
C -41.855200 -19.144800 -25.946200
H -41.845100 -19.515600 -23.941500
H -41.569300 -20.329200 -19.672500
H -41.480100 -20.051700 -26.068400
N -41.472000 -18.317900 -21.960300
N -41.332600 -19.727400 -20.268700
H -41.235300 -18.500000 -26.372700
C -40.097200 -18.242500 -21.523600
C -40.068800 -19.243900 -20.390500
H -39.869000 -17.333300 -21.205900
H -39.474900 -18.501200 -22.248400
O -39.101600 -19.554300 -19.713600
H -46.471900 -7.015700 -28.393100
C -45.642300 -7.080700 -27.936500
H -45.474000 -5.105000 -27.523700
H -45.446700 -9.092900 -28.122900
C -45.042100 -5.944700 -27.422500
C -45.031700 -8.307600 -27.783500
O -44.956000 -1.497600 -29.841300
O -44.630400 0.430300 -28.910300
N -44.549300 -0.804200 -28.913000
H -44.293900 -3.358500 -28.429200
C -43.943100 -2.840800 -27.714100
C -43.941700 -1.470800 -27.750200
C -43.817100 -6.005500 -26.759300
C -43.808700 -8.389100 -27.132400
H -43.479400 0.298800 -26.802700
C -43.428100 -0.646900 -26.729200
C -43.402700 -3.439500 -26.565400
O -43.401100 -7.603000 -21.296000
H -43.391700 -9.237000 -27.032900
C -43.238800 -4.809100 -26.143900
C -43.182800 -7.260200 -26.624600
C -42.851700 -1.227100 -25.627000
C -42.842800 -2.622300 -25.566100
C -42.557700 -4.751100 -24.936400
H -42.474100 -0.700300 -24.932600
N -42.337600 -3.437700 -24.591500
C -42.218700 -7.349900 -21.204300
C -42.158400 -5.814600 -24.018900
N -42.023800 -5.472900 -22.753300
N -41.940900 -7.041100 -24.509200
H -41.934300 -3.164800 -23.857800
C -41.855200 -7.335800 -25.946200
H -41.845100 -7.706600 -23.941500
H -41.569300 -8.520200 -19.672500
H -41.480100 -8.242700 -26.068400
N -41.472000 -6.508900 -21.960300
N -41.332600 -7.918400 -20.268700
H -41.235300 -6.691000 -26.372700
C -40.097200 -6.433500 -21.523600
C -40.068800 -7.434900 -20.390500
H -39.869000 -5.524300 -21.205900
H -39.474900 -6.692200 -22.248400
O -39.101600 -7.745300 -19.713600
