43
Fragment
H -46.471900 -18.824700 -28.393100
C -45.642300 -18.889700 -27.936500
H -45.474000 -16.914000 -27.523700
H -45.446700 -20.901900 -28.122900
C -45.042100 -17.753700 -27.422500
C -45.031700 -20.116600 -27.783500
O -44.956000 -13.306600 -29.841300
O -44.630400 -11.378700 -28.910300
N -44.549300 -12.613200 -28.913000
H -44.293900 -15.167500 -28.429200
C -43.943100 -14.649800 -27.714100
C -43.941700 -13.279800 -27.750200
C -43.817100 -17.814500 -26.759300
C -43.808700 -20.198100 -27.132400
H -43.479400 -11.510200 -26.802700
C -43.428100 -12.455900 -26.729200
C -43.402700 -15.248500 -26.565400
O -43.401100 -19.412000 -21.296000
H -43.391700 -21.046000 -27.032900
C -43.238800 -16.618100 -26.143900
C -43.182800 -19.069200 -26.624600
C -42.851700 -13.036100 -25.627000
C -42.842800 -14.431300 -25.566100
C -42.557700 -16.560100 -24.936400
H -42.474100 -12.509300 -24.932600
N -42.337600 -15.246700 -24.591500
C -42.218700 -19.158900 -21.204300
C -42.158400 -17.623600 -24.018900
N -42.023800 -17.281900 -22.753300
N -41.940900 -18.850100 -24.509200
H -41.934300 -14.973800 -23.857800
C -41.855200 -19.144800 -25.946200
H -41.845100 -19.515600 -23.941500
H -41.569300 -20.329200 -19.672500
H -41.480100 -20.051700 -26.068400
N -41.472000 -18.317900 -21.960300
N -41.332600 -19.727400 -20.268700
H -41.235300 -18.500000 -26.372700
C -40.097200 -18.242500 -21.523600
C -40.068800 -19.243900 -20.390500
H -39.869000 -17.333300 -21.205900
H -39.474900 -18.501200 -22.248400
O -39.101600 -19.554300 -19.713600
43
Fragment
O -40.127800 -13.649800 -27.845900
H -39.754400 -12.596700 -25.311200
H -39.360400 -11.428800 -26.353700
C -39.160600 -13.339400 -27.169100
C -39.132200 -12.338000 -26.036000
H -37.994100 -12.595500 -21.186800
N -37.896800 -13.822900 -27.290800
N -37.757300 -12.413400 -25.599200
H -37.749300 -14.147200 -21.491200
H -37.660100 -14.424700 -27.887000
H -37.384300 -13.611100 -23.618100
C -37.374200 -13.240300 -21.613400
H -37.295100 -9.069300 -23.701800
N -37.288500 -12.945600 -23.050400
N -37.205600 -11.377400 -24.806300
C -37.071000 -11.719100 -23.540700
C -37.010700 -13.254400 -26.355200
N -36.891800 -9.342200 -22.968000
H -36.755200 -6.604800 -22.626900
C -36.671600 -10.655600 -22.623100
C -36.386600 -8.526800 -21.993400
C -36.377700 -7.131600 -21.932600
C -36.046600 -13.164700 -20.935000
C -35.990600 -10.713600 -21.415700
H -35.837700 -15.141500 -20.526700
O -35.828300 -13.507500 -26.263500
C -35.826700 -9.344000 -20.994100
C -35.801200 -6.551400 -20.830300
H -35.749900 -5.605700 -20.756900
C -35.420700 -14.293600 -20.427200
C -35.412300 -11.910000 -20.800300
C -35.287700 -7.375300 -19.809300
C -35.286200 -8.745300 -19.845500
H -34.935500 -9.263000 -19.130400
N -34.680100 -6.708700 -18.646600
O -34.599000 -5.474200 -18.649200
O -34.273400 -7.402100 -17.718200
C -34.197700 -14.212100 -19.776000
C -34.187300 -11.849200 -20.137100
H -33.782700 -14.997400 -19.436600
H -33.755400 -11.009500 -20.035900
C -33.587100 -12.985200 -19.623100
H -32.757500 -12.920200 -19.166500
86
Fragment
H -46.471900 -18.824700 -28.393100
C -45.642300 -18.889700 -27.936500
H -45.474000 -16.914000 -27.523700
H -45.446700 -20.901900 -28.122900
C -45.042100 -17.753700 -27.422500
C -45.031700 -20.116600 -27.783500
O -44.956000 -13.306600 -29.841300
O -44.630400 -11.378700 -28.910300
N -44.549300 -12.613200 -28.913000
H -44.293900 -15.167500 -28.429200
C -43.943100 -14.649800 -27.714100
C -43.941700 -13.279800 -27.750200
C -43.817100 -17.814500 -26.759300
C -43.808700 -20.198100 -27.132400
H -43.479400 -11.510200 -26.802700
C -43.428100 -12.455900 -26.729200
C -43.402700 -15.248500 -26.565400
O -43.401100 -19.412000 -21.296000
H -43.391700 -21.046000 -27.032900
C -43.238800 -16.618100 -26.143900
C -43.182800 -19.069200 -26.624600
C -42.851700 -13.036100 -25.627000
C -42.842800 -14.431300 -25.566100
C -42.557700 -16.560100 -24.936400
H -42.474100 -12.509300 -24.932600
N -42.337600 -15.246700 -24.591500
C -42.218700 -19.158900 -21.204300
C -42.158400 -17.623600 -24.018900
N -42.023800 -17.281900 -22.753300
N -41.940900 -18.850100 -24.509200
H -41.934300 -14.973800 -23.857800
C -41.855200 -19.144800 -25.946200
H -41.845100 -19.515600 -23.941500
H -41.569300 -20.329200 -19.672500
H -41.480100 -20.051700 -26.068400
N -41.472000 -18.317900 -21.960300
N -41.332600 -19.727400 -20.268700
H -41.235300 -18.500000 -26.372700
C -40.097200 -18.242500 -21.523600
C -40.068800 -19.243900 -20.390500
H -39.869000 -17.333300 -21.205900
H -39.474900 -18.501200 -22.248400
O -39.101600 -19.554300 -19.713600
O -40.127800 -13.649800 -27.845900
H -39.754400 -12.596700 -25.311200
H -39.360400 -11.428800 -26.353700
C -39.160600 -13.339400 -27.169100
C -39.132200 -12.338000 -26.036000
H -37.994100 -12.595500 -21.186800
N -37.896800 -13.822900 -27.290800
N -37.757300 -12.413400 -25.599200
H -37.749300 -14.147200 -21.491200
H -37.660100 -14.424700 -27.887000
H -37.384300 -13.611100 -23.618100
C -37.374200 -13.240300 -21.613400
H -37.295100 -9.069300 -23.701800
N -37.288500 -12.945600 -23.050400
N -37.205600 -11.377400 -24.806300
C -37.071000 -11.719100 -23.540700
C -37.010700 -13.254400 -26.355200
N -36.891800 -9.342200 -22.968000
H -36.755200 -6.604800 -22.626900
C -36.671600 -10.655600 -22.623100
C -36.386600 -8.526800 -21.993400
C -36.377700 -7.131600 -21.932600
C -36.046600 -13.164700 -20.935000
C -35.990600 -10.713600 -21.415700
H -35.837700 -15.141500 -20.526700
O -35.828300 -13.507500 -26.263500
C -35.826700 -9.344000 -20.994100
C -35.801200 -6.551400 -20.830300
H -35.749900 -5.605700 -20.756900
C -35.420700 -14.293600 -20.427200
C -35.412300 -11.910000 -20.800300
C -35.287700 -7.375300 -19.809300
C -35.286200 -8.745300 -19.845500
H -34.935500 -9.263000 -19.130400
N -34.680100 -6.708700 -18.646600
O -34.599000 -5.474200 -18.649200
O -34.273400 -7.402100 -17.718200
C -34.197700 -14.212100 -19.776000
C -34.187300 -11.849200 -20.137100
H -33.782700 -14.997400 -19.436600
H -33.755400 -11.009500 -20.035900
C -33.587100 -12.985200 -19.623100
H -32.757500 -12.920200 -19.166500
