43
Fragment
H -46.471900 -18.824700 -28.393100
C -45.642300 -18.889700 -27.936500
H -45.474000 -16.914000 -27.523700
H -45.446700 -20.901900 -28.122900
C -45.042100 -17.753700 -27.422500
C -45.031700 -20.116600 -27.783500
O -44.956000 -13.306600 -29.841300
O -44.630400 -11.378700 -28.910300
N -44.549300 -12.613200 -28.913000
H -44.293900 -15.167500 -28.429200
C -43.943100 -14.649800 -27.714100
C -43.941700 -13.279800 -27.750200
C -43.817100 -17.814500 -26.759300
C -43.808700 -20.198100 -27.132400
H -43.479400 -11.510200 -26.802700
C -43.428100 -12.455900 -26.729200
C -43.402700 -15.248500 -26.565400
O -43.401100 -19.412000 -21.296000
H -43.391700 -21.046000 -27.032900
C -43.238800 -16.618100 -26.143900
C -43.182800 -19.069200 -26.624600
C -42.851700 -13.036100 -25.627000
C -42.842800 -14.431300 -25.566100
C -42.557700 -16.560100 -24.936400
H -42.474100 -12.509300 -24.932600
N -42.337600 -15.246700 -24.591500
C -42.218700 -19.158900 -21.204300
C -42.158400 -17.623600 -24.018900
N -42.023800 -17.281900 -22.753300
N -41.940900 -18.850100 -24.509200
H -41.934300 -14.973800 -23.857800
C -41.855200 -19.144800 -25.946200
H -41.845100 -19.515600 -23.941500
H -41.569300 -20.329200 -19.672500
H -41.480100 -20.051700 -26.068400
N -41.472000 -18.317900 -21.960300
N -41.332600 -19.727400 -20.268700
H -41.235300 -18.500000 -26.372700
C -40.097200 -18.242500 -21.523600
C -40.068800 -19.243900 -20.390500
H -39.869000 -17.333300 -21.205900
H -39.474900 -18.501200 -22.248400
O -39.101600 -19.554300 -19.713600
43
Fragment
H -46.471900 -30.633700 -28.393100
C -45.642300 -30.698700 -27.936500
H -45.474000 -28.723000 -27.523700
H -45.446700 -32.710900 -28.122900
C -45.042100 -29.562700 -27.422500
C -45.031700 -31.925600 -27.783500
O -44.956000 -25.115600 -29.841300
O -44.630400 -23.187700 -28.910300
N -44.549300 -24.422200 -28.913000
H -44.293900 -26.976500 -28.429200
C -43.943100 -26.458800 -27.714100
C -43.941700 -25.088800 -27.750200
C -43.817100 -29.623500 -26.759300
C -43.808700 -32.007100 -27.132400
H -43.479400 -23.319200 -26.802700
C -43.428100 -24.264900 -26.729200
C -43.402700 -27.057500 -26.565400
O -43.401100 -31.221000 -21.296000
H -43.391700 -32.855000 -27.032900
C -43.238800 -28.427100 -26.143900
C -43.182800 -30.878200 -26.624600
C -42.851700 -24.845100 -25.627000
C -42.842800 -26.240300 -25.566100
C -42.557700 -28.369100 -24.936400
H -42.474100 -24.318300 -24.932600
N -42.337600 -27.055700 -24.591500
C -42.218700 -30.967900 -21.204300
C -42.158400 -29.432600 -24.018900
N -42.023800 -29.090900 -22.753300
N -41.940900 -30.659100 -24.509200
H -41.934300 -26.782800 -23.857800
C -41.855200 -30.953800 -25.946200
H -41.845100 -31.324600 -23.941500
H -41.569300 -32.138200 -19.672500
H -41.480100 -31.860700 -26.068400
N -41.472000 -30.126900 -21.960300
N -41.332600 -31.536400 -20.268700
H -41.235300 -30.309000 -26.372700
C -40.097200 -30.051500 -21.523600
C -40.068800 -31.052900 -20.390500
H -39.869000 -29.142300 -21.205900
H -39.474900 -30.310200 -22.248400
O -39.101600 -31.363300 -19.713600
86
Fragment
H -46.471900 -18.824700 -28.393100
C -45.642300 -18.889700 -27.936500
H -45.474000 -16.914000 -27.523700
H -45.446700 -20.901900 -28.122900
C -45.042100 -17.753700 -27.422500
C -45.031700 -20.116600 -27.783500
O -44.956000 -13.306600 -29.841300
O -44.630400 -11.378700 -28.910300
N -44.549300 -12.613200 -28.913000
H -44.293900 -15.167500 -28.429200
C -43.943100 -14.649800 -27.714100
C -43.941700 -13.279800 -27.750200
C -43.817100 -17.814500 -26.759300
C -43.808700 -20.198100 -27.132400
H -43.479400 -11.510200 -26.802700
C -43.428100 -12.455900 -26.729200
C -43.402700 -15.248500 -26.565400
O -43.401100 -19.412000 -21.296000
H -43.391700 -21.046000 -27.032900
C -43.238800 -16.618100 -26.143900
C -43.182800 -19.069200 -26.624600
C -42.851700 -13.036100 -25.627000
C -42.842800 -14.431300 -25.566100
C -42.557700 -16.560100 -24.936400
H -42.474100 -12.509300 -24.932600
N -42.337600 -15.246700 -24.591500
C -42.218700 -19.158900 -21.204300
C -42.158400 -17.623600 -24.018900
N -42.023800 -17.281900 -22.753300
N -41.940900 -18.850100 -24.509200
H -41.934300 -14.973800 -23.857800
C -41.855200 -19.144800 -25.946200
H -41.845100 -19.515600 -23.941500
H -41.569300 -20.329200 -19.672500
H -41.480100 -20.051700 -26.068400
N -41.472000 -18.317900 -21.960300
N -41.332600 -19.727400 -20.268700
H -41.235300 -18.500000 -26.372700
C -40.097200 -18.242500 -21.523600
C -40.068800 -19.243900 -20.390500
H -39.869000 -17.333300 -21.205900
H -39.474900 -18.501200 -22.248400
O -39.101600 -19.554300 -19.713600
H -46.471900 -30.633700 -28.393100
C -45.642300 -30.698700 -27.936500
H -45.474000 -28.723000 -27.523700
H -45.446700 -32.710900 -28.122900
C -45.042100 -29.562700 -27.422500
C -45.031700 -31.925600 -27.783500
O -44.956000 -25.115600 -29.841300
O -44.630400 -23.187700 -28.910300
N -44.549300 -24.422200 -28.913000
H -44.293900 -26.976500 -28.429200
C -43.943100 -26.458800 -27.714100
C -43.941700 -25.088800 -27.750200
C -43.817100 -29.623500 -26.759300
C -43.808700 -32.007100 -27.132400
H -43.479400 -23.319200 -26.802700
C -43.428100 -24.264900 -26.729200
C -43.402700 -27.057500 -26.565400
O -43.401100 -31.221000 -21.296000
H -43.391700 -32.855000 -27.032900
C -43.238800 -28.427100 -26.143900
C -43.182800 -30.878200 -26.624600
C -42.851700 -24.845100 -25.627000
C -42.842800 -26.240300 -25.566100
C -42.557700 -28.369100 -24.936400
H -42.474100 -24.318300 -24.932600
N -42.337600 -27.055700 -24.591500
C -42.218700 -30.967900 -21.204300
C -42.158400 -29.432600 -24.018900
N -42.023800 -29.090900 -22.753300
N -41.940900 -30.659100 -24.509200
H -41.934300 -26.782800 -23.857800
C -41.855200 -30.953800 -25.946200
H -41.845100 -31.324600 -23.941500
H -41.569300 -32.138200 -19.672500
H -41.480100 -31.860700 -26.068400
N -41.472000 -30.126900 -21.960300
N -41.332600 -31.536400 -20.268700
H -41.235300 -30.309000 -26.372700
C -40.097200 -30.051500 -21.523600
C -40.068800 -31.052900 -20.390500
H -39.869000 -29.142300 -21.205900
H -39.474900 -30.310200 -22.248400
O -39.101600 -31.363300 -19.713600
