43
Fragment
H -46.471900 -18.824700 -28.393100
C -45.642300 -18.889700 -27.936500
H -45.474000 -16.914000 -27.523700
H -45.446700 -20.901900 -28.122900
C -45.042100 -17.753700 -27.422500
C -45.031700 -20.116600 -27.783500
O -44.956000 -13.306600 -29.841300
O -44.630400 -11.378700 -28.910300
N -44.549300 -12.613200 -28.913000
H -44.293900 -15.167500 -28.429200
C -43.943100 -14.649800 -27.714100
C -43.941700 -13.279800 -27.750200
C -43.817100 -17.814500 -26.759300
C -43.808700 -20.198100 -27.132400
H -43.479400 -11.510200 -26.802700
C -43.428100 -12.455900 -26.729200
C -43.402700 -15.248500 -26.565400
O -43.401100 -19.412000 -21.296000
H -43.391700 -21.046000 -27.032900
C -43.238800 -16.618100 -26.143900
C -43.182800 -19.069200 -26.624600
C -42.851700 -13.036100 -25.627000
C -42.842800 -14.431300 -25.566100
C -42.557700 -16.560100 -24.936400
H -42.474100 -12.509300 -24.932600
N -42.337600 -15.246700 -24.591500
C -42.218700 -19.158900 -21.204300
C -42.158400 -17.623600 -24.018900
N -42.023800 -17.281900 -22.753300
N -41.940900 -18.850100 -24.509200
H -41.934300 -14.973800 -23.857800
C -41.855200 -19.144800 -25.946200
H -41.845100 -19.515600 -23.941500
H -41.569300 -20.329200 -19.672500
H -41.480100 -20.051700 -26.068400
N -41.472000 -18.317900 -21.960300
N -41.332600 -19.727400 -20.268700
H -41.235300 -18.500000 -26.372700
C -40.097200 -18.242500 -21.523600
C -40.068800 -19.243900 -20.390500
H -39.869000 -17.333300 -21.205900
H -39.474900 -18.501200 -22.248400
O -39.101600 -19.554300 -19.713600
43
Fragment
H -40.341700 -15.163900 -17.650300
O -39.730000 -16.109400 -15.296300
N -39.628600 -15.675900 -17.587900
C -39.189100 -16.259500 -16.389600
O -38.955700 -15.615300 -19.796200
C -38.833600 -15.986600 -18.637500
N -38.092700 -16.977900 -16.693800
H -37.827800 -17.808000 -18.533000
C -37.769400 -16.915200 -18.110500
N -37.541300 -17.986400 -15.867400
H -36.862400 -16.544400 -18.257200
H -36.479200 -20.286700 -15.683200
C -36.346500 -17.643000 -15.404500
H -36.302900 -15.760300 -15.747900
N -35.874700 -20.027500 -15.098100
N -35.796300 -16.434100 -15.495700
C -35.591900 -18.718900 -14.773000
H -35.590200 -22.760700 -14.960300
C -35.077600 -20.852000 -14.377400
C -35.014200 -22.249600 -14.403900
C -34.610000 -18.690100 -13.785400
C -34.381000 -16.174900 -15.192200
C -34.253700 -20.056600 -13.542700
C -34.143600 -17.492900 -13.067700
H -34.137000 -15.276100 -15.527200
C -34.084100 -22.853600 -13.590600
C -34.078100 -16.248500 -13.712000
H -34.011500 -23.801000 -13.569700
H -33.840500 -18.398400 -11.258300
H -33.820400 -16.837300 -15.669900
C -33.807400 -17.561600 -11.705700
C -33.712700 -15.117300 -13.001800
H -33.685400 -14.274700 -13.438400
C -33.429000 -16.434900 -11.007800
C -33.381900 -15.206400 -11.643200
C -33.291900 -20.696500 -12.735300
C -33.243900 -22.061100 -12.792600
H -33.201100 -16.501900 -10.088300
H -33.128000 -14.428200 -11.161300
H -32.703400 -20.201700 -12.177200
N -32.264300 -22.760900 -11.957200
O -32.147300 -23.983700 -12.079000
O -31.601400 -22.102100 -11.157100
86
Fragment
H -46.471900 -18.824700 -28.393100
C -45.642300 -18.889700 -27.936500
H -45.474000 -16.914000 -27.523700
H -45.446700 -20.901900 -28.122900
C -45.042100 -17.753700 -27.422500
C -45.031700 -20.116600 -27.783500
O -44.956000 -13.306600 -29.841300
O -44.630400 -11.378700 -28.910300
N -44.549300 -12.613200 -28.913000
H -44.293900 -15.167500 -28.429200
C -43.943100 -14.649800 -27.714100
C -43.941700 -13.279800 -27.750200
C -43.817100 -17.814500 -26.759300
C -43.808700 -20.198100 -27.132400
H -43.479400 -11.510200 -26.802700
C -43.428100 -12.455900 -26.729200
C -43.402700 -15.248500 -26.565400
O -43.401100 -19.412000 -21.296000
H -43.391700 -21.046000 -27.032900
C -43.238800 -16.618100 -26.143900
C -43.182800 -19.069200 -26.624600
C -42.851700 -13.036100 -25.627000
C -42.842800 -14.431300 -25.566100
C -42.557700 -16.560100 -24.936400
H -42.474100 -12.509300 -24.932600
N -42.337600 -15.246700 -24.591500
C -42.218700 -19.158900 -21.204300
C -42.158400 -17.623600 -24.018900
N -42.023800 -17.281900 -22.753300
N -41.940900 -18.850100 -24.509200
H -41.934300 -14.973800 -23.857800
C -41.855200 -19.144800 -25.946200
H -41.845100 -19.515600 -23.941500
H -41.569300 -20.329200 -19.672500
H -41.480100 -20.051700 -26.068400
N -41.472000 -18.317900 -21.960300
N -41.332600 -19.727400 -20.268700
H -41.235300 -18.500000 -26.372700
C -40.097200 -18.242500 -21.523600
C -40.068800 -19.243900 -20.390500
H -39.869000 -17.333300 -21.205900
H -39.474900 -18.501200 -22.248400
O -39.101600 -19.554300 -19.713600
H -40.341700 -15.163900 -17.650300
O -39.730000 -16.109400 -15.296300
N -39.628600 -15.675900 -17.587900
C -39.189100 -16.259500 -16.389600
O -38.955700 -15.615300 -19.796200
C -38.833600 -15.986600 -18.637500
N -38.092700 -16.977900 -16.693800
H -37.827800 -17.808000 -18.533000
C -37.769400 -16.915200 -18.110500
N -37.541300 -17.986400 -15.867400
H -36.862400 -16.544400 -18.257200
H -36.479200 -20.286700 -15.683200
C -36.346500 -17.643000 -15.404500
H -36.302900 -15.760300 -15.747900
N -35.874700 -20.027500 -15.098100
N -35.796300 -16.434100 -15.495700
C -35.591900 -18.718900 -14.773000
H -35.590200 -22.760700 -14.960300
C -35.077600 -20.852000 -14.377400
C -35.014200 -22.249600 -14.403900
C -34.610000 -18.690100 -13.785400
C -34.381000 -16.174900 -15.192200
C -34.253700 -20.056600 -13.542700
C -34.143600 -17.492900 -13.067700
H -34.137000 -15.276100 -15.527200
C -34.084100 -22.853600 -13.590600
C -34.078100 -16.248500 -13.712000
H -34.011500 -23.801000 -13.569700
H -33.840500 -18.398400 -11.258300
H -33.820400 -16.837300 -15.669900
C -33.807400 -17.561600 -11.705700
C -33.712700 -15.117300 -13.001800
H -33.685400 -14.274700 -13.438400
C -33.429000 -16.434900 -11.007800
C -33.381900 -15.206400 -11.643200
C -33.291900 -20.696500 -12.735300
C -33.243900 -22.061100 -12.792600
H -33.201100 -16.501900 -10.088300
H -33.128000 -14.428200 -11.161300
H -32.703400 -20.201700 -12.177200
N -32.264300 -22.760900 -11.957200
O -32.147300 -23.983700 -12.079000
O -31.601400 -22.102100 -11.157100
