23
Fragment
H -13.639700 -17.969000 -11.479100
H -13.043600 -17.637200 -10.053800
C -12.821000 -17.831800 -10.977600
H -12.330500 -19.778300 -11.555400
N -12.015600 -16.764500 -11.563300
C -11.896500 -19.052600 -11.080600
H -11.632000 -19.364100 -10.200600
C -10.865700 -17.236700 -12.033500
N -10.735300 -18.547400 -11.833800
H -10.183700 -15.594300 -12.696700
H -10.073300 -19.025600 -12.103600
N -9.982700 -16.428700 -12.639400
H -9.364600 -18.514600 -14.154400
C -8.746600 -16.838700 -13.192000
C -8.618200 -17.995400 -13.958900
H -7.739900 -15.224000 -12.517400
C -7.642800 -16.015900 -12.994200
C -7.357300 -18.369500 -14.432300
H -7.255000 -19.157000 -14.915300
C -6.390000 -16.365100 -13.502700
C -6.266300 -17.566000 -14.180100
H -5.657400 -15.804000 -13.388800
Cl -4.697000 -18.099200 -14.724900
23
Fragment
Cl -4.383200 -21.722800 -13.877700
H -3.422900 -24.018000 -15.213700
C -2.813900 -22.256000 -14.422400
C -2.690200 -23.456900 -15.099800
H -1.825200 -20.665000 -13.687300
C -1.723000 -21.452500 -14.170300
C -1.437400 -23.806100 -15.608300
H -1.340300 -24.598000 -16.085100
C -0.462000 -21.826600 -14.643600
C -0.333600 -22.983300 -15.410600
H 0.284400 -21.307400 -14.448100
N 0.902400 -23.393300 -15.963200
H 0.993100 -20.796400 -16.498900
H 1.103500 -24.227700 -15.905900
N 1.655000 -21.274600 -16.768700
C 1.785500 -22.585300 -16.569100
H 2.551800 -20.457900 -18.401900
C 2.816300 -20.769400 -17.521900
N 2.935300 -23.057500 -17.039200
H 3.250300 -20.043700 -17.047100
C 3.740700 -21.990200 -17.624900
H 3.963300 -22.184800 -18.548700
H 4.559500 -21.853000 -17.123400
46
Fragment
H -13.639700 -17.969000 -11.479100
H -13.043600 -17.637200 -10.053800
C -12.821000 -17.831800 -10.977600
H -12.330500 -19.778300 -11.555400
N -12.015600 -16.764500 -11.563300
C -11.896500 -19.052600 -11.080600
H -11.632000 -19.364100 -10.200600
C -10.865700 -17.236700 -12.033500
N -10.735300 -18.547400 -11.833800
H -10.183700 -15.594300 -12.696700
H -10.073300 -19.025600 -12.103600
N -9.982700 -16.428700 -12.639400
H -9.364600 -18.514600 -14.154400
C -8.746600 -16.838700 -13.192000
C -8.618200 -17.995400 -13.958900
H -7.739900 -15.224000 -12.517400
C -7.642800 -16.015900 -12.994200
C -7.357300 -18.369500 -14.432300
H -7.255000 -19.157000 -14.915300
C -6.390000 -16.365100 -13.502700
C -6.266300 -17.566000 -14.180100
H -5.657400 -15.804000 -13.388800
Cl -4.697000 -18.099200 -14.724900
Cl -4.383200 -21.722800 -13.877700
H -3.422900 -24.018000 -15.213700
C -2.813900 -22.256000 -14.422400
C -2.690200 -23.456900 -15.099800
H -1.825200 -20.665000 -13.687300
C -1.723000 -21.452500 -14.170300
C -1.437400 -23.806100 -15.608300
H -1.340300 -24.598000 -16.085100
C -0.462000 -21.826600 -14.643600
C -0.333600 -22.983300 -15.410600
H 0.284400 -21.307400 -14.448100
N 0.902400 -23.393300 -15.963200
H 0.993100 -20.796400 -16.498900
H 1.103500 -24.227700 -15.905900
N 1.655000 -21.274600 -16.768700
C 1.785500 -22.585300 -16.569100
H 2.551800 -20.457900 -18.401900
C 2.816300 -20.769400 -17.521900
N 2.935300 -23.057500 -17.039200
H 3.250300 -20.043700 -17.047100
C 3.740700 -21.990200 -17.624900
H 3.963300 -22.184800 -18.548700
H 4.559500 -21.853000 -17.123400
