23
Fragment
H -13.639700 -17.969000 -11.479100
H -13.043600 -17.637200 -10.053800
C -12.821000 -17.831800 -10.977600
H -12.330500 -19.778300 -11.555400
N -12.015600 -16.764500 -11.563300
C -11.896500 -19.052600 -11.080600
H -11.632000 -19.364100 -10.200600
C -10.865700 -17.236700 -12.033500
N -10.735300 -18.547400 -11.833800
H -10.183700 -15.594300 -12.696700
H -10.073300 -19.025600 -12.103600
N -9.982700 -16.428700 -12.639400
H -9.364600 -18.514600 -14.154400
C -8.746600 -16.838700 -13.192000
C -8.618200 -17.995400 -13.958900
H -7.739900 -15.224000 -12.517400
C -7.642800 -16.015900 -12.994200
C -7.357300 -18.369500 -14.432300
H -7.255000 -19.157000 -14.915300
C -6.390000 -16.365100 -13.502700
C -6.266300 -17.566000 -14.180100
H -5.657400 -15.804000 -13.388800
Cl -4.697000 -18.099200 -14.724900
23
Fragment
Cl -14.315200 -11.462200 -9.110600
H -13.354800 -9.167000 -10.446600
C -12.745900 -10.929000 -9.655400
C -12.622200 -9.728100 -10.332800
H -11.757200 -12.520000 -8.920200
C -11.654900 -11.732500 -9.403200
C -11.369300 -9.378900 -10.841200
H -11.272300 -8.587000 -11.318000
C -10.394000 -11.358400 -9.876500
C -10.265600 -10.201700 -10.643500
H -9.647600 -11.877600 -9.681000
N -9.029500 -9.791700 -11.196100
H -8.938900 -12.388600 -11.731800
H -8.828500 -8.957300 -11.138800
N -8.276900 -11.910400 -12.001600
C -8.146500 -10.599700 -11.802000
H -7.380200 -12.727100 -13.634800
C -7.115700 -12.415600 -12.754800
N -6.996600 -10.127500 -12.272100
H -6.681700 -13.141300 -12.280000
C -6.191200 -11.194800 -12.857800
H -5.968600 -11.000200 -13.781600
H -5.372500 -11.332000 -12.356300
46
Fragment
H -13.639700 -17.969000 -11.479100
H -13.043600 -17.637200 -10.053800
C -12.821000 -17.831800 -10.977600
H -12.330500 -19.778300 -11.555400
N -12.015600 -16.764500 -11.563300
C -11.896500 -19.052600 -11.080600
H -11.632000 -19.364100 -10.200600
C -10.865700 -17.236700 -12.033500
N -10.735300 -18.547400 -11.833800
H -10.183700 -15.594300 -12.696700
H -10.073300 -19.025600 -12.103600
N -9.982700 -16.428700 -12.639400
H -9.364600 -18.514600 -14.154400
C -8.746600 -16.838700 -13.192000
C -8.618200 -17.995400 -13.958900
H -7.739900 -15.224000 -12.517400
C -7.642800 -16.015900 -12.994200
C -7.357300 -18.369500 -14.432300
H -7.255000 -19.157000 -14.915300
C -6.390000 -16.365100 -13.502700
C -6.266300 -17.566000 -14.180100
H -5.657400 -15.804000 -13.388800
Cl -4.697000 -18.099200 -14.724900
Cl -14.315200 -11.462200 -9.110600
H -13.354800 -9.167000 -10.446600
C -12.745900 -10.929000 -9.655400
C -12.622200 -9.728100 -10.332800
H -11.757200 -12.520000 -8.920200
C -11.654900 -11.732500 -9.403200
C -11.369300 -9.378900 -10.841200
H -11.272300 -8.587000 -11.318000
C -10.394000 -11.358400 -9.876500
C -10.265600 -10.201700 -10.643500
H -9.647600 -11.877600 -9.681000
N -9.029500 -9.791700 -11.196100
H -8.938900 -12.388600 -11.731800
H -8.828500 -8.957300 -11.138800
N -8.276900 -11.910400 -12.001600
C -8.146500 -10.599700 -11.802000
H -7.380200 -12.727100 -13.634800
C -7.115700 -12.415600 -12.754800
N -6.996600 -10.127500 -12.272100
H -6.681700 -13.141300 -12.280000
C -6.191200 -11.194800 -12.857800
H -5.968600 -11.000200 -13.781600
H -5.372500 -11.332000 -12.356300
