23
Fragment
H -13.639700 -17.969000 -11.479100
H -13.043600 -17.637200 -10.053800
C -12.821000 -17.831800 -10.977600
H -12.330500 -19.778300 -11.555400
N -12.015600 -16.764500 -11.563300
C -11.896500 -19.052600 -11.080600
H -11.632000 -19.364100 -10.200600
C -10.865700 -17.236700 -12.033500
N -10.735300 -18.547400 -11.833800
H -10.183700 -15.594300 -12.696700
H -10.073300 -19.025600 -12.103600
N -9.982700 -16.428700 -12.639400
H -9.364600 -18.514600 -14.154400
C -8.746600 -16.838700 -13.192000
C -8.618200 -17.995400 -13.958900
H -7.739900 -15.224000 -12.517400
C -7.642800 -16.015900 -12.994200
C -7.357300 -18.369500 -14.432300
H -7.255000 -19.157000 -14.915300
C -6.390000 -16.365100 -13.502700
C -6.266300 -17.566000 -14.180100
H -5.657400 -15.804000 -13.388800
Cl -4.697000 -18.099200 -14.724900
6
Fragment
H -13.388700 -13.812900 -12.430700
N -12.594100 -14.133100 -12.359400
H -12.479800 -14.977100 -12.241900
H -11.788800 -12.470900 -12.554600
C -11.609500 -13.375000 -12.426700
O -10.394800 -13.700000 -12.339900
29
Fragment
H -13.639700 -17.969000 -11.479100
H -13.043600 -17.637200 -10.053800
C -12.821000 -17.831800 -10.977600
H -12.330500 -19.778300 -11.555400
N -12.015600 -16.764500 -11.563300
C -11.896500 -19.052600 -11.080600
H -11.632000 -19.364100 -10.200600
C -10.865700 -17.236700 -12.033500
N -10.735300 -18.547400 -11.833800
H -10.183700 -15.594300 -12.696700
H -10.073300 -19.025600 -12.103600
N -9.982700 -16.428700 -12.639400
H -9.364600 -18.514600 -14.154400
C -8.746600 -16.838700 -13.192000
C -8.618200 -17.995400 -13.958900
H -7.739900 -15.224000 -12.517400
C -7.642800 -16.015900 -12.994200
C -7.357300 -18.369500 -14.432300
H -7.255000 -19.157000 -14.915300
C -6.390000 -16.365100 -13.502700
C -6.266300 -17.566000 -14.180100
H -5.657400 -15.804000 -13.388800
Cl -4.697000 -18.099200 -14.724900
H -13.388700 -13.812900 -12.430700
N -12.594100 -14.133100 -12.359400
H -12.479800 -14.977100 -12.241900
H -11.788800 -12.470900 -12.554600
C -11.609500 -13.375000 -12.426700
O -10.394800 -13.700000 -12.339900
