20
Fragment
H -19.710600 -8.396800 -20.752700
N -19.042500 -8.738700 -20.304400
N -18.914500 -6.772700 -18.982000
H -18.680500 -9.466500 -20.547600
C -18.455600 -7.966800 -19.407500
N -18.059300 -6.256300 -18.060000
O -17.693800 -12.440900 -21.502200
N -17.301100 -8.210200 -18.724900
N -17.095200 -10.824000 -20.156600
C -17.079200 -7.118700 -17.899600
N -16.855300 -12.026700 -20.713300
N -16.310200 -9.167700 -18.705800
C -16.169300 -10.383800 -19.300900
N -15.994000 -6.939000 -17.097800
O -15.813700 -12.676000 -20.426400
C -15.239600 -8.954700 -17.869700
N -15.066200 -7.834000 -17.074400
N -15.006400 -10.833000 -18.801900
H -14.559900 -11.591900 -18.981200
N -14.416900 -9.963000 -17.925200
20
Fragment
N -25.668900 -11.011500 -22.830300
H -25.526000 -9.382600 -21.774300
N -25.079500 -10.141500 -21.953700
N -25.019700 -13.140500 -23.681200
C -24.846200 -12.019800 -22.885900
O -24.272100 -8.298500 -20.329100
N -24.091800 -14.035500 -23.657800
C -23.916600 -10.590700 -21.454700
N -23.775600 -11.806800 -22.049700
N -23.230500 -8.947800 -20.042200
C -23.006600 -13.855800 -22.856000
N -22.990700 -10.150500 -20.598900
N -22.784700 -12.764300 -22.030700
O -22.392000 -8.533600 -19.253300
N -22.026500 -14.718200 -22.695500
C -21.630300 -13.007700 -21.348000
H -21.405300 -11.508000 -20.208000
N -21.171400 -14.201800 -21.773500
N -21.043400 -12.235800 -20.451100
H -20.375300 -12.577700 -20.002800
40
Fragment
H -19.710600 -8.396800 -20.752700
N -19.042500 -8.738700 -20.304400
N -18.914500 -6.772700 -18.982000
H -18.680500 -9.466500 -20.547600
C -18.455600 -7.966800 -19.407500
N -18.059300 -6.256300 -18.060000
O -17.693800 -12.440900 -21.502200
N -17.301100 -8.210200 -18.724900
N -17.095200 -10.824000 -20.156600
C -17.079200 -7.118700 -17.899600
N -16.855300 -12.026700 -20.713300
N -16.310200 -9.167700 -18.705800
C -16.169300 -10.383800 -19.300900
N -15.994000 -6.939000 -17.097800
O -15.813700 -12.676000 -20.426400
C -15.239600 -8.954700 -17.869700
N -15.066200 -7.834000 -17.074400
N -15.006400 -10.833000 -18.801900
H -14.559900 -11.591900 -18.981200
N -14.416900 -9.963000 -17.925200
N -25.668900 -11.011500 -22.830300
H -25.526000 -9.382600 -21.774300
N -25.079500 -10.141500 -21.953700
N -25.019700 -13.140500 -23.681200
C -24.846200 -12.019800 -22.885900
O -24.272100 -8.298500 -20.329100
N -24.091800 -14.035500 -23.657800
C -23.916600 -10.590700 -21.454700
N -23.775600 -11.806800 -22.049700
N -23.230500 -8.947800 -20.042200
C -23.006600 -13.855800 -22.856000
N -22.990700 -10.150500 -20.598900
N -22.784700 -12.764300 -22.030700
O -22.392000 -8.533600 -19.253300
N -22.026500 -14.718200 -22.695500
C -21.630300 -13.007700 -21.348000
H -21.405300 -11.508000 -20.208000
N -21.171400 -14.201800 -21.773500
N -21.043400 -12.235800 -20.451100
H -20.375300 -12.577700 -20.002800
