20
Fragment
N -29.665500 -15.820400 -17.292400
N -29.144400 -15.710900 -21.638400
C -29.090700 -16.170800 -18.206100
C -28.850500 -16.133800 -20.604600
C -28.351300 -16.607000 -19.351200
C -27.243000 -17.370600 -19.242900
H -27.198800 -17.486400 -17.188500
H -26.820600 -17.587000 -21.243900
C -26.739100 -17.749000 -17.952400
C -26.516200 -17.824400 -20.396900
C -25.620200 -18.475500 -17.830800
C -25.428500 -18.567700 -20.293100
H -25.295000 -18.681100 -16.983800
H -24.988800 -18.852700 -21.061400
C -24.915700 -18.939900 -18.996700
C -23.773600 -19.665500 -18.842400
C -23.273600 -20.009100 -17.584600
C -23.042300 -20.145400 -20.012700
N -22.879900 -20.299400 -16.565500
N -22.462600 -20.554700 -20.877500
48
Fragment
H -38.341300 -12.840100 -18.602100
H -38.098900 -13.103600 -16.351900
C -37.621500 -13.327300 -18.269900
C -37.474700 -13.480200 -16.928900
H -36.812000 -13.768000 -20.060200
C -36.714000 -13.887400 -19.143500
C -36.422800 -14.179200 -16.418700
H -36.339800 -14.277300 -15.497600
C -35.637500 -14.639000 -18.639200
C -35.456200 -14.755000 -17.268600
H -34.829400 -15.090600 -20.438400
C -34.710800 -15.213200 -19.523200
C -34.328100 -15.482100 -16.828100
H -34.169400 -15.560100 -15.915900
H -34.051800 -16.309000 -26.198100
H -33.907900 -16.286600 -23.952400
C -33.644300 -15.945100 -19.094600
H -33.490900 -15.897900 -21.779400
C -33.470200 -16.067900 -17.695800
C -33.339400 -16.736200 -25.779800
C -33.240800 -16.723100 -24.431500
H -33.195300 -17.079000 -28.374100
C -32.876300 -16.503700 -21.433700
H -32.752900 -16.561000 -17.368000
C -32.708200 -16.617400 -19.968200
C -32.471800 -17.477600 -27.945400
C -32.394000 -17.377500 -26.527400
C -32.201300 -17.322700 -23.706200
C -32.153600 -17.260700 -22.265900
O -31.803700 -17.316500 -19.495100
H -31.626500 -18.102600 -29.629000
C -31.556000 -18.117200 -28.701900
H -31.536800 -17.826300 -21.860900
C -31.300500 -18.033000 -25.874800
C -31.218900 -17.992300 -24.450800
C -30.506600 -18.798300 -28.092300
C -30.343200 -18.713300 -26.689100
C -30.092900 -18.690100 -23.854500
H -30.003200 -18.708900 -22.928900
H -29.589100 -19.539900 -29.725400
C -29.547300 -19.511500 -28.796900
C -29.277900 -19.393700 -26.055700
C -29.172800 -19.312600 -24.624300
C -28.541800 -20.174900 -28.148700
H -28.438500 -19.705600 -24.209000
C -28.403100 -20.087300 -26.795900
H -27.944700 -20.692100 -28.638200
H -27.690700 -20.517100 -26.380600
68
Fragment
N -29.665500 -15.820400 -17.292400
N -29.144400 -15.710900 -21.638400
C -29.090700 -16.170800 -18.206100
C -28.850500 -16.133800 -20.604600
C -28.351300 -16.607000 -19.351200
C -27.243000 -17.370600 -19.242900
H -27.198800 -17.486400 -17.188500
H -26.820600 -17.587000 -21.243900
C -26.739100 -17.749000 -17.952400
C -26.516200 -17.824400 -20.396900
C -25.620200 -18.475500 -17.830800
C -25.428500 -18.567700 -20.293100
H -25.295000 -18.681100 -16.983800
H -24.988800 -18.852700 -21.061400
C -24.915700 -18.939900 -18.996700
C -23.773600 -19.665500 -18.842400
C -23.273600 -20.009100 -17.584600
C -23.042300 -20.145400 -20.012700
N -22.879900 -20.299400 -16.565500
N -22.462600 -20.554700 -20.877500
H -38.341300 -12.840100 -18.602100
H -38.098900 -13.103600 -16.351900
C -37.621500 -13.327300 -18.269900
C -37.474700 -13.480200 -16.928900
H -36.812000 -13.768000 -20.060200
C -36.714000 -13.887400 -19.143500
C -36.422800 -14.179200 -16.418700
H -36.339800 -14.277300 -15.497600
C -35.637500 -14.639000 -18.639200
C -35.456200 -14.755000 -17.268600
H -34.829400 -15.090600 -20.438400
C -34.710800 -15.213200 -19.523200
C -34.328100 -15.482100 -16.828100
H -34.169400 -15.560100 -15.915900
H -34.051800 -16.309000 -26.198100
H -33.907900 -16.286600 -23.952400
C -33.644300 -15.945100 -19.094600
H -33.490900 -15.897900 -21.779400
C -33.470200 -16.067900 -17.695800
C -33.339400 -16.736200 -25.779800
C -33.240800 -16.723100 -24.431500
H -33.195300 -17.079000 -28.374100
C -32.876300 -16.503700 -21.433700
H -32.752900 -16.561000 -17.368000
C -32.708200 -16.617400 -19.968200
C -32.471800 -17.477600 -27.945400
C -32.394000 -17.377500 -26.527400
C -32.201300 -17.322700 -23.706200
C -32.153600 -17.260700 -22.265900
O -31.803700 -17.316500 -19.495100
H -31.626500 -18.102600 -29.629000
C -31.556000 -18.117200 -28.701900
H -31.536800 -17.826300 -21.860900
C -31.300500 -18.033000 -25.874800
C -31.218900 -17.992300 -24.450800
C -30.506600 -18.798300 -28.092300
C -30.343200 -18.713300 -26.689100
C -30.092900 -18.690100 -23.854500
H -30.003200 -18.708900 -22.928900
H -29.589100 -19.539900 -29.725400
C -29.547300 -19.511500 -28.796900
C -29.277900 -19.393700 -26.055700
C -29.172800 -19.312600 -24.624300
C -28.541800 -20.174900 -28.148700
H -28.438500 -19.705600 -24.209000
C -28.403100 -20.087300 -26.795900
H -27.944700 -20.692100 -28.638200
H -27.690700 -20.517100 -26.380600
