41
Fragment
H -25.870400 -18.046600 -18.429300
H -25.511400 -15.851300 -18.873900
C -25.203500 -17.581200 -17.976800
C -24.991700 -16.289700 -18.239300
H -24.522500 -19.152100 -16.808100
C -24.399800 -18.249300 -16.993700
C -24.019600 -15.620300 -17.577400
H -23.903000 -14.717900 -17.772000
H -23.617700 -17.282000 -9.611800
C -23.423800 -17.500700 -16.320500
C -23.209800 -16.176600 -16.656500
H -23.207100 -17.150100 -11.846100
H -22.981700 -18.198000 -7.345700
C -22.832600 -17.647900 -9.948900
C -22.603600 -17.580800 -11.285000
C -22.575900 -18.213400 -15.306900
H -22.527500 -15.685500 -16.259400
H -22.355300 -16.774400 -14.030700
C -22.341500 -19.586500 -15.555800
N -22.201000 -20.693300 -15.786500
C -22.149000 -18.434300 -7.687400
C -22.068800 -17.643000 -14.200400
C -21.955200 -18.232600 -9.078900
H -21.470300 -18.912200 -5.920200
C -21.393800 -18.197100 -11.830300
C -21.277000 -18.918100 -6.829800
C -21.148700 -18.183500 -13.244500
C -20.723100 -18.813200 -9.541600
C -20.473300 -18.735000 -10.971600
C -20.067100 -19.440600 -7.277800
C -19.966100 -18.755000 -13.664200
H -19.793300 -18.771600 -14.578300
C -19.770500 -19.392700 -8.647900
H -19.464300 -19.815100 -6.677100
C -19.274100 -19.329200 -11.453600
C -19.016700 -19.305000 -12.819100
C -18.577500 -19.932400 -9.203400
C -18.341800 -19.847100 -10.542800
H -18.223500 -19.652400 -13.158500
H -17.954700 -20.344800 -8.649000
H -17.523600 -20.147700 -10.867500
20
Fragment
N -24.880300 -13.647200 -20.374100
N -24.776200 -13.512600 -24.662900
C -24.282400 -13.884700 -21.315300
C -24.228100 -13.793000 -23.756700
C -23.576600 -14.157300 -22.573400
C -22.372600 -14.741700 -22.566600
H -22.117600 -15.095100 -20.565300
H -22.103600 -14.825700 -24.642600
C -21.693000 -15.195700 -21.386600
C -21.683700 -15.035600 -23.840500
C -20.492900 -15.750400 -21.412600
C -20.483600 -15.590200 -23.866500
H -20.073000 -15.960200 -20.610500
H -20.059000 -15.690800 -24.687800
C -19.804000 -16.044200 -22.686500
C -18.600000 -16.628600 -22.679700
C -17.948500 -16.992900 -21.496400
C -17.894200 -16.901200 -23.937800
N -17.400400 -17.273300 -20.590200
N -17.296300 -17.138700 -24.879000
61
Fragment
H -25.870400 -18.046600 -18.429300
H -25.511400 -15.851300 -18.873900
C -25.203500 -17.581200 -17.976800
C -24.991700 -16.289700 -18.239300
H -24.522500 -19.152100 -16.808100
C -24.399800 -18.249300 -16.993700
C -24.019600 -15.620300 -17.577400
H -23.903000 -14.717900 -17.772000
H -23.617700 -17.282000 -9.611800
C -23.423800 -17.500700 -16.320500
C -23.209800 -16.176600 -16.656500
H -23.207100 -17.150100 -11.846100
H -22.981700 -18.198000 -7.345700
C -22.832600 -17.647900 -9.948900
C -22.603600 -17.580800 -11.285000
C -22.575900 -18.213400 -15.306900
H -22.527500 -15.685500 -16.259400
H -22.355300 -16.774400 -14.030700
C -22.341500 -19.586500 -15.555800
N -22.201000 -20.693300 -15.786500
C -22.149000 -18.434300 -7.687400
C -22.068800 -17.643000 -14.200400
C -21.955200 -18.232600 -9.078900
H -21.470300 -18.912200 -5.920200
C -21.393800 -18.197100 -11.830300
C -21.277000 -18.918100 -6.829800
C -21.148700 -18.183500 -13.244500
C -20.723100 -18.813200 -9.541600
C -20.473300 -18.735000 -10.971600
C -20.067100 -19.440600 -7.277800
C -19.966100 -18.755000 -13.664200
H -19.793300 -18.771600 -14.578300
C -19.770500 -19.392700 -8.647900
H -19.464300 -19.815100 -6.677100
C -19.274100 -19.329200 -11.453600
C -19.016700 -19.305000 -12.819100
C -18.577500 -19.932400 -9.203400
C -18.341800 -19.847100 -10.542800
H -18.223500 -19.652400 -13.158500
H -17.954700 -20.344800 -8.649000
H -17.523600 -20.147700 -10.867500
N -24.880300 -13.647200 -20.374100
N -24.776200 -13.512600 -24.662900
C -24.282400 -13.884700 -21.315300
C -24.228100 -13.793000 -23.756700
C -23.576600 -14.157300 -22.573400
C -22.372600 -14.741700 -22.566600
H -22.117600 -15.095100 -20.565300
H -22.103600 -14.825700 -24.642600
C -21.693000 -15.195700 -21.386600
C -21.683700 -15.035600 -23.840500
C -20.492900 -15.750400 -21.412600
C -20.483600 -15.590200 -23.866500
H -20.073000 -15.960200 -20.610500
H -20.059000 -15.690800 -24.687800
C -19.804000 -16.044200 -22.686500
C -18.600000 -16.628600 -22.679700
C -17.948500 -16.992900 -21.496400
C -17.894200 -16.901200 -23.937800
N -17.400400 -17.273300 -20.590200
N -17.296300 -17.138700 -24.879000
