41
Fragment
H -25.870400 -18.046600 -18.429300
H -25.511400 -15.851300 -18.873900
C -25.203500 -17.581200 -17.976800
C -24.991700 -16.289700 -18.239300
H -24.522500 -19.152100 -16.808100
C -24.399800 -18.249300 -16.993700
C -24.019600 -15.620300 -17.577400
H -23.903000 -14.717900 -17.772000
H -23.617700 -17.282000 -9.611800
C -23.423800 -17.500700 -16.320500
C -23.209800 -16.176600 -16.656500
H -23.207100 -17.150100 -11.846100
H -22.981700 -18.198000 -7.345700
C -22.832600 -17.647900 -9.948900
C -22.603600 -17.580800 -11.285000
C -22.575900 -18.213400 -15.306900
H -22.527500 -15.685500 -16.259400
H -22.355300 -16.774400 -14.030700
C -22.341500 -19.586500 -15.555800
N -22.201000 -20.693300 -15.786500
C -22.149000 -18.434300 -7.687400
C -22.068800 -17.643000 -14.200400
C -21.955200 -18.232600 -9.078900
H -21.470300 -18.912200 -5.920200
C -21.393800 -18.197100 -11.830300
C -21.277000 -18.918100 -6.829800
C -21.148700 -18.183500 -13.244500
C -20.723100 -18.813200 -9.541600
C -20.473300 -18.735000 -10.971600
C -20.067100 -19.440600 -7.277800
C -19.966100 -18.755000 -13.664200
H -19.793300 -18.771600 -14.578300
C -19.770500 -19.392700 -8.647900
H -19.464300 -19.815100 -6.677100
C -19.274100 -19.329200 -11.453600
C -19.016700 -19.305000 -12.819100
C -18.577500 -19.932400 -9.203400
C -18.341800 -19.847100 -10.542800
H -18.223500 -19.652400 -13.158500
H -17.954700 -20.344800 -8.649000
H -17.523600 -20.147700 -10.867500
41
Fragment
H -25.014700 -17.260800 -23.072300
H -24.583600 -17.063700 -25.290800
H -24.314800 -17.756100 -20.781400
C -24.196500 -17.561400 -23.397000
C -23.960800 -17.476000 -24.736500
C -23.521700 -18.103400 -21.120800
C -23.264200 -18.079200 -22.486300
H -23.074100 -17.593300 -27.262700
C -22.767800 -18.015700 -25.292000
H -22.745000 -18.636900 -19.361500
C -22.572200 -18.653500 -20.275700
C -22.471200 -17.967900 -26.662000
C -22.065000 -18.673400 -22.968200
C -21.815200 -18.595300 -24.398200
C -21.389600 -19.225000 -20.695400
C -21.261300 -18.490300 -27.110000
C -21.144500 -19.211400 -22.109500
H -21.068000 -18.496300 -28.019600
C -20.583100 -19.175900 -24.860900
C -20.469500 -19.765500 -19.739400
C -20.389300 -18.974200 -26.252500
N -20.337300 -16.715200 -18.153300
C -20.196800 -17.822000 -18.384100
H -20.183000 -20.634100 -19.909100
H -20.010800 -21.723000 -17.680400
C -19.962400 -19.195100 -18.633000
C -19.934700 -19.827700 -22.654800
C -19.705700 -19.760600 -23.990900
H -19.556600 -19.210400 -26.594100
H -19.331200 -20.258300 -22.093700
C -19.328500 -21.231900 -17.283300
C -19.114600 -19.907800 -17.619300
H -18.920600 -20.126400 -24.328100
H -18.635400 -22.690500 -16.167800
C -18.518700 -21.788100 -16.362400
C -18.138500 -19.159200 -16.946200
H -18.015800 -18.256300 -17.131700
C -17.546600 -21.118800 -15.700600
C -17.334900 -19.827300 -15.963000
H -17.026900 -21.557100 -15.065900
H -16.667900 -19.361900 -15.510500
82
Fragment
H -25.870400 -18.046600 -18.429300
H -25.511400 -15.851300 -18.873900
C -25.203500 -17.581200 -17.976800
C -24.991700 -16.289700 -18.239300
H -24.522500 -19.152100 -16.808100
C -24.399800 -18.249300 -16.993700
C -24.019600 -15.620300 -17.577400
H -23.903000 -14.717900 -17.772000
H -23.617700 -17.282000 -9.611800
C -23.423800 -17.500700 -16.320500
C -23.209800 -16.176600 -16.656500
H -23.207100 -17.150100 -11.846100
H -22.981700 -18.198000 -7.345700
C -22.832600 -17.647900 -9.948900
C -22.603600 -17.580800 -11.285000
C -22.575900 -18.213400 -15.306900
H -22.527500 -15.685500 -16.259400
H -22.355300 -16.774400 -14.030700
C -22.341500 -19.586500 -15.555800
N -22.201000 -20.693300 -15.786500
C -22.149000 -18.434300 -7.687400
C -22.068800 -17.643000 -14.200400
C -21.955200 -18.232600 -9.078900
H -21.470300 -18.912200 -5.920200
C -21.393800 -18.197100 -11.830300
C -21.277000 -18.918100 -6.829800
C -21.148700 -18.183500 -13.244500
C -20.723100 -18.813200 -9.541600
C -20.473300 -18.735000 -10.971600
C -20.067100 -19.440600 -7.277800
C -19.966100 -18.755000 -13.664200
H -19.793300 -18.771600 -14.578300
C -19.770500 -19.392700 -8.647900
H -19.464300 -19.815100 -6.677100
C -19.274100 -19.329200 -11.453600
C -19.016700 -19.305000 -12.819100
C -18.577500 -19.932400 -9.203400
C -18.341800 -19.847100 -10.542800
H -18.223500 -19.652400 -13.158500
H -17.954700 -20.344800 -8.649000
H -17.523600 -20.147700 -10.867500
H -25.014700 -17.260800 -23.072300
H -24.583600 -17.063700 -25.290800
H -24.314800 -17.756100 -20.781400
C -24.196500 -17.561400 -23.397000
C -23.960800 -17.476000 -24.736500
C -23.521700 -18.103400 -21.120800
C -23.264200 -18.079200 -22.486300
H -23.074100 -17.593300 -27.262700
C -22.767800 -18.015700 -25.292000
H -22.745000 -18.636900 -19.361500
C -22.572200 -18.653500 -20.275700
C -22.471200 -17.967900 -26.662000
C -22.065000 -18.673400 -22.968200
C -21.815200 -18.595300 -24.398200
C -21.389600 -19.225000 -20.695400
C -21.261300 -18.490300 -27.110000
C -21.144500 -19.211400 -22.109500
H -21.068000 -18.496300 -28.019600
C -20.583100 -19.175900 -24.860900
C -20.469500 -19.765500 -19.739400
C -20.389300 -18.974200 -26.252500
N -20.337300 -16.715200 -18.153300
C -20.196800 -17.822000 -18.384100
H -20.183000 -20.634100 -19.909100
H -20.010800 -21.723000 -17.680400
C -19.962400 -19.195100 -18.633000
C -19.934700 -19.827700 -22.654800
C -19.705700 -19.760600 -23.990900
H -19.556600 -19.210400 -26.594100
H -19.331200 -20.258300 -22.093700
C -19.328500 -21.231900 -17.283300
C -19.114600 -19.907800 -17.619300
H -18.920600 -20.126400 -24.328100
H -18.635400 -22.690500 -16.167800
C -18.518700 -21.788100 -16.362400
C -18.138500 -19.159200 -16.946200
H -18.015800 -18.256300 -17.131700
C -17.546600 -21.118800 -15.700600
C -17.334900 -19.827300 -15.963000
H -17.026900 -21.557100 -15.065900
H -16.667900 -19.361900 -15.510500
