41
Fragment
H -25.870400 -18.046600 -18.429300
H -25.511400 -15.851300 -18.873900
C -25.203500 -17.581200 -17.976800
C -24.991700 -16.289700 -18.239300
H -24.522500 -19.152100 -16.808100
C -24.399800 -18.249300 -16.993700
C -24.019600 -15.620300 -17.577400
H -23.903000 -14.717900 -17.772000
H -23.617700 -17.282000 -9.611800
C -23.423800 -17.500700 -16.320500
C -23.209800 -16.176600 -16.656500
H -23.207100 -17.150100 -11.846100
H -22.981700 -18.198000 -7.345700
C -22.832600 -17.647900 -9.948900
C -22.603600 -17.580800 -11.285000
C -22.575900 -18.213400 -15.306900
H -22.527500 -15.685500 -16.259400
H -22.355300 -16.774400 -14.030700
C -22.341500 -19.586500 -15.555800
N -22.201000 -20.693300 -15.786500
C -22.149000 -18.434300 -7.687400
C -22.068800 -17.643000 -14.200400
C -21.955200 -18.232600 -9.078900
H -21.470300 -18.912200 -5.920200
C -21.393800 -18.197100 -11.830300
C -21.277000 -18.918100 -6.829800
C -21.148700 -18.183500 -13.244500
C -20.723100 -18.813200 -9.541600
C -20.473300 -18.735000 -10.971600
C -20.067100 -19.440600 -7.277800
C -19.966100 -18.755000 -13.664200
H -19.793300 -18.771600 -14.578300
C -19.770500 -19.392700 -8.647900
H -19.464300 -19.815100 -6.677100
C -19.274100 -19.329200 -11.453600
C -19.016700 -19.305000 -12.819100
C -18.577500 -19.932400 -9.203400
C -18.341800 -19.847100 -10.542800
H -18.223500 -19.652400 -13.158500
H -17.954700 -20.344800 -8.649000
H -17.523600 -20.147700 -10.867500
41
Fragment
H -21.500200 -14.337300 -11.759000
H -21.069100 -14.140300 -13.977600
H -20.800300 -14.832600 -9.468100
C -20.682000 -14.637900 -12.083700
C -20.446300 -14.552600 -13.423200
C -20.007100 -15.180000 -9.807500
C -19.749700 -15.155800 -11.173000
H -19.559500 -14.669900 -15.949500
C -19.253300 -15.092300 -13.978700
H -19.230500 -15.713400 -8.048300
C -19.057700 -15.730000 -8.962400
C -18.956700 -15.044400 -15.348700
C -18.550500 -15.750000 -11.654900
C -18.300700 -15.671800 -13.084900
C -17.875100 -16.301500 -9.382100
C -17.746800 -15.566900 -15.796700
C -17.630000 -16.287900 -10.796300
H -17.553400 -15.572800 -16.706300
C -17.068600 -16.252400 -13.547600
C -16.954900 -16.842000 -8.426100
C -16.874800 -16.050700 -14.939200
N -16.822800 -13.791700 -6.840000
C -16.682300 -14.898500 -7.070800
H -16.668500 -17.710600 -8.595800
H -16.496300 -18.799500 -6.367100
C -16.447900 -16.271600 -7.319700
C -16.420200 -16.904200 -11.341600
C -16.191200 -16.837100 -12.677700
H -16.042100 -16.287000 -15.280800
H -15.816700 -17.334900 -10.780400
C -15.814000 -18.308400 -5.970000
C -15.600000 -16.984300 -6.306000
H -15.406100 -17.203000 -13.014800
H -15.120800 -19.767100 -4.854500
C -15.004200 -18.864700 -5.049100
C -14.624000 -16.235700 -5.632900
H -14.501200 -15.332900 -5.818400
C -14.032100 -18.195300 -4.387300
C -13.820300 -16.903800 -4.649800
H -13.512300 -18.633700 -3.752600
H -13.153300 -16.438400 -4.197200
82
Fragment
H -25.870400 -18.046600 -18.429300
H -25.511400 -15.851300 -18.873900
C -25.203500 -17.581200 -17.976800
C -24.991700 -16.289700 -18.239300
H -24.522500 -19.152100 -16.808100
C -24.399800 -18.249300 -16.993700
C -24.019600 -15.620300 -17.577400
H -23.903000 -14.717900 -17.772000
H -23.617700 -17.282000 -9.611800
C -23.423800 -17.500700 -16.320500
C -23.209800 -16.176600 -16.656500
H -23.207100 -17.150100 -11.846100
H -22.981700 -18.198000 -7.345700
C -22.832600 -17.647900 -9.948900
C -22.603600 -17.580800 -11.285000
C -22.575900 -18.213400 -15.306900
H -22.527500 -15.685500 -16.259400
H -22.355300 -16.774400 -14.030700
C -22.341500 -19.586500 -15.555800
N -22.201000 -20.693300 -15.786500
C -22.149000 -18.434300 -7.687400
C -22.068800 -17.643000 -14.200400
C -21.955200 -18.232600 -9.078900
H -21.470300 -18.912200 -5.920200
C -21.393800 -18.197100 -11.830300
C -21.277000 -18.918100 -6.829800
C -21.148700 -18.183500 -13.244500
C -20.723100 -18.813200 -9.541600
C -20.473300 -18.735000 -10.971600
C -20.067100 -19.440600 -7.277800
C -19.966100 -18.755000 -13.664200
H -19.793300 -18.771600 -14.578300
C -19.770500 -19.392700 -8.647900
H -19.464300 -19.815100 -6.677100
C -19.274100 -19.329200 -11.453600
C -19.016700 -19.305000 -12.819100
C -18.577500 -19.932400 -9.203400
C -18.341800 -19.847100 -10.542800
H -18.223500 -19.652400 -13.158500
H -17.954700 -20.344800 -8.649000
H -17.523600 -20.147700 -10.867500
H -21.500200 -14.337300 -11.759000
H -21.069100 -14.140300 -13.977600
H -20.800300 -14.832600 -9.468100
C -20.682000 -14.637900 -12.083700
C -20.446300 -14.552600 -13.423200
C -20.007100 -15.180000 -9.807500
C -19.749700 -15.155800 -11.173000
H -19.559500 -14.669900 -15.949500
C -19.253300 -15.092300 -13.978700
H -19.230500 -15.713400 -8.048300
C -19.057700 -15.730000 -8.962400
C -18.956700 -15.044400 -15.348700
C -18.550500 -15.750000 -11.654900
C -18.300700 -15.671800 -13.084900
C -17.875100 -16.301500 -9.382100
C -17.746800 -15.566900 -15.796700
C -17.630000 -16.287900 -10.796300
H -17.553400 -15.572800 -16.706300
C -17.068600 -16.252400 -13.547600
C -16.954900 -16.842000 -8.426100
C -16.874800 -16.050700 -14.939200
N -16.822800 -13.791700 -6.840000
C -16.682300 -14.898500 -7.070800
H -16.668500 -17.710600 -8.595800
H -16.496300 -18.799500 -6.367100
C -16.447900 -16.271600 -7.319700
C -16.420200 -16.904200 -11.341600
C -16.191200 -16.837100 -12.677700
H -16.042100 -16.287000 -15.280800
H -15.816700 -17.334900 -10.780400
C -15.814000 -18.308400 -5.970000
C -15.600000 -16.984300 -6.306000
H -15.406100 -17.203000 -13.014800
H -15.120800 -19.767100 -4.854500
C -15.004200 -18.864700 -5.049100
C -14.624000 -16.235700 -5.632900
H -14.501200 -15.332900 -5.818400
C -14.032100 -18.195300 -4.387300
C -13.820300 -16.903800 -4.649800
H -13.512300 -18.633700 -3.752600
H -13.153300 -16.438400 -4.197200
