41
Fragment
H -25.870400 -18.046600 -18.429300
H -25.511400 -15.851300 -18.873900
C -25.203500 -17.581200 -17.976800
C -24.991700 -16.289700 -18.239300
H -24.522500 -19.152100 -16.808100
C -24.399800 -18.249300 -16.993700
C -24.019600 -15.620300 -17.577400
H -23.903000 -14.717900 -17.772000
H -23.617700 -17.282000 -9.611800
C -23.423800 -17.500700 -16.320500
C -23.209800 -16.176600 -16.656500
H -23.207100 -17.150100 -11.846100
H -22.981700 -18.198000 -7.345700
C -22.832600 -17.647900 -9.948900
C -22.603600 -17.580800 -11.285000
C -22.575900 -18.213400 -15.306900
H -22.527500 -15.685500 -16.259400
H -22.355300 -16.774400 -14.030700
C -22.341500 -19.586500 -15.555800
N -22.201000 -20.693300 -15.786500
C -22.149000 -18.434300 -7.687400
C -22.068800 -17.643000 -14.200400
C -21.955200 -18.232600 -9.078900
H -21.470300 -18.912200 -5.920200
C -21.393800 -18.197100 -11.830300
C -21.277000 -18.918100 -6.829800
C -21.148700 -18.183500 -13.244500
C -20.723100 -18.813200 -9.541600
C -20.473300 -18.735000 -10.971600
C -20.067100 -19.440600 -7.277800
C -19.966100 -18.755000 -13.664200
H -19.793300 -18.771600 -14.578300
C -19.770500 -19.392700 -8.647900
H -19.464300 -19.815100 -6.677100
C -19.274100 -19.329200 -11.453600
C -19.016700 -19.305000 -12.819100
C -18.577500 -19.932400 -9.203400
C -18.341800 -19.847100 -10.542800
H -18.223500 -19.652400 -13.158500
H -17.954700 -20.344800 -8.649000
H -17.523600 -20.147700 -10.867500
41
Fragment
H -21.861900 -20.959900 -0.445700
H -21.430800 -20.762800 -2.664300
H -21.162000 -21.455200 1.845200
C -21.043700 -21.260500 -0.770400
C -20.808000 -21.175100 -2.109900
C -20.368800 -21.802500 1.505800
C -20.111400 -21.778300 0.140300
H -19.921200 -21.292400 -4.636200
C -19.615000 -21.714800 -2.665400
H -19.592200 -22.335900 3.265000
C -19.419400 -22.352600 2.350900
C -19.318400 -21.667000 -4.035400
C -18.912200 -22.372500 -0.341700
C -18.662400 -22.294300 -1.771700
C -18.236800 -22.924000 1.931200
C -18.108500 -22.189400 -4.483500
C -17.991700 -22.910500 0.517000
H -17.915100 -22.195400 -5.393000
C -17.430300 -22.875000 -2.234400
C -17.316700 -23.464600 2.887100
C -17.236500 -22.673300 -3.625900
N -17.184500 -20.414300 4.473300
C -17.044000 -21.521100 4.242500
H -17.030200 -24.333200 2.717400
H -16.858000 -25.422100 4.946200
C -16.809600 -22.894200 3.993600
C -16.781900 -23.526800 -0.028300
C -16.552900 -23.459700 -1.364400
H -16.403800 -22.909500 -3.967600
H -16.178400 -23.957400 0.532900
C -16.175700 -24.931000 5.343300
C -15.961700 -23.606900 5.007300
H -15.767800 -23.825500 -1.701500
H -15.482500 -26.389600 6.458700
C -15.365900 -25.487200 6.264200
C -14.985700 -22.858300 5.680400
H -14.862900 -21.955400 5.494900
C -14.393800 -24.817900 6.926000
C -14.182000 -23.526400 6.663500
H -13.874100 -25.256200 7.560700
H -13.515000 -23.061000 7.116100
82
Fragment
H -25.870400 -18.046600 -18.429300
H -25.511400 -15.851300 -18.873900
C -25.203500 -17.581200 -17.976800
C -24.991700 -16.289700 -18.239300
H -24.522500 -19.152100 -16.808100
C -24.399800 -18.249300 -16.993700
C -24.019600 -15.620300 -17.577400
H -23.903000 -14.717900 -17.772000
H -23.617700 -17.282000 -9.611800
C -23.423800 -17.500700 -16.320500
C -23.209800 -16.176600 -16.656500
H -23.207100 -17.150100 -11.846100
H -22.981700 -18.198000 -7.345700
C -22.832600 -17.647900 -9.948900
C -22.603600 -17.580800 -11.285000
C -22.575900 -18.213400 -15.306900
H -22.527500 -15.685500 -16.259400
H -22.355300 -16.774400 -14.030700
C -22.341500 -19.586500 -15.555800
N -22.201000 -20.693300 -15.786500
C -22.149000 -18.434300 -7.687400
C -22.068800 -17.643000 -14.200400
C -21.955200 -18.232600 -9.078900
H -21.470300 -18.912200 -5.920200
C -21.393800 -18.197100 -11.830300
C -21.277000 -18.918100 -6.829800
C -21.148700 -18.183500 -13.244500
C -20.723100 -18.813200 -9.541600
C -20.473300 -18.735000 -10.971600
C -20.067100 -19.440600 -7.277800
C -19.966100 -18.755000 -13.664200
H -19.793300 -18.771600 -14.578300
C -19.770500 -19.392700 -8.647900
H -19.464300 -19.815100 -6.677100
C -19.274100 -19.329200 -11.453600
C -19.016700 -19.305000 -12.819100
C -18.577500 -19.932400 -9.203400
C -18.341800 -19.847100 -10.542800
H -18.223500 -19.652400 -13.158500
H -17.954700 -20.344800 -8.649000
H -17.523600 -20.147700 -10.867500
H -21.861900 -20.959900 -0.445700
H -21.430800 -20.762800 -2.664300
H -21.162000 -21.455200 1.845200
C -21.043700 -21.260500 -0.770400
C -20.808000 -21.175100 -2.109900
C -20.368800 -21.802500 1.505800
C -20.111400 -21.778300 0.140300
H -19.921200 -21.292400 -4.636200
C -19.615000 -21.714800 -2.665400
H -19.592200 -22.335900 3.265000
C -19.419400 -22.352600 2.350900
C -19.318400 -21.667000 -4.035400
C -18.912200 -22.372500 -0.341700
C -18.662400 -22.294300 -1.771700
C -18.236800 -22.924000 1.931200
C -18.108500 -22.189400 -4.483500
C -17.991700 -22.910500 0.517000
H -17.915100 -22.195400 -5.393000
C -17.430300 -22.875000 -2.234400
C -17.316700 -23.464600 2.887100
C -17.236500 -22.673300 -3.625900
N -17.184500 -20.414300 4.473300
C -17.044000 -21.521100 4.242500
H -17.030200 -24.333200 2.717400
H -16.858000 -25.422100 4.946200
C -16.809600 -22.894200 3.993600
C -16.781900 -23.526800 -0.028300
C -16.552900 -23.459700 -1.364400
H -16.403800 -22.909500 -3.967600
H -16.178400 -23.957400 0.532900
C -16.175700 -24.931000 5.343300
C -15.961700 -23.606900 5.007300
H -15.767800 -23.825500 -1.701500
H -15.482500 -26.389600 6.458700
C -15.365900 -25.487200 6.264200
C -14.985700 -22.858300 5.680400
H -14.862900 -21.955400 5.494900
C -14.393800 -24.817900 6.926000
C -14.182000 -23.526400 6.663500
H -13.874100 -25.256200 7.560700
H -13.515000 -23.061000 7.116100
