20
Fragment
N -29.665500 -15.820400 -17.292400
N -29.144400 -15.710900 -21.638400
C -29.090700 -16.170800 -18.206100
C -28.850500 -16.133800 -20.604600
C -28.351300 -16.607000 -19.351200
C -27.243000 -17.370600 -19.242900
H -27.198800 -17.486400 -17.188500
H -26.820600 -17.587000 -21.243900
C -26.739100 -17.749000 -17.952400
C -26.516200 -17.824400 -20.396900
C -25.620200 -18.475500 -17.830800
C -25.428500 -18.567700 -20.293100
H -25.295000 -18.681100 -16.983800
H -24.988800 -18.852700 -21.061400
C -24.915700 -18.939900 -18.996700
C -23.773600 -19.665500 -18.842400
C -23.273600 -20.009100 -17.584600
C -23.042300 -20.145400 -20.012700
N -22.879900 -20.299400 -16.565500
N -22.462600 -20.554700 -20.877500
48
Fragment
H -27.879300 -12.840100 -18.602100
H -27.636900 -13.103600 -16.351900
C -27.159500 -13.327300 -18.269900
C -27.012700 -13.480200 -16.928900
H -26.350000 -13.768000 -20.060200
C -26.252000 -13.887400 -19.143500
C -25.960800 -14.179200 -16.418700
H -25.877800 -14.277300 -15.497600
C -25.175500 -14.639000 -18.639200
C -24.994200 -14.755000 -17.268600
H -24.367400 -15.090600 -20.438400
C -24.248800 -15.213200 -19.523200
C -23.866100 -15.482100 -16.828100
H -23.707400 -15.560100 -15.915900
H -23.589800 -16.309000 -26.198100
H -23.445900 -16.286600 -23.952400
C -23.182300 -15.945100 -19.094600
H -23.028900 -15.897900 -21.779400
C -23.008200 -16.067900 -17.695800
C -22.877400 -16.736200 -25.779800
C -22.778800 -16.723100 -24.431500
H -22.733300 -17.079000 -28.374100
C -22.414300 -16.503700 -21.433700
H -22.290900 -16.561000 -17.368000
C -22.246200 -16.617400 -19.968200
C -22.009800 -17.477600 -27.945400
C -21.932000 -17.377500 -26.527400
C -21.739300 -17.322700 -23.706200
C -21.691600 -17.260700 -22.265900
O -21.341700 -17.316500 -19.495100
H -21.164500 -18.102600 -29.629000
C -21.094000 -18.117200 -28.701900
H -21.074800 -17.826300 -21.860900
C -20.838500 -18.033000 -25.874800
C -20.756900 -17.992300 -24.450800
C -20.044600 -18.798300 -28.092300
C -19.881200 -18.713300 -26.689100
C -19.630900 -18.690100 -23.854500
H -19.541200 -18.708900 -22.928900
H -19.127100 -19.539900 -29.725400
C -19.085300 -19.511500 -28.796900
C -18.815900 -19.393700 -26.055700
C -18.710800 -19.312600 -24.624300
C -18.079800 -20.174900 -28.148700
H -17.976500 -19.705600 -24.209000
C -17.941100 -20.087300 -26.795900
H -17.482700 -20.692100 -28.638200
H -17.228700 -20.517100 -26.380600
68
Fragment
N -29.665500 -15.820400 -17.292400
N -29.144400 -15.710900 -21.638400
C -29.090700 -16.170800 -18.206100
C -28.850500 -16.133800 -20.604600
C -28.351300 -16.607000 -19.351200
C -27.243000 -17.370600 -19.242900
H -27.198800 -17.486400 -17.188500
H -26.820600 -17.587000 -21.243900
C -26.739100 -17.749000 -17.952400
C -26.516200 -17.824400 -20.396900
C -25.620200 -18.475500 -17.830800
C -25.428500 -18.567700 -20.293100
H -25.295000 -18.681100 -16.983800
H -24.988800 -18.852700 -21.061400
C -24.915700 -18.939900 -18.996700
C -23.773600 -19.665500 -18.842400
C -23.273600 -20.009100 -17.584600
C -23.042300 -20.145400 -20.012700
N -22.879900 -20.299400 -16.565500
N -22.462600 -20.554700 -20.877500
H -27.879300 -12.840100 -18.602100
H -27.636900 -13.103600 -16.351900
C -27.159500 -13.327300 -18.269900
C -27.012700 -13.480200 -16.928900
H -26.350000 -13.768000 -20.060200
C -26.252000 -13.887400 -19.143500
C -25.960800 -14.179200 -16.418700
H -25.877800 -14.277300 -15.497600
C -25.175500 -14.639000 -18.639200
C -24.994200 -14.755000 -17.268600
H -24.367400 -15.090600 -20.438400
C -24.248800 -15.213200 -19.523200
C -23.866100 -15.482100 -16.828100
H -23.707400 -15.560100 -15.915900
H -23.589800 -16.309000 -26.198100
H -23.445900 -16.286600 -23.952400
C -23.182300 -15.945100 -19.094600
H -23.028900 -15.897900 -21.779400
C -23.008200 -16.067900 -17.695800
C -22.877400 -16.736200 -25.779800
C -22.778800 -16.723100 -24.431500
H -22.733300 -17.079000 -28.374100
C -22.414300 -16.503700 -21.433700
H -22.290900 -16.561000 -17.368000
C -22.246200 -16.617400 -19.968200
C -22.009800 -17.477600 -27.945400
C -21.932000 -17.377500 -26.527400
C -21.739300 -17.322700 -23.706200
C -21.691600 -17.260700 -22.265900
O -21.341700 -17.316500 -19.495100
H -21.164500 -18.102600 -29.629000
C -21.094000 -18.117200 -28.701900
H -21.074800 -17.826300 -21.860900
C -20.838500 -18.033000 -25.874800
C -20.756900 -17.992300 -24.450800
C -20.044600 -18.798300 -28.092300
C -19.881200 -18.713300 -26.689100
C -19.630900 -18.690100 -23.854500
H -19.541200 -18.708900 -22.928900
H -19.127100 -19.539900 -29.725400
C -19.085300 -19.511500 -28.796900
C -18.815900 -19.393700 -26.055700
C -18.710800 -19.312600 -24.624300
C -18.079800 -20.174900 -28.148700
H -17.976500 -19.705600 -24.209000
C -17.941100 -20.087300 -26.795900
H -17.482700 -20.692100 -28.638200
H -17.228700 -20.517100 -26.380600
