20
Fragment
N -29.665500 -15.820400 -17.292400
N -29.144400 -15.710900 -21.638400
C -29.090700 -16.170800 -18.206100
C -28.850500 -16.133800 -20.604600
C -28.351300 -16.607000 -19.351200
C -27.243000 -17.370600 -19.242900
H -27.198800 -17.486400 -17.188500
H -26.820600 -17.587000 -21.243900
C -26.739100 -17.749000 -17.952400
C -26.516200 -17.824400 -20.396900
C -25.620200 -18.475500 -17.830800
C -25.428500 -18.567700 -20.293100
H -25.295000 -18.681100 -16.983800
H -24.988800 -18.852700 -21.061400
C -24.915700 -18.939900 -18.996700
C -23.773600 -19.665500 -18.842400
C -23.273600 -20.009100 -17.584600
C -23.042300 -20.145400 -20.012700
N -22.879900 -20.299400 -16.565500
N -22.462600 -20.554700 -20.877500
48
Fragment
H -36.929700 -9.316600 -3.769100
H -36.687200 -9.580100 -1.518900
C -36.209900 -9.803800 -3.436800
C -36.063000 -9.956700 -2.095900
H -35.400300 -10.244500 -5.227200
C -35.302300 -10.364000 -4.310500
C -35.011200 -10.655700 -1.585700
H -34.928200 -10.753800 -0.664500
C -34.225900 -11.115600 -3.806200
C -34.044600 -11.231500 -2.435600
H -33.417700 -11.567100 -5.605400
C -33.299200 -11.689800 -4.690200
C -32.916400 -11.958600 -1.995000
H -32.757800 -12.036600 -1.082800
H -32.640200 -12.785500 -11.365100
H -32.496300 -12.763100 -9.119400
C -32.232600 -12.421700 -4.261500
H -32.079300 -12.374500 -6.946300
C -32.058600 -12.544400 -2.862800
C -31.927700 -13.212700 -10.946800
C -31.829200 -13.199600 -9.598500
H -31.783700 -13.555500 -13.541100
C -31.464700 -12.980200 -6.600700
H -31.341300 -13.037500 -2.535000
C -31.296600 -13.093900 -5.135200
C -31.060200 -13.954100 -13.112400
C -30.982400 -13.854000 -11.694400
C -30.789600 -13.799200 -8.873100
C -30.742000 -13.737200 -7.432800
O -30.392100 -13.793000 -4.662000
H -30.214900 -14.579100 -14.796000
C -30.144400 -14.593700 -13.868900
H -30.125200 -14.302800 -7.027900
C -29.888800 -14.509500 -11.041700
C -29.807300 -14.468800 -9.617700
C -29.095000 -15.274900 -13.259300
C -28.931500 -15.189800 -11.856000
C -28.681200 -15.166700 -9.021500
H -28.591500 -15.185400 -8.095900
H -28.177500 -16.016400 -14.892400
C -28.135700 -15.988100 -13.963800
C -27.866300 -15.870200 -11.222700
C -27.761200 -15.789100 -9.791300
C -27.130200 -16.651400 -13.315600
H -27.026800 -16.182200 -9.376000
C -26.991500 -16.563800 -11.962800
H -26.533100 -17.168600 -13.805100
H -26.279100 -16.993600 -11.547500
68
Fragment
N -29.665500 -15.820400 -17.292400
N -29.144400 -15.710900 -21.638400
C -29.090700 -16.170800 -18.206100
C -28.850500 -16.133800 -20.604600
C -28.351300 -16.607000 -19.351200
C -27.243000 -17.370600 -19.242900
H -27.198800 -17.486400 -17.188500
H -26.820600 -17.587000 -21.243900
C -26.739100 -17.749000 -17.952400
C -26.516200 -17.824400 -20.396900
C -25.620200 -18.475500 -17.830800
C -25.428500 -18.567700 -20.293100
H -25.295000 -18.681100 -16.983800
H -24.988800 -18.852700 -21.061400
C -24.915700 -18.939900 -18.996700
C -23.773600 -19.665500 -18.842400
C -23.273600 -20.009100 -17.584600
C -23.042300 -20.145400 -20.012700
N -22.879900 -20.299400 -16.565500
N -22.462600 -20.554700 -20.877500
H -36.929700 -9.316600 -3.769100
H -36.687200 -9.580100 -1.518900
C -36.209900 -9.803800 -3.436800
C -36.063000 -9.956700 -2.095900
H -35.400300 -10.244500 -5.227200
C -35.302300 -10.364000 -4.310500
C -35.011200 -10.655700 -1.585700
H -34.928200 -10.753800 -0.664500
C -34.225900 -11.115600 -3.806200
C -34.044600 -11.231500 -2.435600
H -33.417700 -11.567100 -5.605400
C -33.299200 -11.689800 -4.690200
C -32.916400 -11.958600 -1.995000
H -32.757800 -12.036600 -1.082800
H -32.640200 -12.785500 -11.365100
H -32.496300 -12.763100 -9.119400
C -32.232600 -12.421700 -4.261500
H -32.079300 -12.374500 -6.946300
C -32.058600 -12.544400 -2.862800
C -31.927700 -13.212700 -10.946800
C -31.829200 -13.199600 -9.598500
H -31.783700 -13.555500 -13.541100
C -31.464700 -12.980200 -6.600700
H -31.341300 -13.037500 -2.535000
C -31.296600 -13.093900 -5.135200
C -31.060200 -13.954100 -13.112400
C -30.982400 -13.854000 -11.694400
C -30.789600 -13.799200 -8.873100
C -30.742000 -13.737200 -7.432800
O -30.392100 -13.793000 -4.662000
H -30.214900 -14.579100 -14.796000
C -30.144400 -14.593700 -13.868900
H -30.125200 -14.302800 -7.027900
C -29.888800 -14.509500 -11.041700
C -29.807300 -14.468800 -9.617700
C -29.095000 -15.274900 -13.259300
C -28.931500 -15.189800 -11.856000
C -28.681200 -15.166700 -9.021500
H -28.591500 -15.185400 -8.095900
H -28.177500 -16.016400 -14.892400
C -28.135700 -15.988100 -13.963800
C -27.866300 -15.870200 -11.222700
C -27.761200 -15.789100 -9.791300
C -27.130200 -16.651400 -13.315600
H -27.026800 -16.182200 -9.376000
C -26.991500 -16.563800 -11.962800
H -26.533100 -17.168600 -13.805100
H -26.279100 -16.993600 -11.547500
