41
Fragment
H -25.870400 -18.046600 -18.429300
H -25.511400 -15.851300 -18.873900
C -25.203500 -17.581200 -17.976800
C -24.991700 -16.289700 -18.239300
H -24.522500 -19.152100 -16.808100
C -24.399800 -18.249300 -16.993700
C -24.019600 -15.620300 -17.577400
H -23.903000 -14.717900 -17.772000
H -23.617700 -17.282000 -9.611800
C -23.423800 -17.500700 -16.320500
C -23.209800 -16.176600 -16.656500
H -23.207100 -17.150100 -11.846100
H -22.981700 -18.198000 -7.345700
C -22.832600 -17.647900 -9.948900
C -22.603600 -17.580800 -11.285000
C -22.575900 -18.213400 -15.306900
H -22.527500 -15.685500 -16.259400
H -22.355300 -16.774400 -14.030700
C -22.341500 -19.586500 -15.555800
N -22.201000 -20.693300 -15.786500
C -22.149000 -18.434300 -7.687400
C -22.068800 -17.643000 -14.200400
C -21.955200 -18.232600 -9.078900
H -21.470300 -18.912200 -5.920200
C -21.393800 -18.197100 -11.830300
C -21.277000 -18.918100 -6.829800
C -21.148700 -18.183500 -13.244500
C -20.723100 -18.813200 -9.541600
C -20.473300 -18.735000 -10.971600
C -20.067100 -19.440600 -7.277800
C -19.966100 -18.755000 -13.664200
H -19.793300 -18.771600 -14.578300
C -19.770500 -19.392700 -8.647900
H -19.464300 -19.815100 -6.677100
C -19.274100 -19.329200 -11.453600
C -19.016700 -19.305000 -12.819100
C -18.577500 -19.932400 -9.203400
C -18.341800 -19.847100 -10.542800
H -18.223500 -19.652400 -13.158500
H -17.954700 -20.344800 -8.649000
H -17.523600 -20.147700 -10.867500
41
Fragment
H -29.385000 -20.970000 -29.742600
H -29.026000 -18.774800 -30.187200
C -28.718000 -20.504700 -29.290100
C -28.506200 -19.213100 -29.552500
H -28.037100 -22.075600 -28.121400
C -27.914300 -21.172800 -28.306900
C -27.534100 -18.543800 -28.890700
H -27.417500 -17.641400 -29.085300
H -27.132200 -20.205500 -20.925000
C -26.938300 -20.424200 -27.633800
C -26.724300 -19.100100 -27.969800
H -26.721600 -20.073600 -23.159400
H -26.496200 -21.121500 -18.659000
C -26.347100 -20.571400 -21.262200
C -26.118200 -20.504200 -22.598300
C -26.090500 -21.136900 -26.620100
H -26.042000 -18.608900 -27.572700
H -25.869900 -19.697800 -25.344000
C -25.856100 -22.509900 -26.869000
N -25.715500 -23.616800 -27.099800
C -25.663500 -21.357800 -19.000600
C -25.583400 -20.566500 -25.513700
C -25.469700 -21.156000 -20.392200
H -24.984900 -21.835700 -17.233500
C -24.908300 -21.120500 -23.143600
C -24.791500 -21.841600 -18.143100
C -24.663200 -21.107000 -24.557700
C -24.237600 -21.736700 -20.854900
C -23.987800 -21.658500 -22.284900
C -23.581600 -22.364000 -18.591100
C -23.480600 -21.678400 -24.977500
H -23.307900 -21.695100 -25.891600
C -23.285000 -22.316200 -19.961100
H -22.978800 -22.738600 -17.990400
C -22.788600 -22.252700 -22.766800
C -22.531200 -22.228500 -24.132300
C -22.092000 -22.855900 -20.516600
C -21.856300 -22.770500 -21.856100
H -21.738000 -22.575900 -24.471700
H -21.469200 -23.268200 -19.962300
H -21.038100 -23.071100 -22.180800
82
Fragment
H -25.870400 -18.046600 -18.429300
H -25.511400 -15.851300 -18.873900
C -25.203500 -17.581200 -17.976800
C -24.991700 -16.289700 -18.239300
H -24.522500 -19.152100 -16.808100
C -24.399800 -18.249300 -16.993700
C -24.019600 -15.620300 -17.577400
H -23.903000 -14.717900 -17.772000
H -23.617700 -17.282000 -9.611800
C -23.423800 -17.500700 -16.320500
C -23.209800 -16.176600 -16.656500
H -23.207100 -17.150100 -11.846100
H -22.981700 -18.198000 -7.345700
C -22.832600 -17.647900 -9.948900
C -22.603600 -17.580800 -11.285000
C -22.575900 -18.213400 -15.306900
H -22.527500 -15.685500 -16.259400
H -22.355300 -16.774400 -14.030700
C -22.341500 -19.586500 -15.555800
N -22.201000 -20.693300 -15.786500
C -22.149000 -18.434300 -7.687400
C -22.068800 -17.643000 -14.200400
C -21.955200 -18.232600 -9.078900
H -21.470300 -18.912200 -5.920200
C -21.393800 -18.197100 -11.830300
C -21.277000 -18.918100 -6.829800
C -21.148700 -18.183500 -13.244500
C -20.723100 -18.813200 -9.541600
C -20.473300 -18.735000 -10.971600
C -20.067100 -19.440600 -7.277800
C -19.966100 -18.755000 -13.664200
H -19.793300 -18.771600 -14.578300
C -19.770500 -19.392700 -8.647900
H -19.464300 -19.815100 -6.677100
C -19.274100 -19.329200 -11.453600
C -19.016700 -19.305000 -12.819100
C -18.577500 -19.932400 -9.203400
C -18.341800 -19.847100 -10.542800
H -18.223500 -19.652400 -13.158500
H -17.954700 -20.344800 -8.649000
H -17.523600 -20.147700 -10.867500
H -29.385000 -20.970000 -29.742600
H -29.026000 -18.774800 -30.187200
C -28.718000 -20.504700 -29.290100
C -28.506200 -19.213100 -29.552500
H -28.037100 -22.075600 -28.121400
C -27.914300 -21.172800 -28.306900
C -27.534100 -18.543800 -28.890700
H -27.417500 -17.641400 -29.085300
H -27.132200 -20.205500 -20.925000
C -26.938300 -20.424200 -27.633800
C -26.724300 -19.100100 -27.969800
H -26.721600 -20.073600 -23.159400
H -26.496200 -21.121500 -18.659000
C -26.347100 -20.571400 -21.262200
C -26.118200 -20.504200 -22.598300
C -26.090500 -21.136900 -26.620100
H -26.042000 -18.608900 -27.572700
H -25.869900 -19.697800 -25.344000
C -25.856100 -22.509900 -26.869000
N -25.715500 -23.616800 -27.099800
C -25.663500 -21.357800 -19.000600
C -25.583400 -20.566500 -25.513700
C -25.469700 -21.156000 -20.392200
H -24.984900 -21.835700 -17.233500
C -24.908300 -21.120500 -23.143600
C -24.791500 -21.841600 -18.143100
C -24.663200 -21.107000 -24.557700
C -24.237600 -21.736700 -20.854900
C -23.987800 -21.658500 -22.284900
C -23.581600 -22.364000 -18.591100
C -23.480600 -21.678400 -24.977500
H -23.307900 -21.695100 -25.891600
C -23.285000 -22.316200 -19.961100
H -22.978800 -22.738600 -17.990400
C -22.788600 -22.252700 -22.766800
C -22.531200 -22.228500 -24.132300
C -22.092000 -22.855900 -20.516600
C -21.856300 -22.770500 -21.856100
H -21.738000 -22.575900 -24.471700
H -21.469200 -23.268200 -19.962300
H -21.038100 -23.071100 -22.180800
