21
Fragment
H -22.231500 -11.588800 -18.640400
H -21.995400 -10.749900 -16.406700
C -21.355400 -11.526200 -18.197400
C -21.229800 -11.058400 -16.909800
H -20.277800 -12.285600 -19.732400
C -20.229100 -11.945700 -18.872100
C -19.981300 -11.022200 -16.339000
H -19.838200 -10.721400 -15.388600
C -19.006200 -11.883300 -18.219800
N -18.875300 -11.430100 -16.963200
O -17.777800 -12.681200 -20.164800
C -17.759600 -12.321800 -18.842800
H -16.744100 -13.423100 -22.215900
N -16.601600 -12.443100 -18.318700
C -16.482500 -13.035000 -20.395400
N -16.158900 -13.441600 -21.598800
N -15.742700 -12.915100 -19.327500
C -14.801100 -13.763700 -21.957200
H -14.746200 -14.055900 -22.846600
H -14.414500 -14.397100 -21.495900
H -14.173400 -13.017900 -21.801800
21
Fragment
H -20.864700 -8.311200 -16.424600
H -20.623600 -6.932000 -16.730400
H -20.291800 -7.273200 -15.379700
C -20.236900 -7.565400 -16.269100
N -19.295400 -8.414000 -18.898800
N -18.879200 -7.887500 -16.627600
C -18.555500 -8.294100 -17.830900
N -18.436400 -8.886000 -19.907600
H -18.293900 -7.906000 -16.010500
C -17.278500 -9.007300 -19.383600
O -17.260300 -8.647900 -18.061600
N -16.162700 -9.899000 -21.263100
C -16.031900 -9.445800 -20.006500
H -15.199900 -10.607700 -22.837700
C -15.056700 -10.306900 -21.887400
C -14.808900 -9.383400 -19.354200
H -14.760200 -9.043500 -18.493900
C -13.808200 -10.270700 -21.316500
C -13.682600 -9.802900 -20.028900
H -13.042600 -10.579200 -21.819600
H -12.806500 -9.740300 -19.585900
42
Fragment
H -22.231500 -11.588800 -18.640400
H -21.995400 -10.749900 -16.406700
C -21.355400 -11.526200 -18.197400
C -21.229800 -11.058400 -16.909800
H -20.277800 -12.285600 -19.732400
C -20.229100 -11.945700 -18.872100
C -19.981300 -11.022200 -16.339000
H -19.838200 -10.721400 -15.388600
C -19.006200 -11.883300 -18.219800
N -18.875300 -11.430100 -16.963200
O -17.777800 -12.681200 -20.164800
C -17.759600 -12.321800 -18.842800
H -16.744100 -13.423100 -22.215900
N -16.601600 -12.443100 -18.318700
C -16.482500 -13.035000 -20.395400
N -16.158900 -13.441600 -21.598800
N -15.742700 -12.915100 -19.327500
C -14.801100 -13.763700 -21.957200
H -14.746200 -14.055900 -22.846600
H -14.414500 -14.397100 -21.495900
H -14.173400 -13.017900 -21.801800
H -20.864700 -8.311200 -16.424600
H -20.623600 -6.932000 -16.730400
H -20.291800 -7.273200 -15.379700
C -20.236900 -7.565400 -16.269100
N -19.295400 -8.414000 -18.898800
N -18.879200 -7.887500 -16.627600
C -18.555500 -8.294100 -17.830900
N -18.436400 -8.886000 -19.907600
H -18.293900 -7.906000 -16.010500
C -17.278500 -9.007300 -19.383600
O -17.260300 -8.647900 -18.061600
N -16.162700 -9.899000 -21.263100
C -16.031900 -9.445800 -20.006500
H -15.199900 -10.607700 -22.837700
C -15.056700 -10.306900 -21.887400
C -14.808900 -9.383400 -19.354200
H -14.760200 -9.043500 -18.493900
C -13.808200 -10.270700 -21.316500
C -13.682600 -9.802900 -20.028900
H -13.042600 -10.579200 -21.819600
H -12.806500 -9.740300 -19.585900
