21
Fragment
H -22.231500 -11.588800 -18.640400
H -21.995400 -10.749900 -16.406700
C -21.355400 -11.526200 -18.197400
C -21.229800 -11.058400 -16.909800
H -20.277800 -12.285600 -19.732400
C -20.229100 -11.945700 -18.872100
C -19.981300 -11.022200 -16.339000
H -19.838200 -10.721400 -15.388600
C -19.006200 -11.883300 -18.219800
N -18.875300 -11.430100 -16.963200
O -17.777800 -12.681200 -20.164800
C -17.759600 -12.321800 -18.842800
H -16.744100 -13.423100 -22.215900
N -16.601600 -12.443100 -18.318700
C -16.482500 -13.035000 -20.395400
N -16.158900 -13.441600 -21.598800
N -15.742700 -12.915100 -19.327500
C -14.801100 -13.763700 -21.957200
H -14.746200 -14.055900 -22.846600
H -14.414500 -14.397100 -21.495900
H -14.173400 -13.017900 -21.801800
3
Fragment
H -24.231300 -13.224000 -20.043300
O -23.550600 -13.209100 -20.694700
H -22.933500 -14.013200 -20.374600
24
Fragment
H -22.231500 -11.588800 -18.640400
H -21.995400 -10.749900 -16.406700
C -21.355400 -11.526200 -18.197400
C -21.229800 -11.058400 -16.909800
H -20.277800 -12.285600 -19.732400
C -20.229100 -11.945700 -18.872100
C -19.981300 -11.022200 -16.339000
H -19.838200 -10.721400 -15.388600
C -19.006200 -11.883300 -18.219800
N -18.875300 -11.430100 -16.963200
O -17.777800 -12.681200 -20.164800
C -17.759600 -12.321800 -18.842800
H -16.744100 -13.423100 -22.215900
N -16.601600 -12.443100 -18.318700
C -16.482500 -13.035000 -20.395400
N -16.158900 -13.441600 -21.598800
N -15.742700 -12.915100 -19.327500
C -14.801100 -13.763700 -21.957200
H -14.746200 -14.055900 -22.846600
H -14.414500 -14.397100 -21.495900
H -14.173400 -13.017900 -21.801800
H -24.231300 -13.224000 -20.043300
O -23.550600 -13.209100 -20.694700
H -22.933500 -14.013200 -20.374600
