37
Fragment
H -41.342600 -19.047200 -28.044400
H -40.662000 -20.435800 -27.632700
C -40.494200 -19.531400 -27.972200
H -40.394500 -16.943300 -27.331400
H -40.072800 -19.587500 -28.855700
C -39.727600 -17.414100 -26.845400
H -39.664700 -14.876600 -26.408400
C -39.586300 -18.807000 -27.033700
H -39.266500 -15.054300 -24.869200
C -39.001900 -15.251400 -25.791800
C -38.925800 -16.731300 -25.982800
N -38.650300 -19.512500 -26.404700
H -38.124500 -14.853200 -25.972500
N -37.999300 -17.479900 -25.292700
C -37.876500 -18.851200 -25.537300
H -37.832100 -13.701100 -23.101300
H -37.697400 -11.626000 -22.066600
C -37.057300 -13.471200 -22.602800
C -37.026200 -17.174000 -24.332800
C -36.978300 -12.240100 -21.978100
N -36.949000 -15.907400 -23.840600
N -36.894400 -19.390300 -24.799500
C -36.363900 -18.387200 -24.074400
C -35.996100 -14.382700 -22.501900
N -35.986900 -15.695400 -23.025400
C -35.866100 -11.880300 -21.221800
H -35.831100 -11.031000 -20.796500
H -35.443300 -18.243500 -22.265800
C -35.231000 -18.624100 -23.143100
H -35.078200 -19.588600 -23.052800
C -34.892400 -13.992200 -21.748700
C -34.814100 -12.767700 -21.094000
H -34.422400 -18.196800 -23.496800
H -34.054400 -12.546700 -20.569100
N -33.765000 -14.911700 -21.590100
O -33.463000 -15.190700 -20.473600
O -33.139300 -15.235400 -22.557700
37
Fragment
O -41.136500 -20.267900 -31.260000
O -40.812800 -20.312600 -33.344100
N -40.510800 -20.591600 -32.227700
H -40.221400 -22.956600 -33.248600
H -39.853400 -17.306500 -30.320900
C -39.461700 -22.735600 -32.723800
C -39.383400 -21.511100 -32.069100
H -39.197500 -15.914700 -30.764900
C -39.044700 -16.879200 -30.674600
H -38.832500 -17.259800 -31.552000
H -38.444700 -24.472300 -33.021200
C -38.409700 -23.623000 -32.595900
N -38.288900 -19.807900 -30.792400
C -38.279700 -21.120600 -31.315900
C -37.911900 -17.116100 -29.743300
N -37.381400 -16.113000 -29.018300
N -37.326800 -19.595900 -29.977200
C -37.297400 -23.263200 -31.839700
C -37.249600 -18.329300 -29.485000
C -37.218500 -22.032200 -31.215000
H -36.578400 -23.877300 -31.751100
H -36.443700 -21.802200 -30.716500
C -36.399300 -16.652100 -28.280400
N -36.276500 -18.023400 -28.525000
H -36.151300 -20.650100 -27.845300
N -35.625500 -15.990800 -27.413000
C -35.350000 -18.772000 -27.835000
C -35.273800 -20.251900 -28.026000
H -35.009200 -20.449000 -28.948600
C -34.689500 -16.696300 -26.784000
H -34.611100 -20.626700 -27.409400
C -34.548200 -18.089300 -26.972400
H -34.203000 -15.915800 -24.962000
H -33.881300 -18.560000 -26.486400
C -33.781600 -15.971900 -25.845600
H -33.613700 -15.067500 -26.185000
H -32.933200 -16.456100 -25.773300
74
Fragment
H -41.342600 -19.047200 -28.044400
H -40.662000 -20.435800 -27.632700
C -40.494200 -19.531400 -27.972200
H -40.394500 -16.943300 -27.331400
H -40.072800 -19.587500 -28.855700
C -39.727600 -17.414100 -26.845400
H -39.664700 -14.876600 -26.408400
C -39.586300 -18.807000 -27.033700
H -39.266500 -15.054300 -24.869200
C -39.001900 -15.251400 -25.791800
C -38.925800 -16.731300 -25.982800
N -38.650300 -19.512500 -26.404700
H -38.124500 -14.853200 -25.972500
N -37.999300 -17.479900 -25.292700
C -37.876500 -18.851200 -25.537300
H -37.832100 -13.701100 -23.101300
H -37.697400 -11.626000 -22.066600
C -37.057300 -13.471200 -22.602800
C -37.026200 -17.174000 -24.332800
C -36.978300 -12.240100 -21.978100
N -36.949000 -15.907400 -23.840600
N -36.894400 -19.390300 -24.799500
C -36.363900 -18.387200 -24.074400
C -35.996100 -14.382700 -22.501900
N -35.986900 -15.695400 -23.025400
C -35.866100 -11.880300 -21.221800
H -35.831100 -11.031000 -20.796500
H -35.443300 -18.243500 -22.265800
C -35.231000 -18.624100 -23.143100
H -35.078200 -19.588600 -23.052800
C -34.892400 -13.992200 -21.748700
C -34.814100 -12.767700 -21.094000
H -34.422400 -18.196800 -23.496800
H -34.054400 -12.546700 -20.569100
N -33.765000 -14.911700 -21.590100
O -33.463000 -15.190700 -20.473600
O -33.139300 -15.235400 -22.557700
O -41.136500 -20.267900 -31.260000
O -40.812800 -20.312600 -33.344100
N -40.510800 -20.591600 -32.227700
H -40.221400 -22.956600 -33.248600
H -39.853400 -17.306500 -30.320900
C -39.461700 -22.735600 -32.723800
C -39.383400 -21.511100 -32.069100
H -39.197500 -15.914700 -30.764900
C -39.044700 -16.879200 -30.674600
H -38.832500 -17.259800 -31.552000
H -38.444700 -24.472300 -33.021200
C -38.409700 -23.623000 -32.595900
N -38.288900 -19.807900 -30.792400
C -38.279700 -21.120600 -31.315900
C -37.911900 -17.116100 -29.743300
N -37.381400 -16.113000 -29.018300
N -37.326800 -19.595900 -29.977200
C -37.297400 -23.263200 -31.839700
C -37.249600 -18.329300 -29.485000
C -37.218500 -22.032200 -31.215000
H -36.578400 -23.877300 -31.751100
H -36.443700 -21.802200 -30.716500
C -36.399300 -16.652100 -28.280400
N -36.276500 -18.023400 -28.525000
H -36.151300 -20.650100 -27.845300
N -35.625500 -15.990800 -27.413000
C -35.350000 -18.772000 -27.835000
C -35.273800 -20.251900 -28.026000
H -35.009200 -20.449000 -28.948600
C -34.689500 -16.696300 -26.784000
H -34.611100 -20.626700 -27.409400
C -34.548200 -18.089300 -26.972400
H -34.203000 -15.915800 -24.962000
H -33.881300 -18.560000 -26.486400
C -33.781600 -15.971900 -25.845600
H -33.613700 -15.067500 -26.185000
H -32.933200 -16.456100 -25.773300
