9
Fragment
O -43.341000 -12.649700 -23.182400
H -42.386200 -10.223500 -23.564500
C -42.217300 -12.172300 -23.020100
H -41.831800 -11.129300 -24.719500
C -41.795200 -10.950800 -23.776900
H -41.595500 -13.440000 -21.758900
N -41.339300 -12.716900 -22.195500
H -40.896300 -10.716300 -23.530500
H -40.590400 -12.306000 -22.083400
37
Fragment
H -40.235900 -13.881700 -24.911300
H -39.330600 -15.886500 -24.231300
C -39.319300 -14.070700 -25.122300
H -39.260000 -14.412300 -26.017700
H -38.872600 -14.740600 -23.266500
H -38.802000 -13.265700 -25.052900
C -38.789700 -15.084300 -24.170800
H -38.494000 -17.806600 -25.013100
H -37.665600 -16.042600 -26.315700
C -37.559300 -17.779300 -25.232900
H -37.392100 -18.335800 -25.997000
N -37.383100 -15.437800 -24.420100
C -37.156300 -16.352700 -25.550100
H -37.046600 -18.098500 -24.486500
O -36.682300 -13.877500 -22.941800
C -36.428400 -14.802900 -23.728200
H -36.218200 -16.333800 -25.789000
C -34.987800 -15.234100 -23.844800
C -34.665700 -16.627100 -23.973100
N -34.431200 -17.740100 -24.043900
H -34.354400 -13.430200 -23.604300
C -34.036800 -14.299600 -23.691300
C -32.585100 -14.429800 -23.639700
H -32.324300 -16.242100 -24.487900
H -32.311300 -12.590900 -22.813600
C -31.877400 -15.540700 -24.070500
C -31.859200 -13.363700 -23.064400
C -30.508300 -15.607200 -23.880200
C -30.504600 -13.437200 -22.863800
O -30.501100 -17.711400 -24.834600
H -30.279300 -11.846100 -22.037700
N -29.844300 -16.829400 -24.315300
C -29.783200 -14.581000 -23.268000
O -29.781300 -12.462800 -22.250500
O -28.631800 -16.941400 -24.120600
O -28.459300 -14.578200 -23.020100
H -28.249500 -13.872600 -22.658700
46
Fragment
O -43.341000 -12.649700 -23.182400
H -42.386200 -10.223500 -23.564500
C -42.217300 -12.172300 -23.020100
H -41.831800 -11.129300 -24.719500
C -41.795200 -10.950800 -23.776900
H -41.595500 -13.440000 -21.758900
N -41.339300 -12.716900 -22.195500
H -40.896300 -10.716300 -23.530500
H -40.590400 -12.306000 -22.083400
H -40.235900 -13.881700 -24.911300
H -39.330600 -15.886500 -24.231300
C -39.319300 -14.070700 -25.122300
H -39.260000 -14.412300 -26.017700
H -38.872600 -14.740600 -23.266500
H -38.802000 -13.265700 -25.052900
C -38.789700 -15.084300 -24.170800
H -38.494000 -17.806600 -25.013100
H -37.665600 -16.042600 -26.315700
C -37.559300 -17.779300 -25.232900
H -37.392100 -18.335800 -25.997000
N -37.383100 -15.437800 -24.420100
C -37.156300 -16.352700 -25.550100
H -37.046600 -18.098500 -24.486500
O -36.682300 -13.877500 -22.941800
C -36.428400 -14.802900 -23.728200
H -36.218200 -16.333800 -25.789000
C -34.987800 -15.234100 -23.844800
C -34.665700 -16.627100 -23.973100
N -34.431200 -17.740100 -24.043900
H -34.354400 -13.430200 -23.604300
C -34.036800 -14.299600 -23.691300
C -32.585100 -14.429800 -23.639700
H -32.324300 -16.242100 -24.487900
H -32.311300 -12.590900 -22.813600
C -31.877400 -15.540700 -24.070500
C -31.859200 -13.363700 -23.064400
C -30.508300 -15.607200 -23.880200
C -30.504600 -13.437200 -22.863800
O -30.501100 -17.711400 -24.834600
H -30.279300 -11.846100 -22.037700
N -29.844300 -16.829400 -24.315300
C -29.783200 -14.581000 -23.268000
O -29.781300 -12.462800 -22.250500
O -28.631800 -16.941400 -24.120600
O -28.459300 -14.578200 -23.020100
H -28.249500 -13.872600 -22.658700
