9
Fragment
O -43.341000 -12.649700 -23.182400
H -42.386200 -10.223500 -23.564500
C -42.217300 -12.172300 -23.020100
H -41.831800 -11.129300 -24.719500
C -41.795200 -10.950800 -23.776900
H -41.595500 -13.440000 -21.758900
N -41.339300 -12.716900 -22.195500
H -40.896300 -10.716300 -23.530500
H -40.590400 -12.306000 -22.083400
9
Fragment
H -41.798800 -12.306000 -29.547800
H -41.492900 -10.716300 -28.100600
N -41.049900 -12.716900 -29.435700
H -40.793700 -13.440000 -29.872300
C -40.594000 -10.950800 -27.854300
H -40.557400 -11.129300 -26.911700
C -40.171900 -12.172300 -28.611100
H -40.003000 -10.223500 -28.066700
O -39.048200 -12.649700 -28.448800
18
Fragment
O -43.341000 -12.649700 -23.182400
H -42.386200 -10.223500 -23.564500
C -42.217300 -12.172300 -23.020100
H -41.831800 -11.129300 -24.719500
C -41.795200 -10.950800 -23.776900
H -41.595500 -13.440000 -21.758900
N -41.339300 -12.716900 -22.195500
H -40.896300 -10.716300 -23.530500
H -40.590400 -12.306000 -22.083400
H -41.798800 -12.306000 -29.547800
H -41.492900 -10.716300 -28.100600
N -41.049900 -12.716900 -29.435700
H -40.793700 -13.440000 -29.872300
C -40.594000 -10.950800 -27.854300
H -40.557400 -11.129300 -26.911700
C -40.171900 -12.172300 -28.611100
H -40.003000 -10.223500 -28.066700
O -39.048200 -12.649700 -28.448800
