37
Fragment
H -41.342600 -19.047200 -28.044400
H -40.662000 -20.435800 -27.632700
C -40.494200 -19.531400 -27.972200
H -40.394500 -16.943300 -27.331400
H -40.072800 -19.587500 -28.855700
C -39.727600 -17.414100 -26.845400
H -39.664700 -14.876600 -26.408400
C -39.586300 -18.807000 -27.033700
H -39.266500 -15.054300 -24.869200
C -39.001900 -15.251400 -25.791800
C -38.925800 -16.731300 -25.982800
N -38.650300 -19.512500 -26.404700
H -38.124500 -14.853200 -25.972500
N -37.999300 -17.479900 -25.292700
C -37.876500 -18.851200 -25.537300
H -37.832100 -13.701100 -23.101300
H -37.697400 -11.626000 -22.066600
C -37.057300 -13.471200 -22.602800
C -37.026200 -17.174000 -24.332800
C -36.978300 -12.240100 -21.978100
N -36.949000 -15.907400 -23.840600
N -36.894400 -19.390300 -24.799500
C -36.363900 -18.387200 -24.074400
C -35.996100 -14.382700 -22.501900
N -35.986900 -15.695400 -23.025400
C -35.866100 -11.880300 -21.221800
H -35.831100 -11.031000 -20.796500
H -35.443300 -18.243500 -22.265800
C -35.231000 -18.624100 -23.143100
H -35.078200 -19.588600 -23.052800
C -34.892400 -13.992200 -21.748700
C -34.814100 -12.767700 -21.094000
H -34.422400 -18.196800 -23.496800
H -34.054400 -12.546700 -20.569100
N -33.765000 -14.911700 -21.590100
O -33.463000 -15.190700 -20.473600
O -33.139300 -15.235400 -22.557700
5
Fragment
Cl -42.967400 -12.179100 -21.898900
Cl -42.615800 -12.994900 -24.639100
C -41.837600 -12.827400 -23.083000
H -41.538600 -13.731900 -22.777000
Cl -40.435000 -11.781200 -23.194000
42
Fragment
H -41.342600 -19.047200 -28.044400
H -40.662000 -20.435800 -27.632700
C -40.494200 -19.531400 -27.972200
H -40.394500 -16.943300 -27.331400
H -40.072800 -19.587500 -28.855700
C -39.727600 -17.414100 -26.845400
H -39.664700 -14.876600 -26.408400
C -39.586300 -18.807000 -27.033700
H -39.266500 -15.054300 -24.869200
C -39.001900 -15.251400 -25.791800
C -38.925800 -16.731300 -25.982800
N -38.650300 -19.512500 -26.404700
H -38.124500 -14.853200 -25.972500
N -37.999300 -17.479900 -25.292700
C -37.876500 -18.851200 -25.537300
H -37.832100 -13.701100 -23.101300
H -37.697400 -11.626000 -22.066600
C -37.057300 -13.471200 -22.602800
C -37.026200 -17.174000 -24.332800
C -36.978300 -12.240100 -21.978100
N -36.949000 -15.907400 -23.840600
N -36.894400 -19.390300 -24.799500
C -36.363900 -18.387200 -24.074400
C -35.996100 -14.382700 -22.501900
N -35.986900 -15.695400 -23.025400
C -35.866100 -11.880300 -21.221800
H -35.831100 -11.031000 -20.796500
H -35.443300 -18.243500 -22.265800
C -35.231000 -18.624100 -23.143100
H -35.078200 -19.588600 -23.052800
C -34.892400 -13.992200 -21.748700
C -34.814100 -12.767700 -21.094000
H -34.422400 -18.196800 -23.496800
H -34.054400 -12.546700 -20.569100
N -33.765000 -14.911700 -21.590100
O -33.463000 -15.190700 -20.473600
O -33.139300 -15.235400 -22.557700
Cl -42.967400 -12.179100 -21.898900
Cl -42.615800 -12.994900 -24.639100
C -41.837600 -12.827400 -23.083000
H -41.538600 -13.731900 -22.777000
Cl -40.435000 -11.781200 -23.194000
