9
Fragment
O -43.341000 -12.649700 -23.182400
H -42.386200 -10.223500 -23.564500
C -42.217300 -12.172300 -23.020100
H -41.831800 -11.129300 -24.719500
C -41.795200 -10.950800 -23.776900
H -41.595500 -13.440000 -21.758900
N -41.339300 -12.716900 -22.195500
H -40.896300 -10.716300 -23.530500
H -40.590400 -12.306000 -22.083400
37
Fragment
H -54.139700 -13.872600 -28.972500
O -53.929900 -14.578200 -28.611100
O -53.757400 -16.941400 -27.510600
O -52.607900 -12.462800 -29.380700
C -52.606000 -14.581000 -28.363200
N -52.544900 -16.829400 -27.315900
H -52.109900 -11.846100 -29.593500
O -51.888100 -17.711400 -26.796600
C -51.884600 -13.437200 -28.767400
C -51.880900 -15.607200 -27.751000
C -50.530000 -13.363700 -28.566800
C -50.511800 -15.540700 -27.560700
H -50.077900 -12.590900 -28.817600
H -50.064800 -16.242100 -27.143300
C -49.804000 -14.429800 -27.991500
C -48.352400 -14.299600 -27.939900
H -48.034700 -13.430200 -28.026900
N -47.958000 -17.740100 -27.587300
C -47.723500 -16.627100 -27.658100
C -47.401400 -15.234100 -27.786400
H -46.171000 -16.333800 -25.842200
C -45.960700 -14.802900 -27.903000
O -45.706900 -13.877500 -28.689400
H -45.342600 -18.098500 -27.144700
C -45.232900 -16.352700 -26.081100
N -45.006100 -15.437800 -27.211100
H -44.997000 -18.335800 -25.634200
C -44.829900 -17.779300 -26.398300
H -44.723600 -16.042600 -25.315500
H -43.895200 -17.806600 -26.618100
C -43.599500 -15.084300 -27.460400
H -43.587200 -13.265700 -26.578300
H -43.516600 -14.740600 -28.364700
H -43.129200 -14.412300 -25.613500
C -43.069900 -14.070700 -26.508900
H -43.058600 -15.886500 -27.399900
H -42.153200 -13.881700 -26.719900
46
Fragment
O -43.341000 -12.649700 -23.182400
H -42.386200 -10.223500 -23.564500
C -42.217300 -12.172300 -23.020100
H -41.831800 -11.129300 -24.719500
C -41.795200 -10.950800 -23.776900
H -41.595500 -13.440000 -21.758900
N -41.339300 -12.716900 -22.195500
H -40.896300 -10.716300 -23.530500
H -40.590400 -12.306000 -22.083400
H -54.139700 -13.872600 -28.972500
O -53.929900 -14.578200 -28.611100
O -53.757400 -16.941400 -27.510600
O -52.607900 -12.462800 -29.380700
C -52.606000 -14.581000 -28.363200
N -52.544900 -16.829400 -27.315900
H -52.109900 -11.846100 -29.593500
O -51.888100 -17.711400 -26.796600
C -51.884600 -13.437200 -28.767400
C -51.880900 -15.607200 -27.751000
C -50.530000 -13.363700 -28.566800
C -50.511800 -15.540700 -27.560700
H -50.077900 -12.590900 -28.817600
H -50.064800 -16.242100 -27.143300
C -49.804000 -14.429800 -27.991500
C -48.352400 -14.299600 -27.939900
H -48.034700 -13.430200 -28.026900
N -47.958000 -17.740100 -27.587300
C -47.723500 -16.627100 -27.658100
C -47.401400 -15.234100 -27.786400
H -46.171000 -16.333800 -25.842200
C -45.960700 -14.802900 -27.903000
O -45.706900 -13.877500 -28.689400
H -45.342600 -18.098500 -27.144700
C -45.232900 -16.352700 -26.081100
N -45.006100 -15.437800 -27.211100
H -44.997000 -18.335800 -25.634200
C -44.829900 -17.779300 -26.398300
H -44.723600 -16.042600 -25.315500
H -43.895200 -17.806600 -26.618100
C -43.599500 -15.084300 -27.460400
H -43.587200 -13.265700 -26.578300
H -43.516600 -14.740600 -28.364700
H -43.129200 -14.412300 -25.613500
C -43.069900 -14.070700 -26.508900
H -43.058600 -15.886500 -27.399900
H -42.153200 -13.881700 -26.719900
