9
Fragment
O -43.341000 -12.649700 -23.182400
H -42.386200 -10.223500 -23.564500
C -42.217300 -12.172300 -23.020100
H -41.831800 -11.129300 -24.719500
C -41.795200 -10.950800 -23.776900
H -41.595500 -13.440000 -21.758900
N -41.339300 -12.716900 -22.195500
H -40.896300 -10.716300 -23.530500
H -40.590400 -12.306000 -22.083400
37
Fragment
H -57.480900 -10.381700 -24.911300
H -56.575600 -12.386500 -24.231300
C -56.564300 -10.570700 -25.122300
H -56.505000 -10.912300 -26.017700
H -56.117600 -11.240600 -23.266500
H -56.047000 -9.765700 -25.052900
C -56.034700 -11.584300 -24.170800
H -55.739000 -14.306600 -25.013100
H -54.910600 -12.542600 -26.315700
C -54.804300 -14.279300 -25.232900
H -54.637100 -14.835800 -25.997000
N -54.628100 -11.937800 -24.420100
C -54.401300 -12.852700 -25.550100
H -54.291600 -14.598500 -24.486500
O -53.927300 -10.377500 -22.941800
C -53.673400 -11.302900 -23.728200
H -53.463200 -12.833800 -25.789000
C -52.232800 -11.734100 -23.844800
C -51.910700 -13.127100 -23.973100
N -51.676200 -14.240100 -24.043900
H -51.599400 -9.930200 -23.604300
C -51.281800 -10.799600 -23.691300
C -49.830100 -10.929800 -23.639700
H -49.569300 -12.742100 -24.487900
H -49.556300 -9.090900 -22.813600
C -49.122400 -12.040700 -24.070500
C -49.104200 -9.863700 -23.064400
C -47.753300 -12.107200 -23.880200
C -47.749600 -9.937200 -22.863800
O -47.746100 -14.211400 -24.834600
H -47.524300 -8.346100 -22.037700
N -47.089300 -13.329400 -24.315300
C -47.028200 -11.081000 -23.268000
O -47.026300 -8.962800 -22.250500
O -45.876800 -13.441400 -24.120600
O -45.704300 -11.078200 -23.020100
H -45.494500 -10.372600 -22.658700
46
Fragment
O -43.341000 -12.649700 -23.182400
H -42.386200 -10.223500 -23.564500
C -42.217300 -12.172300 -23.020100
H -41.831800 -11.129300 -24.719500
C -41.795200 -10.950800 -23.776900
H -41.595500 -13.440000 -21.758900
N -41.339300 -12.716900 -22.195500
H -40.896300 -10.716300 -23.530500
H -40.590400 -12.306000 -22.083400
H -57.480900 -10.381700 -24.911300
H -56.575600 -12.386500 -24.231300
C -56.564300 -10.570700 -25.122300
H -56.505000 -10.912300 -26.017700
H -56.117600 -11.240600 -23.266500
H -56.047000 -9.765700 -25.052900
C -56.034700 -11.584300 -24.170800
H -55.739000 -14.306600 -25.013100
H -54.910600 -12.542600 -26.315700
C -54.804300 -14.279300 -25.232900
H -54.637100 -14.835800 -25.997000
N -54.628100 -11.937800 -24.420100
C -54.401300 -12.852700 -25.550100
H -54.291600 -14.598500 -24.486500
O -53.927300 -10.377500 -22.941800
C -53.673400 -11.302900 -23.728200
H -53.463200 -12.833800 -25.789000
C -52.232800 -11.734100 -23.844800
C -51.910700 -13.127100 -23.973100
N -51.676200 -14.240100 -24.043900
H -51.599400 -9.930200 -23.604300
C -51.281800 -10.799600 -23.691300
C -49.830100 -10.929800 -23.639700
H -49.569300 -12.742100 -24.487900
H -49.556300 -9.090900 -22.813600
C -49.122400 -12.040700 -24.070500
C -49.104200 -9.863700 -23.064400
C -47.753300 -12.107200 -23.880200
C -47.749600 -9.937200 -22.863800
O -47.746100 -14.211400 -24.834600
H -47.524300 -8.346100 -22.037700
N -47.089300 -13.329400 -24.315300
C -47.028200 -11.081000 -23.268000
O -47.026300 -8.962800 -22.250500
O -45.876800 -13.441400 -24.120600
O -45.704300 -11.078200 -23.020100
H -45.494500 -10.372600 -22.658700
