37
Fragment
H -41.342600 -19.047200 -28.044400
H -40.662000 -20.435800 -27.632700
C -40.494200 -19.531400 -27.972200
H -40.394500 -16.943300 -27.331400
H -40.072800 -19.587500 -28.855700
C -39.727600 -17.414100 -26.845400
H -39.664700 -14.876600 -26.408400
C -39.586300 -18.807000 -27.033700
H -39.266500 -15.054300 -24.869200
C -39.001900 -15.251400 -25.791800
C -38.925800 -16.731300 -25.982800
N -38.650300 -19.512500 -26.404700
H -38.124500 -14.853200 -25.972500
N -37.999300 -17.479900 -25.292700
C -37.876500 -18.851200 -25.537300
H -37.832100 -13.701100 -23.101300
H -37.697400 -11.626000 -22.066600
C -37.057300 -13.471200 -22.602800
C -37.026200 -17.174000 -24.332800
C -36.978300 -12.240100 -21.978100
N -36.949000 -15.907400 -23.840600
N -36.894400 -19.390300 -24.799500
C -36.363900 -18.387200 -24.074400
C -35.996100 -14.382700 -22.501900
N -35.986900 -15.695400 -23.025400
C -35.866100 -11.880300 -21.221800
H -35.831100 -11.031000 -20.796500
H -35.443300 -18.243500 -22.265800
C -35.231000 -18.624100 -23.143100
H -35.078200 -19.588600 -23.052800
C -34.892400 -13.992200 -21.748700
C -34.814100 -12.767700 -21.094000
H -34.422400 -18.196800 -23.496800
H -34.054400 -12.546700 -20.569100
N -33.765000 -14.911700 -21.590100
O -33.463000 -15.190700 -20.473600
O -33.139300 -15.235400 -22.557700
37
Fragment
O -41.853600 -8.729000 -17.805600
O -41.530000 -8.773700 -19.889700
N -41.228000 -9.052700 -18.773300
H -40.938500 -11.417700 -19.794200
H -40.570500 -5.767600 -16.866500
C -40.178900 -11.196700 -19.269300
C -40.100600 -9.972200 -18.614600
H -39.914700 -4.375800 -17.310500
C -39.761900 -5.340300 -17.220200
H -39.549600 -5.720900 -18.097600
H -39.161800 -12.933400 -19.566800
C -39.126800 -12.084100 -19.141500
N -39.006000 -8.269000 -17.337900
C -38.996800 -9.581700 -17.861400
C -38.629000 -5.577200 -16.288900
N -38.098500 -4.574100 -15.563800
N -38.043900 -8.057000 -16.522700
C -38.014600 -11.724300 -18.385200
C -37.966700 -6.790400 -16.030600
C -37.935600 -10.493300 -17.760500
H -37.295500 -12.338400 -18.296700
H -37.160900 -10.263300 -17.262000
C -37.116400 -5.113200 -14.826000
N -36.993700 -6.484500 -15.070600
H -36.868400 -9.111200 -14.390900
N -36.342600 -4.451900 -13.958600
C -36.067100 -7.233100 -14.380500
C -35.991000 -8.713000 -14.571600
H -35.726400 -8.910100 -15.494100
C -35.406600 -5.157400 -13.329600
H -35.328200 -9.087800 -13.954900
C -35.265300 -6.550400 -13.517900
H -34.920200 -4.376900 -11.507600
H -34.598400 -7.021100 -13.032000
C -34.498700 -4.433000 -12.391100
H -34.330900 -3.528600 -12.730600
H -33.650300 -4.917200 -12.318900
74
Fragment
H -41.342600 -19.047200 -28.044400
H -40.662000 -20.435800 -27.632700
C -40.494200 -19.531400 -27.972200
H -40.394500 -16.943300 -27.331400
H -40.072800 -19.587500 -28.855700
C -39.727600 -17.414100 -26.845400
H -39.664700 -14.876600 -26.408400
C -39.586300 -18.807000 -27.033700
H -39.266500 -15.054300 -24.869200
C -39.001900 -15.251400 -25.791800
C -38.925800 -16.731300 -25.982800
N -38.650300 -19.512500 -26.404700
H -38.124500 -14.853200 -25.972500
N -37.999300 -17.479900 -25.292700
C -37.876500 -18.851200 -25.537300
H -37.832100 -13.701100 -23.101300
H -37.697400 -11.626000 -22.066600
C -37.057300 -13.471200 -22.602800
C -37.026200 -17.174000 -24.332800
C -36.978300 -12.240100 -21.978100
N -36.949000 -15.907400 -23.840600
N -36.894400 -19.390300 -24.799500
C -36.363900 -18.387200 -24.074400
C -35.996100 -14.382700 -22.501900
N -35.986900 -15.695400 -23.025400
C -35.866100 -11.880300 -21.221800
H -35.831100 -11.031000 -20.796500
H -35.443300 -18.243500 -22.265800
C -35.231000 -18.624100 -23.143100
H -35.078200 -19.588600 -23.052800
C -34.892400 -13.992200 -21.748700
C -34.814100 -12.767700 -21.094000
H -34.422400 -18.196800 -23.496800
H -34.054400 -12.546700 -20.569100
N -33.765000 -14.911700 -21.590100
O -33.463000 -15.190700 -20.473600
O -33.139300 -15.235400 -22.557700
O -41.853600 -8.729000 -17.805600
O -41.530000 -8.773700 -19.889700
N -41.228000 -9.052700 -18.773300
H -40.938500 -11.417700 -19.794200
H -40.570500 -5.767600 -16.866500
C -40.178900 -11.196700 -19.269300
C -40.100600 -9.972200 -18.614600
H -39.914700 -4.375800 -17.310500
C -39.761900 -5.340300 -17.220200
H -39.549600 -5.720900 -18.097600
H -39.161800 -12.933400 -19.566800
C -39.126800 -12.084100 -19.141500
N -39.006000 -8.269000 -17.337900
C -38.996800 -9.581700 -17.861400
C -38.629000 -5.577200 -16.288900
N -38.098500 -4.574100 -15.563800
N -38.043900 -8.057000 -16.522700
C -38.014600 -11.724300 -18.385200
C -37.966700 -6.790400 -16.030600
C -37.935600 -10.493300 -17.760500
H -37.295500 -12.338400 -18.296700
H -37.160900 -10.263300 -17.262000
C -37.116400 -5.113200 -14.826000
N -36.993700 -6.484500 -15.070600
H -36.868400 -9.111200 -14.390900
N -36.342600 -4.451900 -13.958600
C -36.067100 -7.233100 -14.380500
C -35.991000 -8.713000 -14.571600
H -35.726400 -8.910100 -15.494100
C -35.406600 -5.157400 -13.329600
H -35.328200 -9.087800 -13.954900
C -35.265300 -6.550400 -13.517900
H -34.920200 -4.376900 -11.507600
H -34.598400 -7.021100 -13.032000
C -34.498700 -4.433000 -12.391100
H -34.330900 -3.528600 -12.730600
H -33.650300 -4.917200 -12.318900
