16
Fragment
H -29.477200 -9.817900 -21.493300
H -29.013500 -8.826900 -22.504200
N -28.843100 -9.467900 -21.955800
C -27.602200 -9.915200 -21.824300
N -27.411900 -10.963000 -20.974000
N -26.625000 -9.347300 -22.562400
H -26.532000 -12.779800 -19.640500
C -26.148200 -11.387600 -20.878500
N -25.893000 -12.408200 -20.080800
C -25.404000 -9.829800 -22.357400
N -25.094500 -10.861300 -21.561200
H -25.087500 -12.700900 -20.001900
H -24.442700 -9.268300 -24.042700
C -24.291100 -9.182300 -23.099700
H -24.248600 -8.252500 -22.865600
H -23.462000 -9.608500 -22.868400
6
Fragment
H -31.766000 -6.398800 -24.146600
H -31.012500 -8.446700 -24.174300
C -30.880700 -6.620600 -23.851600
O -30.824800 -7.996700 -23.515400
H -30.658300 -6.094300 -23.080300
H -30.252400 -6.437300 -24.555100
22
Fragment
H -29.477200 -9.817900 -21.493300
H -29.013500 -8.826900 -22.504200
N -28.843100 -9.467900 -21.955800
C -27.602200 -9.915200 -21.824300
N -27.411900 -10.963000 -20.974000
N -26.625000 -9.347300 -22.562400
H -26.532000 -12.779800 -19.640500
C -26.148200 -11.387600 -20.878500
N -25.893000 -12.408200 -20.080800
C -25.404000 -9.829800 -22.357400
N -25.094500 -10.861300 -21.561200
H -25.087500 -12.700900 -20.001900
H -24.442700 -9.268300 -24.042700
C -24.291100 -9.182300 -23.099700
H -24.248600 -8.252500 -22.865600
H -23.462000 -9.608500 -22.868400
H -31.766000 -6.398800 -24.146600
H -31.012500 -8.446700 -24.174300
C -30.880700 -6.620600 -23.851600
O -30.824800 -7.996700 -23.515400
H -30.658300 -6.094300 -23.080300
H -30.252400 -6.437300 -24.555100
