28
Fragment
H -7.573100 -7.797500 -6.394800
H -6.745600 -6.845200 -4.482300
C -6.734000 -7.397400 -6.416800
C -6.260900 -6.825300 -5.275600
N -6.058000 -7.413100 -7.556600
H -5.680200 -9.006400 -11.096000
H -5.338400 -9.440700 -12.523300
N -5.163200 -9.007100 -11.814500
C -5.038300 -6.220800 -5.353800
C -4.869700 -6.797500 -7.531200
H -4.686100 -5.822200 -4.590700
N -4.492800 -7.558300 -9.752400
N -4.332100 -6.180200 -6.484700
C -4.058400 -6.824900 -8.776600
C -4.027000 -8.304500 -11.809700
N -3.753300 -8.949200 -14.101600
N -3.592600 -7.571100 -10.833900
H -3.399300 -9.307200 -15.995600
C -3.215700 -8.331900 -13.055200
C -3.047000 -8.908600 -15.232500
N -2.922200 -6.122300 -8.771800
H -2.747000 -5.688700 -8.063000
H -2.405100 -6.123000 -9.490300
N -2.027300 -7.716300 -13.029800
C -1.824400 -8.304000 -15.310700
C -1.351400 -7.732000 -14.169600
H -1.339800 -8.284200 -16.104000
H -0.512300 -7.331900 -14.191500
28
Fragment
H -1.943900 -10.478100 -20.119000
H -1.116300 -9.525800 -18.206500
C -1.104700 -10.078000 -20.141000
C -0.631700 -9.506000 -18.999800
N -0.428800 -10.093700 -21.280800
H -0.051000 -11.687000 -24.820200
H 0.290800 -12.121300 -26.247600
N 0.466100 -11.687700 -25.538700
C 0.590900 -8.901400 -19.078000
C 0.759500 -9.478100 -21.255400
H 0.943100 -8.502800 -18.315000
N 1.136400 -10.238900 -23.476600
N 1.297100 -8.860900 -20.208900
C 1.570800 -9.505500 -22.500800
C 1.602300 -10.985100 -25.533900
N 1.876000 -11.629800 -27.825800
N 2.036600 -10.251700 -24.558100
H 2.230000 -11.987800 -29.719800
C 2.413600 -11.012500 -26.779400
C 2.582200 -11.589200 -28.956700
N 2.707000 -8.802900 -22.496000
H 2.882300 -8.369300 -21.787200
H 3.224100 -8.803600 -23.214500
N 3.601900 -10.397000 -26.754000
C 3.804800 -10.984700 -29.034900
C 4.277800 -10.412600 -27.893800
H 4.289400 -10.964800 -29.828200
H 5.116900 -10.012500 -27.915700
56
Fragment
H -7.573100 -7.797500 -6.394800
H -6.745600 -6.845200 -4.482300
C -6.734000 -7.397400 -6.416800
C -6.260900 -6.825300 -5.275600
N -6.058000 -7.413100 -7.556600
H -5.680200 -9.006400 -11.096000
H -5.338400 -9.440700 -12.523300
N -5.163200 -9.007100 -11.814500
C -5.038300 -6.220800 -5.353800
C -4.869700 -6.797500 -7.531200
H -4.686100 -5.822200 -4.590700
N -4.492800 -7.558300 -9.752400
N -4.332100 -6.180200 -6.484700
C -4.058400 -6.824900 -8.776600
C -4.027000 -8.304500 -11.809700
N -3.753300 -8.949200 -14.101600
N -3.592600 -7.571100 -10.833900
H -3.399300 -9.307200 -15.995600
C -3.215700 -8.331900 -13.055200
C -3.047000 -8.908600 -15.232500
N -2.922200 -6.122300 -8.771800
H -2.747000 -5.688700 -8.063000
H -2.405100 -6.123000 -9.490300
N -2.027300 -7.716300 -13.029800
C -1.824400 -8.304000 -15.310700
C -1.351400 -7.732000 -14.169600
H -1.339800 -8.284200 -16.104000
H -0.512300 -7.331900 -14.191500
H -1.943900 -10.478100 -20.119000
H -1.116300 -9.525800 -18.206500
C -1.104700 -10.078000 -20.141000
C -0.631700 -9.506000 -18.999800
N -0.428800 -10.093700 -21.280800
H -0.051000 -11.687000 -24.820200
H 0.290800 -12.121300 -26.247600
N 0.466100 -11.687700 -25.538700
C 0.590900 -8.901400 -19.078000
C 0.759500 -9.478100 -21.255400
H 0.943100 -8.502800 -18.315000
N 1.136400 -10.238900 -23.476600
N 1.297100 -8.860900 -20.208900
C 1.570800 -9.505500 -22.500800
C 1.602300 -10.985100 -25.533900
N 1.876000 -11.629800 -27.825800
N 2.036600 -10.251700 -24.558100
H 2.230000 -11.987800 -29.719800
C 2.413600 -11.012500 -26.779400
C 2.582200 -11.589200 -28.956700
N 2.707000 -8.802900 -22.496000
H 2.882300 -8.369300 -21.787200
H 3.224100 -8.803600 -23.214500
N 3.601900 -10.397000 -26.754000
C 3.804800 -10.984700 -29.034900
C 4.277800 -10.412600 -27.893800
H 4.289400 -10.964800 -29.828200
H 5.116900 -10.012500 -27.915700
