28
Fragment
H -7.573100 -7.797500 -6.394800
H -6.745600 -6.845200 -4.482300
C -6.734000 -7.397400 -6.416800
C -6.260900 -6.825300 -5.275600
N -6.058000 -7.413100 -7.556600
H -5.680200 -9.006400 -11.096000
H -5.338400 -9.440700 -12.523300
N -5.163200 -9.007100 -11.814500
C -5.038300 -6.220800 -5.353800
C -4.869700 -6.797500 -7.531200
H -4.686100 -5.822200 -4.590700
N -4.492800 -7.558300 -9.752400
N -4.332100 -6.180200 -6.484700
C -4.058400 -6.824900 -8.776600
C -4.027000 -8.304500 -11.809700
N -3.753300 -8.949200 -14.101600
N -3.592600 -7.571100 -10.833900
H -3.399300 -9.307200 -15.995600
C -3.215700 -8.331900 -13.055200
C -3.047000 -8.908600 -15.232500
N -2.922200 -6.122300 -8.771800
H -2.747000 -5.688700 -8.063000
H -2.405100 -6.123000 -9.490300
N -2.027300 -7.716300 -13.029800
C -1.824400 -8.304000 -15.310700
C -1.351400 -7.732000 -14.169600
H -1.339800 -8.284200 -16.104000
H -0.512300 -7.331900 -14.191500
28
Fragment
H -9.788500 -10.160000 0.467300
H -8.960900 -9.207700 2.379800
C -8.949300 -9.759900 0.445400
C -8.476300 -9.187900 1.586500
N -8.273400 -9.775600 -0.694400
H -7.895600 -11.368900 -4.233900
H -7.553800 -11.803200 -5.661200
N -7.378500 -11.369600 -4.952400
C -7.253700 -8.583300 1.508300
C -7.085100 -9.160000 -0.669100
H -6.901500 -8.184700 2.271400
N -6.708100 -9.920800 -2.890300
N -6.547500 -8.542700 0.377400
C -6.273800 -9.187400 -1.914500
C -6.242300 -10.667000 -4.947600
N -5.968600 -11.311700 -7.239500
N -5.807900 -9.933600 -3.971800
H -5.614600 -11.669700 -9.133500
C -5.431000 -10.694400 -6.193100
C -5.262400 -11.271100 -8.370400
N -5.137600 -8.484800 -1.909700
H -4.962300 -8.051200 -1.200900
H -4.620500 -8.485500 -2.628200
N -4.242700 -10.078900 -6.167700
C -4.039800 -10.666600 -8.448600
C -3.566800 -10.094500 -7.307500
H -3.555200 -10.646700 -9.241900
H -2.727600 -9.694400 -7.329400
56
Fragment
H -7.573100 -7.797500 -6.394800
H -6.745600 -6.845200 -4.482300
C -6.734000 -7.397400 -6.416800
C -6.260900 -6.825300 -5.275600
N -6.058000 -7.413100 -7.556600
H -5.680200 -9.006400 -11.096000
H -5.338400 -9.440700 -12.523300
N -5.163200 -9.007100 -11.814500
C -5.038300 -6.220800 -5.353800
C -4.869700 -6.797500 -7.531200
H -4.686100 -5.822200 -4.590700
N -4.492800 -7.558300 -9.752400
N -4.332100 -6.180200 -6.484700
C -4.058400 -6.824900 -8.776600
C -4.027000 -8.304500 -11.809700
N -3.753300 -8.949200 -14.101600
N -3.592600 -7.571100 -10.833900
H -3.399300 -9.307200 -15.995600
C -3.215700 -8.331900 -13.055200
C -3.047000 -8.908600 -15.232500
N -2.922200 -6.122300 -8.771800
H -2.747000 -5.688700 -8.063000
H -2.405100 -6.123000 -9.490300
N -2.027300 -7.716300 -13.029800
C -1.824400 -8.304000 -15.310700
C -1.351400 -7.732000 -14.169600
H -1.339800 -8.284200 -16.104000
H -0.512300 -7.331900 -14.191500
H -9.788500 -10.160000 0.467300
H -8.960900 -9.207700 2.379800
C -8.949300 -9.759900 0.445400
C -8.476300 -9.187900 1.586500
N -8.273400 -9.775600 -0.694400
H -7.895600 -11.368900 -4.233900
H -7.553800 -11.803200 -5.661200
N -7.378500 -11.369600 -4.952400
C -7.253700 -8.583300 1.508300
C -7.085100 -9.160000 -0.669100
H -6.901500 -8.184700 2.271400
N -6.708100 -9.920800 -2.890300
N -6.547500 -8.542700 0.377400
C -6.273800 -9.187400 -1.914500
C -6.242300 -10.667000 -4.947600
N -5.968600 -11.311700 -7.239500
N -5.807900 -9.933600 -3.971800
H -5.614600 -11.669700 -9.133500
C -5.431000 -10.694400 -6.193100
C -5.262400 -11.271100 -8.370400
N -5.137600 -8.484800 -1.909700
H -4.962300 -8.051200 -1.200900
H -4.620500 -8.485500 -2.628200
N -4.242700 -10.078900 -6.167700
C -4.039800 -10.666600 -8.448600
C -3.566800 -10.094500 -7.307500
H -3.555200 -10.646700 -9.241900
H -2.727600 -9.694400 -7.329400
