28
Fragment
H -7.573100 -7.797500 -6.394800
H -6.745600 -6.845200 -4.482300
C -6.734000 -7.397400 -6.416800
C -6.260900 -6.825300 -5.275600
N -6.058000 -7.413100 -7.556600
H -5.680200 -9.006400 -11.096000
H -5.338400 -9.440700 -12.523300
N -5.163200 -9.007100 -11.814500
C -5.038300 -6.220800 -5.353800
C -4.869700 -6.797500 -7.531200
H -4.686100 -5.822200 -4.590700
N -4.492800 -7.558300 -9.752400
N -4.332100 -6.180200 -6.484700
C -4.058400 -6.824900 -8.776600
C -4.027000 -8.304500 -11.809700
N -3.753300 -8.949200 -14.101600
N -3.592600 -7.571100 -10.833900
H -3.399300 -9.307200 -15.995600
C -3.215700 -8.331900 -13.055200
C -3.047000 -8.908600 -15.232500
N -2.922200 -6.122300 -8.771800
H -2.747000 -5.688700 -8.063000
H -2.405100 -6.123000 -9.490300
N -2.027300 -7.716300 -13.029800
C -1.824400 -8.304000 -15.310700
C -1.351400 -7.732000 -14.169600
H -1.339800 -8.284200 -16.104000
H -0.512300 -7.331900 -14.191500
28
Fragment
H -4.159200 -12.840600 -13.256900
H -3.331700 -11.888300 -11.344400
C -3.320100 -12.440500 -13.278900
C -2.847100 -11.868500 -12.137700
N -2.644200 -12.456200 -14.418700
H -2.266400 -14.049500 -17.958100
H -1.924600 -14.483800 -19.385500
N -1.749300 -14.050300 -18.676600
C -1.624500 -11.263900 -12.215900
C -1.455800 -11.840600 -14.393300
H -1.272200 -10.865300 -11.452900
N -1.078900 -12.601400 -16.614500
N -0.918200 -11.223400 -13.346800
C -0.644500 -11.868000 -15.638700
C -0.613100 -13.347600 -18.671800
N -0.339400 -13.992300 -20.963700
N -0.178700 -12.614200 -17.696000
H 0.014600 -14.350400 -22.857700
C 0.198200 -13.375000 -19.917300
C 0.366800 -13.951700 -22.094600
N 0.491700 -11.165400 -15.633900
H 0.666900 -10.731800 -14.925100
H 1.008700 -11.166100 -16.352400
N 1.386500 -12.759500 -19.891900
C 1.589400 -13.347200 -22.172800
C 2.062400 -12.775100 -21.031700
H 2.074100 -13.327300 -22.966100
H 2.901600 -12.375000 -21.053600
56
Fragment
H -7.573100 -7.797500 -6.394800
H -6.745600 -6.845200 -4.482300
C -6.734000 -7.397400 -6.416800
C -6.260900 -6.825300 -5.275600
N -6.058000 -7.413100 -7.556600
H -5.680200 -9.006400 -11.096000
H -5.338400 -9.440700 -12.523300
N -5.163200 -9.007100 -11.814500
C -5.038300 -6.220800 -5.353800
C -4.869700 -6.797500 -7.531200
H -4.686100 -5.822200 -4.590700
N -4.492800 -7.558300 -9.752400
N -4.332100 -6.180200 -6.484700
C -4.058400 -6.824900 -8.776600
C -4.027000 -8.304500 -11.809700
N -3.753300 -8.949200 -14.101600
N -3.592600 -7.571100 -10.833900
H -3.399300 -9.307200 -15.995600
C -3.215700 -8.331900 -13.055200
C -3.047000 -8.908600 -15.232500
N -2.922200 -6.122300 -8.771800
H -2.747000 -5.688700 -8.063000
H -2.405100 -6.123000 -9.490300
N -2.027300 -7.716300 -13.029800
C -1.824400 -8.304000 -15.310700
C -1.351400 -7.732000 -14.169600
H -1.339800 -8.284200 -16.104000
H -0.512300 -7.331900 -14.191500
H -4.159200 -12.840600 -13.256900
H -3.331700 -11.888300 -11.344400
C -3.320100 -12.440500 -13.278900
C -2.847100 -11.868500 -12.137700
N -2.644200 -12.456200 -14.418700
H -2.266400 -14.049500 -17.958100
H -1.924600 -14.483800 -19.385500
N -1.749300 -14.050300 -18.676600
C -1.624500 -11.263900 -12.215900
C -1.455800 -11.840600 -14.393300
H -1.272200 -10.865300 -11.452900
N -1.078900 -12.601400 -16.614500
N -0.918200 -11.223400 -13.346800
C -0.644500 -11.868000 -15.638700
C -0.613100 -13.347600 -18.671800
N -0.339400 -13.992300 -20.963700
N -0.178700 -12.614200 -17.696000
H 0.014600 -14.350400 -22.857700
C 0.198200 -13.375000 -19.917300
C 0.366800 -13.951700 -22.094600
N 0.491700 -11.165400 -15.633900
H 0.666900 -10.731800 -14.925100
H 1.008700 -11.166100 -16.352400
N 1.386500 -12.759500 -19.891900
C 1.589400 -13.347200 -22.172800
C 2.062400 -12.775100 -21.031700
H 2.074100 -13.327300 -22.966100
H 2.901600 -12.375000 -21.053600
