28
Fragment
H -7.573100 -7.797500 -6.394800
H -6.745600 -6.845200 -4.482300
C -6.734000 -7.397400 -6.416800
C -6.260900 -6.825300 -5.275600
N -6.058000 -7.413100 -7.556600
H -5.680200 -9.006400 -11.096000
H -5.338400 -9.440700 -12.523300
N -5.163200 -9.007100 -11.814500
C -5.038300 -6.220800 -5.353800
C -4.869700 -6.797500 -7.531200
H -4.686100 -5.822200 -4.590700
N -4.492800 -7.558300 -9.752400
N -4.332100 -6.180200 -6.484700
C -4.058400 -6.824900 -8.776600
C -4.027000 -8.304500 -11.809700
N -3.753300 -8.949200 -14.101600
N -3.592600 -7.571100 -10.833900
H -3.399300 -9.307200 -15.995600
C -3.215700 -8.331900 -13.055200
C -3.047000 -8.908600 -15.232500
N -2.922200 -6.122300 -8.771800
H -2.747000 -5.688700 -8.063000
H -2.405100 -6.123000 -9.490300
N -2.027300 -7.716300 -13.029800
C -1.824400 -8.304000 -15.310700
C -1.351400 -7.732000 -14.169600
H -1.339800 -8.284200 -16.104000
H -0.512300 -7.331900 -14.191500
28
Fragment
H -10.987000 -2.754300 0.467300
H -10.159400 -1.802000 2.379800
C -10.147800 -2.354300 0.445400
C -9.674800 -1.782200 1.586500
N -9.471900 -2.369900 -0.694400
H -9.094100 -3.963300 -4.233900
H -8.752300 -4.397600 -5.661200
N -8.577000 -3.964000 -4.952400
C -8.452200 -1.177600 1.508300
C -8.283600 -1.754400 -0.669100
H -8.100000 -0.779000 2.271400
N -7.906700 -2.515200 -2.890300
N -7.746000 -1.137100 0.377400
C -7.472300 -1.781800 -1.914500
C -7.440800 -3.261400 -4.947600
N -7.167100 -3.906000 -7.239500
N -7.006500 -2.527900 -3.971800
H -6.813100 -4.264100 -9.133500
C -6.629500 -3.288800 -6.193100
C -6.460900 -3.865500 -8.370400
N -6.336100 -1.079100 -1.909700
H -6.160800 -0.645600 -1.200900
H -5.819000 -1.079900 -2.628200
N -5.441200 -2.673200 -6.167700
C -5.238300 -3.260900 -8.448600
C -4.765300 -2.688800 -7.307500
H -4.753700 -3.241100 -9.241900
H -3.926200 -2.288800 -7.329400
56
Fragment
H -7.573100 -7.797500 -6.394800
H -6.745600 -6.845200 -4.482300
C -6.734000 -7.397400 -6.416800
C -6.260900 -6.825300 -5.275600
N -6.058000 -7.413100 -7.556600
H -5.680200 -9.006400 -11.096000
H -5.338400 -9.440700 -12.523300
N -5.163200 -9.007100 -11.814500
C -5.038300 -6.220800 -5.353800
C -4.869700 -6.797500 -7.531200
H -4.686100 -5.822200 -4.590700
N -4.492800 -7.558300 -9.752400
N -4.332100 -6.180200 -6.484700
C -4.058400 -6.824900 -8.776600
C -4.027000 -8.304500 -11.809700
N -3.753300 -8.949200 -14.101600
N -3.592600 -7.571100 -10.833900
H -3.399300 -9.307200 -15.995600
C -3.215700 -8.331900 -13.055200
C -3.047000 -8.908600 -15.232500
N -2.922200 -6.122300 -8.771800
H -2.747000 -5.688700 -8.063000
H -2.405100 -6.123000 -9.490300
N -2.027300 -7.716300 -13.029800
C -1.824400 -8.304000 -15.310700
C -1.351400 -7.732000 -14.169600
H -1.339800 -8.284200 -16.104000
H -0.512300 -7.331900 -14.191500
H -10.987000 -2.754300 0.467300
H -10.159400 -1.802000 2.379800
C -10.147800 -2.354300 0.445400
C -9.674800 -1.782200 1.586500
N -9.471900 -2.369900 -0.694400
H -9.094100 -3.963300 -4.233900
H -8.752300 -4.397600 -5.661200
N -8.577000 -3.964000 -4.952400
C -8.452200 -1.177600 1.508300
C -8.283600 -1.754400 -0.669100
H -8.100000 -0.779000 2.271400
N -7.906700 -2.515200 -2.890300
N -7.746000 -1.137100 0.377400
C -7.472300 -1.781800 -1.914500
C -7.440800 -3.261400 -4.947600
N -7.167100 -3.906000 -7.239500
N -7.006500 -2.527900 -3.971800
H -6.813100 -4.264100 -9.133500
C -6.629500 -3.288800 -6.193100
C -6.460900 -3.865500 -8.370400
N -6.336100 -1.079100 -1.909700
H -6.160800 -0.645600 -1.200900
H -5.819000 -1.079900 -2.628200
N -5.441200 -2.673200 -6.167700
C -5.238300 -3.260900 -8.448600
C -4.765300 -2.688800 -7.307500
H -4.753700 -3.241100 -9.241900
H -3.926200 -2.288800 -7.329400
