28
Fragment
H -7.573100 -7.797500 -6.394800
H -6.745600 -6.845200 -4.482300
C -6.734000 -7.397400 -6.416800
C -6.260900 -6.825300 -5.275600
N -6.058000 -7.413100 -7.556600
H -5.680200 -9.006400 -11.096000
H -5.338400 -9.440700 -12.523300
N -5.163200 -9.007100 -11.814500
C -5.038300 -6.220800 -5.353800
C -4.869700 -6.797500 -7.531200
H -4.686100 -5.822200 -4.590700
N -4.492800 -7.558300 -9.752400
N -4.332100 -6.180200 -6.484700
C -4.058400 -6.824900 -8.776600
C -4.027000 -8.304500 -11.809700
N -3.753300 -8.949200 -14.101600
N -3.592600 -7.571100 -10.833900
H -3.399300 -9.307200 -15.995600
C -3.215700 -8.331900 -13.055200
C -3.047000 -8.908600 -15.232500
N -2.922200 -6.122300 -8.771800
H -2.747000 -5.688700 -8.063000
H -2.405100 -6.123000 -9.490300
N -2.027300 -7.716300 -13.029800
C -1.824400 -8.304000 -15.310700
C -1.351400 -7.732000 -14.169600
H -1.339800 -8.284200 -16.104000
H -0.512300 -7.331900 -14.191500
28
Fragment
H -13.202300 -5.116900 7.329400
H -12.374800 -4.164600 9.241900
C -12.363200 -4.716800 7.307500
C -11.890200 -4.144700 8.448600
N -11.687300 -4.732400 6.167700
H -11.309500 -6.325800 2.628200
H -10.967700 -6.760100 1.200900
N -10.792400 -6.326500 1.909700
C -10.667600 -3.540200 8.370400
C -10.498900 -4.116900 6.193100
H -10.315300 -3.141500 9.133500
N -10.122000 -4.877700 3.971800
N -9.961300 -3.499600 7.239500
C -9.687600 -4.144300 4.947600
C -9.656200 -5.623900 1.914500
N -9.382500 -6.268500 -0.377400
N -9.221800 -4.890500 2.890300
H -9.028500 -6.626600 -2.271400
C -8.844900 -5.651300 0.669100
C -8.676300 -6.228000 -1.508300
N -8.551400 -3.441600 4.952400
H -8.376200 -3.008100 5.661200
H -8.034400 -3.442400 4.233900
N -7.656600 -5.035700 0.694400
C -7.453700 -5.623400 -1.586500
C -6.980600 -5.051400 -0.445400
H -6.969000 -5.603600 -2.379800
H -6.141500 -4.651300 -0.467300
56
Fragment
H -7.573100 -7.797500 -6.394800
H -6.745600 -6.845200 -4.482300
C -6.734000 -7.397400 -6.416800
C -6.260900 -6.825300 -5.275600
N -6.058000 -7.413100 -7.556600
H -5.680200 -9.006400 -11.096000
H -5.338400 -9.440700 -12.523300
N -5.163200 -9.007100 -11.814500
C -5.038300 -6.220800 -5.353800
C -4.869700 -6.797500 -7.531200
H -4.686100 -5.822200 -4.590700
N -4.492800 -7.558300 -9.752400
N -4.332100 -6.180200 -6.484700
C -4.058400 -6.824900 -8.776600
C -4.027000 -8.304500 -11.809700
N -3.753300 -8.949200 -14.101600
N -3.592600 -7.571100 -10.833900
H -3.399300 -9.307200 -15.995600
C -3.215700 -8.331900 -13.055200
C -3.047000 -8.908600 -15.232500
N -2.922200 -6.122300 -8.771800
H -2.747000 -5.688700 -8.063000
H -2.405100 -6.123000 -9.490300
N -2.027300 -7.716300 -13.029800
C -1.824400 -8.304000 -15.310700
C -1.351400 -7.732000 -14.169600
H -1.339800 -8.284200 -16.104000
H -0.512300 -7.331900 -14.191500
H -13.202300 -5.116900 7.329400
H -12.374800 -4.164600 9.241900
C -12.363200 -4.716800 7.307500
C -11.890200 -4.144700 8.448600
N -11.687300 -4.732400 6.167700
H -11.309500 -6.325800 2.628200
H -10.967700 -6.760100 1.200900
N -10.792400 -6.326500 1.909700
C -10.667600 -3.540200 8.370400
C -10.498900 -4.116900 6.193100
H -10.315300 -3.141500 9.133500
N -10.122000 -4.877700 3.971800
N -9.961300 -3.499600 7.239500
C -9.687600 -4.144300 4.947600
C -9.656200 -5.623900 1.914500
N -9.382500 -6.268500 -0.377400
N -9.221800 -4.890500 2.890300
H -9.028500 -6.626600 -2.271400
C -8.844900 -5.651300 0.669100
C -8.676300 -6.228000 -1.508300
N -8.551400 -3.441600 4.952400
H -8.376200 -3.008100 5.661200
H -8.034400 -3.442400 4.233900
N -7.656600 -5.035700 0.694400
C -7.453700 -5.623400 -1.586500
C -6.980600 -5.051400 -0.445400
H -6.969000 -5.603600 -2.379800
H -6.141500 -4.651300 -0.467300
