16
Fragment
H -29.477200 -9.817900 -21.493300
H -29.013500 -8.826900 -22.504200
N -28.843100 -9.467900 -21.955800
C -27.602200 -9.915200 -21.824300
N -27.411900 -10.963000 -20.974000
N -26.625000 -9.347300 -22.562400
H -26.532000 -12.779800 -19.640500
C -26.148200 -11.387600 -20.878500
N -25.893000 -12.408200 -20.080800
C -25.404000 -9.829800 -22.357400
N -25.094500 -10.861300 -21.561200
H -25.087500 -12.700900 -20.001900
H -24.442700 -9.268300 -24.042700
C -24.291100 -9.182300 -23.099700
H -24.248600 -8.252500 -22.865600
H -23.462000 -9.608500 -22.868400
16
Fragment
H -35.138100 -6.618500 -18.675300
H -34.351500 -7.974500 -18.678000
C -34.309000 -7.044700 -18.444000
H -34.157400 -6.958700 -17.501000
H -33.512600 -3.526100 -21.541800
N -33.505600 -5.365700 -19.982500
C -33.196000 -6.397200 -19.186200
N -32.707100 -3.818800 -21.462800
C -32.451900 -4.839400 -20.665200
H -32.068100 -3.447200 -21.903200
N -31.975100 -6.879700 -18.981300
N -31.188100 -5.264000 -20.569600
C -30.997900 -6.311800 -19.719400
N -29.756900 -6.759100 -19.587800
H -29.586600 -7.400100 -19.039500
H -29.122900 -6.409100 -20.050400
32
Fragment
H -29.477200 -9.817900 -21.493300
H -29.013500 -8.826900 -22.504200
N -28.843100 -9.467900 -21.955800
C -27.602200 -9.915200 -21.824300
N -27.411900 -10.963000 -20.974000
N -26.625000 -9.347300 -22.562400
H -26.532000 -12.779800 -19.640500
C -26.148200 -11.387600 -20.878500
N -25.893000 -12.408200 -20.080800
C -25.404000 -9.829800 -22.357400
N -25.094500 -10.861300 -21.561200
H -25.087500 -12.700900 -20.001900
H -24.442700 -9.268300 -24.042700
C -24.291100 -9.182300 -23.099700
H -24.248600 -8.252500 -22.865600
H -23.462000 -9.608500 -22.868400
H -35.138100 -6.618500 -18.675300
H -34.351500 -7.974500 -18.678000
C -34.309000 -7.044700 -18.444000
H -34.157400 -6.958700 -17.501000
H -33.512600 -3.526100 -21.541800
N -33.505600 -5.365700 -19.982500
C -33.196000 -6.397200 -19.186200
N -32.707100 -3.818800 -21.462800
C -32.451900 -4.839400 -20.665200
H -32.068100 -3.447200 -21.903200
N -31.975100 -6.879700 -18.981300
N -31.188100 -5.264000 -20.569600
C -30.997900 -6.311800 -19.719400
N -29.756900 -6.759100 -19.587800
H -29.586600 -7.400100 -19.039500
H -29.122900 -6.409100 -20.050400
