28
Fragment
H -7.573100 -7.797500 -6.394800
H -6.745600 -6.845200 -4.482300
C -6.734000 -7.397400 -6.416800
C -6.260900 -6.825300 -5.275600
N -6.058000 -7.413100 -7.556600
H -5.680200 -9.006400 -11.096000
H -5.338400 -9.440700 -12.523300
N -5.163200 -9.007100 -11.814500
C -5.038300 -6.220800 -5.353800
C -4.869700 -6.797500 -7.531200
H -4.686100 -5.822200 -4.590700
N -4.492800 -7.558300 -9.752400
N -4.332100 -6.180200 -6.484700
C -4.058400 -6.824900 -8.776600
C -4.027000 -8.304500 -11.809700
N -3.753300 -8.949200 -14.101600
N -3.592600 -7.571100 -10.833900
H -3.399300 -9.307200 -15.995600
C -3.215700 -8.331900 -13.055200
C -3.047000 -8.908600 -15.232500
N -2.922200 -6.122300 -8.771800
H -2.747000 -5.688700 -8.063000
H -2.405100 -6.123000 -9.490300
N -2.027300 -7.716300 -13.029800
C -1.824400 -8.304000 -15.310700
C -1.351400 -7.732000 -14.169600
H -1.339800 -8.284200 -16.104000
H -0.512300 -7.331900 -14.191500
3
Fragment
H -9.517200 -8.855800 -4.542700
O -9.089100 -8.401200 -4.054100
H -8.442300 -8.919100 -3.691800
31
Fragment
H -7.573100 -7.797500 -6.394800
H -6.745600 -6.845200 -4.482300
C -6.734000 -7.397400 -6.416800
C -6.260900 -6.825300 -5.275600
N -6.058000 -7.413100 -7.556600
H -5.680200 -9.006400 -11.096000
H -5.338400 -9.440700 -12.523300
N -5.163200 -9.007100 -11.814500
C -5.038300 -6.220800 -5.353800
C -4.869700 -6.797500 -7.531200
H -4.686100 -5.822200 -4.590700
N -4.492800 -7.558300 -9.752400
N -4.332100 -6.180200 -6.484700
C -4.058400 -6.824900 -8.776600
C -4.027000 -8.304500 -11.809700
N -3.753300 -8.949200 -14.101600
N -3.592600 -7.571100 -10.833900
H -3.399300 -9.307200 -15.995600
C -3.215700 -8.331900 -13.055200
C -3.047000 -8.908600 -15.232500
N -2.922200 -6.122300 -8.771800
H -2.747000 -5.688700 -8.063000
H -2.405100 -6.123000 -9.490300
N -2.027300 -7.716300 -13.029800
C -1.824400 -8.304000 -15.310700
C -1.351400 -7.732000 -14.169600
H -1.339800 -8.284200 -16.104000
H -0.512300 -7.331900 -14.191500
H -9.517200 -8.855800 -4.542700
O -9.089100 -8.401200 -4.054100
H -8.442300 -8.919100 -3.691800
