3
Fragment
H -11.733100 -13.072400 -25.460400
H -11.562600 -13.824600 -24.248400
O -11.029100 -13.489000 -24.889800
3
Fragment
O -14.394500 -14.351800 -25.470300
H -13.861000 -14.016100 -26.111700
H -13.690500 -14.768300 -24.899700
6
Fragment
H -11.733100 -13.072400 -25.460400
H -11.562600 -13.824600 -24.248400
O -11.029100 -13.489000 -24.889800
O -14.394500 -14.351800 -25.470300
H -13.861000 -14.016100 -26.111700
H -13.690500 -14.768300 -24.899700
