37
Fragment
H -2.347300 -13.621900 -22.276800
H -2.258900 -16.672900 -17.665200
H -1.792800 -20.050700 -22.343800
H -1.745400 -18.598600 -24.159000
C -1.721300 -19.107300 -22.179900
C -1.706400 -18.239200 -23.270000
H -1.672600 -19.261600 -20.127700
C -1.661800 -18.657300 -20.873200
C -1.623000 -16.867200 -23.088100
H -1.611400 -18.026700 -18.221600
H -1.594900 -16.257900 -23.827600
C -1.585200 -17.277100 -20.699700
C -1.566400 -16.411600 -21.787400
N -1.527700 -16.497700 -19.540200
C -1.515300 -17.053000 -18.178500
N -1.493700 -15.126900 -21.259700
C -1.484300 -15.190000 -19.901600
N -1.447300 -14.031700 -19.223100
C -1.437900 -13.902400 -22.041100
H -1.420400 -15.155400 -15.590300
N -1.416800 -14.188100 -17.886500
N -1.391600 -13.034500 -17.320600
O -1.388100 -11.825400 -11.167700
C -1.384600 -14.303600 -15.147600
C -1.367600 -13.115200 -15.920600
C -1.365100 -14.223100 -13.785800
H -1.364300 -15.023000 -13.254600
C -1.322100 -11.890100 -15.254100
C -1.319400 -12.987200 -13.161200
C -1.305400 -11.810200 -13.880400
N -1.300600 -12.924500 -11.708600
H -1.299400 -11.085600 -15.777000
H -1.290000 -10.966200 -13.423300
O -1.195400 -13.984300 -11.085200
H -1.005600 -13.198900 -21.513400
H -0.922400 -14.059400 -22.859500
H -0.667800 -16.826800 -17.741800
37
Fragment
H -1.461700 -14.578300 -6.189900
H -1.207200 -17.345800 -1.072100
H -1.123900 -18.206200 -2.418300
O -0.934200 -17.420900 -12.846500
H -0.839600 -20.438900 -10.508400
H -0.830100 -20.319600 -8.154700
N -0.828900 -18.480600 -12.223100
C -0.824100 -19.595000 -10.051300
C -0.810100 -18.417900 -10.770500
C -0.807500 -19.515000 -8.677600
H -0.765300 -16.382100 -10.677100
C -0.764400 -17.182100 -10.145800
C -0.761900 -18.289900 -8.011100
C -0.745000 -17.101600 -8.784100
O -0.741500 -19.579800 -12.764000
N -0.737900 -18.370700 -6.611100
N -0.712700 -17.217000 -6.045100
H -0.709200 -16.249700 -8.341400
C -0.691600 -17.502700 -1.890600
N -0.682200 -17.373500 -4.708600
C -0.645200 -16.215200 -4.030100
N -0.635800 -16.278300 -2.672000
C -0.614200 -14.352200 -5.753200
N -0.601900 -14.907500 -4.391500
C -0.563200 -14.993500 -2.144300
C -0.544400 -14.128100 -3.232000
H -0.534600 -15.147300 -0.104100
H -0.518200 -13.378500 -5.710100
C -0.506500 -14.538000 -0.843600
C -0.467800 -12.747900 -3.058500
H -0.457000 -12.143500 -3.803900
C -0.423100 -13.166000 -0.661700
C -0.408200 -12.297800 -1.751800
H -0.384100 -12.806600 0.227400
H -0.336700 -11.354500 -1.587900
H 0.129400 -14.732300 -6.266500
H 0.217800 -17.783300 -1.654900
74
Fragment
H -2.347300 -13.621900 -22.276800
H -2.258900 -16.672900 -17.665200
H -1.792800 -20.050700 -22.343800
H -1.745400 -18.598600 -24.159000
C -1.721300 -19.107300 -22.179900
C -1.706400 -18.239200 -23.270000
H -1.672600 -19.261600 -20.127700
C -1.661800 -18.657300 -20.873200
C -1.623000 -16.867200 -23.088100
H -1.611400 -18.026700 -18.221600
H -1.594900 -16.257900 -23.827600
C -1.585200 -17.277100 -20.699700
C -1.566400 -16.411600 -21.787400
N -1.527700 -16.497700 -19.540200
C -1.515300 -17.053000 -18.178500
N -1.493700 -15.126900 -21.259700
C -1.484300 -15.190000 -19.901600
N -1.447300 -14.031700 -19.223100
C -1.437900 -13.902400 -22.041100
H -1.420400 -15.155400 -15.590300
N -1.416800 -14.188100 -17.886500
N -1.391600 -13.034500 -17.320600
O -1.388100 -11.825400 -11.167700
C -1.384600 -14.303600 -15.147600
C -1.367600 -13.115200 -15.920600
C -1.365100 -14.223100 -13.785800
H -1.364300 -15.023000 -13.254600
C -1.322100 -11.890100 -15.254100
C -1.319400 -12.987200 -13.161200
C -1.305400 -11.810200 -13.880400
N -1.300600 -12.924500 -11.708600
H -1.299400 -11.085600 -15.777000
H -1.290000 -10.966200 -13.423300
O -1.195400 -13.984300 -11.085200
H -1.005600 -13.198900 -21.513400
H -0.922400 -14.059400 -22.859500
H -0.667800 -16.826800 -17.741800
H -1.461700 -14.578300 -6.189900
H -1.207200 -17.345800 -1.072100
H -1.123900 -18.206200 -2.418300
O -0.934200 -17.420900 -12.846500
H -0.839600 -20.438900 -10.508400
H -0.830100 -20.319600 -8.154700
N -0.828900 -18.480600 -12.223100
C -0.824100 -19.595000 -10.051300
C -0.810100 -18.417900 -10.770500
C -0.807500 -19.515000 -8.677600
H -0.765300 -16.382100 -10.677100
C -0.764400 -17.182100 -10.145800
C -0.761900 -18.289900 -8.011100
C -0.745000 -17.101600 -8.784100
O -0.741500 -19.579800 -12.764000
N -0.737900 -18.370700 -6.611100
N -0.712700 -17.217000 -6.045100
H -0.709200 -16.249700 -8.341400
C -0.691600 -17.502700 -1.890600
N -0.682200 -17.373500 -4.708600
C -0.645200 -16.215200 -4.030100
N -0.635800 -16.278300 -2.672000
C -0.614200 -14.352200 -5.753200
N -0.601900 -14.907500 -4.391500
C -0.563200 -14.993500 -2.144300
C -0.544400 -14.128100 -3.232000
H -0.534600 -15.147300 -0.104100
H -0.518200 -13.378500 -5.710100
C -0.506500 -14.538000 -0.843600
C -0.467800 -12.747900 -3.058500
H -0.457000 -12.143500 -3.803900
C -0.423100 -13.166000 -0.661700
C -0.408200 -12.297800 -1.751800
H -0.384100 -12.806600 0.227400
H -0.336700 -11.354500 -1.587900
H 0.129400 -14.732300 -6.266500
H 0.217800 -17.783300 -1.654900
