37
Fragment
H -2.347300 -13.621900 -22.276800
H -2.258900 -16.672900 -17.665200
H -1.792800 -20.050700 -22.343800
H -1.745400 -18.598600 -24.159000
C -1.721300 -19.107300 -22.179900
C -1.706400 -18.239200 -23.270000
H -1.672600 -19.261600 -20.127700
C -1.661800 -18.657300 -20.873200
C -1.623000 -16.867200 -23.088100
H -1.611400 -18.026700 -18.221600
H -1.594900 -16.257900 -23.827600
C -1.585200 -17.277100 -20.699700
C -1.566400 -16.411600 -21.787400
N -1.527700 -16.497700 -19.540200
C -1.515300 -17.053000 -18.178500
N -1.493700 -15.126900 -21.259700
C -1.484300 -15.190000 -19.901600
N -1.447300 -14.031700 -19.223100
C -1.437900 -13.902400 -22.041100
H -1.420400 -15.155400 -15.590300
N -1.416800 -14.188100 -17.886500
N -1.391600 -13.034500 -17.320600
O -1.388100 -11.825400 -11.167700
C -1.384600 -14.303600 -15.147600
C -1.367600 -13.115200 -15.920600
C -1.365100 -14.223100 -13.785800
H -1.364300 -15.023000 -13.254600
C -1.322100 -11.890100 -15.254100
C -1.319400 -12.987200 -13.161200
C -1.305400 -11.810200 -13.880400
N -1.300600 -12.924500 -11.708600
H -1.299400 -11.085600 -15.777000
H -1.290000 -10.966200 -13.423300
O -1.195400 -13.984300 -11.085200
H -1.005600 -13.198900 -21.513400
H -0.922400 -14.059400 -22.859500
H -0.667800 -16.826800 -17.741800
5
Fragment
Cl -2.988500 -17.685600 -27.282200
H -1.818600 -16.335200 -28.661800
C -1.604000 -17.174000 -28.247800
Cl -1.246700 -18.337600 -29.508800
Cl -0.203900 -16.934500 -27.208100
42
Fragment
H -2.347300 -13.621900 -22.276800
H -2.258900 -16.672900 -17.665200
H -1.792800 -20.050700 -22.343800
H -1.745400 -18.598600 -24.159000
C -1.721300 -19.107300 -22.179900
C -1.706400 -18.239200 -23.270000
H -1.672600 -19.261600 -20.127700
C -1.661800 -18.657300 -20.873200
C -1.623000 -16.867200 -23.088100
H -1.611400 -18.026700 -18.221600
H -1.594900 -16.257900 -23.827600
C -1.585200 -17.277100 -20.699700
C -1.566400 -16.411600 -21.787400
N -1.527700 -16.497700 -19.540200
C -1.515300 -17.053000 -18.178500
N -1.493700 -15.126900 -21.259700
C -1.484300 -15.190000 -19.901600
N -1.447300 -14.031700 -19.223100
C -1.437900 -13.902400 -22.041100
H -1.420400 -15.155400 -15.590300
N -1.416800 -14.188100 -17.886500
N -1.391600 -13.034500 -17.320600
O -1.388100 -11.825400 -11.167700
C -1.384600 -14.303600 -15.147600
C -1.367600 -13.115200 -15.920600
C -1.365100 -14.223100 -13.785800
H -1.364300 -15.023000 -13.254600
C -1.322100 -11.890100 -15.254100
C -1.319400 -12.987200 -13.161200
C -1.305400 -11.810200 -13.880400
N -1.300600 -12.924500 -11.708600
H -1.299400 -11.085600 -15.777000
H -1.290000 -10.966200 -13.423300
O -1.195400 -13.984300 -11.085200
H -1.005600 -13.198900 -21.513400
H -0.922400 -14.059400 -22.859500
H -0.667800 -16.826800 -17.741800
Cl -2.988500 -17.685600 -27.282200
H -1.818600 -16.335200 -28.661800
C -1.604000 -17.174000 -28.247800
Cl -1.246700 -18.337600 -29.508800
Cl -0.203900 -16.934500 -27.208100
