6
Fragment
N -9.318200 -16.992700 -14.922400
C -8.462400 -16.350000 -15.326100
H -7.626100 -15.066200 -16.592400
C -7.379400 -15.498900 -15.771700
H -7.187800 -14.835700 -15.103800
H -6.589100 -16.024800 -15.910500
6
Fragment
H -8.613400 -19.496900 -14.264900
H -8.014800 -20.686000 -15.071600
C -7.823100 -20.022900 -14.403700
H -7.576500 -20.455600 -13.583000
C -6.740200 -19.171800 -14.849300
N -5.884400 -18.529000 -15.253000
12
Fragment
N -9.318200 -16.992700 -14.922400
C -8.462400 -16.350000 -15.326100
H -7.626100 -15.066200 -16.592400
C -7.379400 -15.498900 -15.771700
H -7.187800 -14.835700 -15.103800
H -6.589100 -16.024800 -15.910500
H -8.613400 -19.496900 -14.264900
H -8.014800 -20.686000 -15.071600
C -7.823100 -20.022900 -14.403700
H -7.576500 -20.455600 -13.583000
C -6.740200 -19.171800 -14.849300
N -5.884400 -18.529000 -15.253000
