6
Fragment
N -9.318200 -16.992700 -14.922400
C -8.462400 -16.350000 -15.326100
H -7.626100 -15.066200 -16.592400
C -7.379400 -15.498900 -15.771700
H -7.187800 -14.835700 -15.103800
H -6.589100 -16.024800 -15.910500
35
Fragment
H -13.040000 -16.618900 -16.239400
O -12.921400 -15.912900 -13.372000
N -12.900300 -14.743600 -10.256800
H -12.438800 -16.076300 -18.456300
C -12.425000 -15.904900 -16.423100
C -12.072800 -15.571900 -17.726000
C -12.051300 -15.306200 -13.941100
C -12.045800 -14.497000 -10.973800
C -11.849100 -15.161800 -15.400000
C -11.194100 -14.516400 -17.996200
O -11.026700 -17.171300 -11.680000
C -10.972200 -14.109400 -15.665100
H -10.971500 -14.310400 -18.906900
C -10.954000 -14.447200 -13.294100
C -10.952100 -14.056600 -11.832300
C -10.637000 -13.763800 -16.972700
C -10.520000 -13.485200 -14.403600
C -10.412900 -12.765600 -11.405300
H -10.044400 -13.031000 -17.158700
C -10.014700 -16.548700 -11.891100
N -10.007500 -11.801400 -10.950200
O -10.000800 -12.410700 -14.254700
C -9.936600 -15.088200 -12.347700
H -8.784500 -18.977800 -11.151800
C -8.625500 -17.008800 -11.730400
C -8.445500 -14.746800 -12.391400
C -8.172200 -18.265900 -11.351600
O -7.962200 -13.677900 -12.689000
C -7.725500 -15.976400 -12.006100
C -6.795800 -18.454700 -11.270600
H -6.453300 -19.313300 -11.012000
C -6.357000 -16.163500 -11.923700
C -5.904300 -17.427300 -11.557700
H -5.742500 -15.449700 -12.110400
H -4.960200 -17.593400 -11.503900
41
Fragment
N -9.318200 -16.992700 -14.922400
C -8.462400 -16.350000 -15.326100
H -7.626100 -15.066200 -16.592400
C -7.379400 -15.498900 -15.771700
H -7.187800 -14.835700 -15.103800
H -6.589100 -16.024800 -15.910500
H -13.040000 -16.618900 -16.239400
O -12.921400 -15.912900 -13.372000
N -12.900300 -14.743600 -10.256800
H -12.438800 -16.076300 -18.456300
C -12.425000 -15.904900 -16.423100
C -12.072800 -15.571900 -17.726000
C -12.051300 -15.306200 -13.941100
C -12.045800 -14.497000 -10.973800
C -11.849100 -15.161800 -15.400000
C -11.194100 -14.516400 -17.996200
O -11.026700 -17.171300 -11.680000
C -10.972200 -14.109400 -15.665100
H -10.971500 -14.310400 -18.906900
C -10.954000 -14.447200 -13.294100
C -10.952100 -14.056600 -11.832300
C -10.637000 -13.763800 -16.972700
C -10.520000 -13.485200 -14.403600
C -10.412900 -12.765600 -11.405300
H -10.044400 -13.031000 -17.158700
C -10.014700 -16.548700 -11.891100
N -10.007500 -11.801400 -10.950200
O -10.000800 -12.410700 -14.254700
C -9.936600 -15.088200 -12.347700
H -8.784500 -18.977800 -11.151800
C -8.625500 -17.008800 -11.730400
C -8.445500 -14.746800 -12.391400
C -8.172200 -18.265900 -11.351600
O -7.962200 -13.677900 -12.689000
C -7.725500 -15.976400 -12.006100
C -6.795800 -18.454700 -11.270600
H -6.453300 -19.313300 -11.012000
C -6.357000 -16.163500 -11.923700
C -5.904300 -17.427300 -11.557700
H -5.742500 -15.449700 -12.110400
H -4.960200 -17.593400 -11.503900
