6
Fragment
N -9.318200 -16.992700 -14.922400
C -8.462400 -16.350000 -15.326100
H -7.626100 -15.066200 -16.592400
C -7.379400 -15.498900 -15.771700
H -7.187800 -14.835700 -15.103800
H -6.589100 -16.024800 -15.910500
35
Fragment
H -10.343600 -8.260900 -18.671500
H -9.561300 -10.404600 -18.065000
C -9.399500 -8.427000 -18.617700
C -8.946900 -9.690700 -18.251700
H -8.850500 -6.540900 -19.163400
C -8.508000 -7.399500 -18.904800
C -7.578400 -9.877800 -18.169300
O -7.341700 -12.176400 -17.486400
C -7.131700 -7.588400 -18.823800
C -6.858300 -11.107400 -17.784000
C -6.678300 -8.845400 -18.445000
H -6.519300 -6.876500 -19.023600
C -5.367200 -10.766100 -17.827700
O -5.303000 -13.443600 -15.920700
N -5.296300 -14.052900 -19.225300
C -5.289100 -9.305500 -18.284300
H -5.259400 -12.823200 -13.016700
C -4.890900 -13.088700 -18.770100
C -4.783800 -12.369100 -15.771800
C -4.666800 -12.090400 -13.202700
C -4.351700 -11.797700 -18.343100
C -4.349800 -11.407000 -16.881300
H -4.332300 -11.543900 -11.268500
C -4.331700 -11.744900 -14.510300
O -4.277200 -8.683000 -18.495400
C -4.109700 -11.337900 -12.179200
C -3.454700 -10.692500 -14.775400
C -3.258000 -11.357300 -19.201600
C -3.252500 -10.548000 -16.234300
C -3.231000 -10.282300 -12.449400
C -2.878800 -9.949400 -13.752300
H -2.865000 -9.778000 -11.719100
N -2.403500 -11.110700 -19.918600
O -2.382400 -9.941400 -16.803400
H -2.263800 -9.235400 -13.936000
41
Fragment
N -9.318200 -16.992700 -14.922400
C -8.462400 -16.350000 -15.326100
H -7.626100 -15.066200 -16.592400
C -7.379400 -15.498900 -15.771700
H -7.187800 -14.835700 -15.103800
H -6.589100 -16.024800 -15.910500
H -10.343600 -8.260900 -18.671500
H -9.561300 -10.404600 -18.065000
C -9.399500 -8.427000 -18.617700
C -8.946900 -9.690700 -18.251700
H -8.850500 -6.540900 -19.163400
C -8.508000 -7.399500 -18.904800
C -7.578400 -9.877800 -18.169300
O -7.341700 -12.176400 -17.486400
C -7.131700 -7.588400 -18.823800
C -6.858300 -11.107400 -17.784000
C -6.678300 -8.845400 -18.445000
H -6.519300 -6.876500 -19.023600
C -5.367200 -10.766100 -17.827700
O -5.303000 -13.443600 -15.920700
N -5.296300 -14.052900 -19.225300
C -5.289100 -9.305500 -18.284300
H -5.259400 -12.823200 -13.016700
C -4.890900 -13.088700 -18.770100
C -4.783800 -12.369100 -15.771800
C -4.666800 -12.090400 -13.202700
C -4.351700 -11.797700 -18.343100
C -4.349800 -11.407000 -16.881300
H -4.332300 -11.543900 -11.268500
C -4.331700 -11.744900 -14.510300
O -4.277200 -8.683000 -18.495400
C -4.109700 -11.337900 -12.179200
C -3.454700 -10.692500 -14.775400
C -3.258000 -11.357300 -19.201600
C -3.252500 -10.548000 -16.234300
C -3.231000 -10.282300 -12.449400
C -2.878800 -9.949400 -13.752300
H -2.865000 -9.778000 -11.719100
N -2.403500 -11.110700 -19.918600
O -2.382400 -9.941400 -16.803400
H -2.263800 -9.235400 -13.936000
