34
Fragment
H -7.293500 -18.093900 -22.282200
H -6.621100 -14.568600 -25.962800
C -6.394500 -17.872800 -22.371100
H -6.167600 -14.192800 -23.720900
N -5.807800 -16.976900 -21.611100
C -5.772700 -14.729500 -25.619000
H -5.629700 -14.624000 -21.465100
N -5.593800 -18.447900 -23.290700
C -5.492200 -14.506600 -24.277900
O -5.062100 -14.043700 -21.577500
F -5.030500 -15.399900 -27.724900
C -4.775500 -15.190500 -26.416200
N -4.533000 -16.982400 -22.086500
C -4.437300 -17.856700 -23.083900
C -4.238700 -14.738400 -23.749900
C -3.955100 -14.593500 -22.260400
H -3.732800 -12.621100 -19.563900
H -3.660600 -18.026800 -23.567200
C -3.585600 -15.962500 -21.665700
H -3.581600 -15.903400 -20.698000
C -3.519900 -15.440000 -25.961000
C -3.284500 -15.208300 -24.627500
H -3.157400 -12.684200 -22.262800
C -2.932500 -13.095100 -19.577900
H -2.851000 -15.752800 -26.526400
C -2.831400 -13.569400 -22.038200
H -2.693800 -16.210700 -21.955400
N -2.357000 -13.570300 -20.667500
N -2.210600 -13.389300 -18.511700
H -2.092200 -13.774100 -22.631100
F -2.039500 -15.487200 -24.167600
N -1.206500 -14.210300 -20.333200
C -1.172400 -14.065400 -19.032300
H -0.482300 -14.404200 -18.508700
34
Fragment
H -8.942100 -9.778100 -23.034100
C -8.252000 -10.116800 -22.510500
N -8.217900 -9.972000 -21.209500
F -7.384900 -8.695100 -17.375100
H -7.332200 -10.408100 -18.911700
N -7.213700 -10.793000 -23.031000
N -7.067400 -10.612000 -20.875200
H -6.730600 -7.971600 -19.587400
C -6.592900 -10.612900 -19.504600
H -6.573300 -8.429400 -15.016300
C -6.491800 -11.087100 -21.964900
H -6.267000 -11.498100 -19.280000
C -6.139900 -8.974000 -16.915200
C -5.904400 -8.742200 -15.581700
H -5.842700 -8.278800 -20.844800
C -5.838800 -8.219800 -19.877100
H -5.763700 -6.155400 -17.975600
H -5.691600 -11.561100 -21.978900
C -5.469300 -9.588700 -19.282400
C -5.185700 -9.443900 -17.792900
C -4.987100 -6.325600 -18.458800
N -4.891400 -7.199900 -19.456300
C -4.648900 -8.991800 -15.126600
F -4.393900 -8.782400 -13.817800
O -4.362300 -10.138600 -19.965300
C -3.932200 -9.675700 -17.264900
N -3.830500 -5.734300 -18.252100
H -3.794600 -9.558300 -20.077600
C -3.651700 -9.452800 -15.923800
N -3.616600 -7.205400 -19.931700
H -3.256800 -9.989500 -17.821800
C -3.029900 -6.309500 -19.171700
H -2.803300 -9.613700 -15.579900
H -2.130800 -6.088400 -19.260600
68
Fragment
H -7.293500 -18.093900 -22.282200
H -6.621100 -14.568600 -25.962800
C -6.394500 -17.872800 -22.371100
H -6.167600 -14.192800 -23.720900
N -5.807800 -16.976900 -21.611100
C -5.772700 -14.729500 -25.619000
H -5.629700 -14.624000 -21.465100
N -5.593800 -18.447900 -23.290700
C -5.492200 -14.506600 -24.277900
O -5.062100 -14.043700 -21.577500
F -5.030500 -15.399900 -27.724900
C -4.775500 -15.190500 -26.416200
N -4.533000 -16.982400 -22.086500
C -4.437300 -17.856700 -23.083900
C -4.238700 -14.738400 -23.749900
C -3.955100 -14.593500 -22.260400
H -3.732800 -12.621100 -19.563900
H -3.660600 -18.026800 -23.567200
C -3.585600 -15.962500 -21.665700
H -3.581600 -15.903400 -20.698000
C -3.519900 -15.440000 -25.961000
C -3.284500 -15.208300 -24.627500
H -3.157400 -12.684200 -22.262800
C -2.932500 -13.095100 -19.577900
H -2.851000 -15.752800 -26.526400
C -2.831400 -13.569400 -22.038200
H -2.693800 -16.210700 -21.955400
N -2.357000 -13.570300 -20.667500
N -2.210600 -13.389300 -18.511700
H -2.092200 -13.774100 -22.631100
F -2.039500 -15.487200 -24.167600
N -1.206500 -14.210300 -20.333200
C -1.172400 -14.065400 -19.032300
H -0.482300 -14.404200 -18.508700
H -8.942100 -9.778100 -23.034100
C -8.252000 -10.116800 -22.510500
N -8.217900 -9.972000 -21.209500
F -7.384900 -8.695100 -17.375100
H -7.332200 -10.408100 -18.911700
N -7.213700 -10.793000 -23.031000
N -7.067400 -10.612000 -20.875200
H -6.730600 -7.971600 -19.587400
C -6.592900 -10.612900 -19.504600
H -6.573300 -8.429400 -15.016300
C -6.491800 -11.087100 -21.964900
H -6.267000 -11.498100 -19.280000
C -6.139900 -8.974000 -16.915200
C -5.904400 -8.742200 -15.581700
H -5.842700 -8.278800 -20.844800
C -5.838800 -8.219800 -19.877100
H -5.763700 -6.155400 -17.975600
H -5.691600 -11.561100 -21.978900
C -5.469300 -9.588700 -19.282400
C -5.185700 -9.443900 -17.792900
C -4.987100 -6.325600 -18.458800
N -4.891400 -7.199900 -19.456300
C -4.648900 -8.991800 -15.126600
F -4.393900 -8.782400 -13.817800
O -4.362300 -10.138600 -19.965300
C -3.932200 -9.675700 -17.264900
N -3.830500 -5.734300 -18.252100
H -3.794600 -9.558300 -20.077600
C -3.651700 -9.452800 -15.923800
N -3.616600 -7.205400 -19.931700
H -3.256800 -9.989500 -17.821800
C -3.029900 -6.309500 -19.171700
H -2.803300 -9.613700 -15.579900
H -2.130800 -6.088400 -19.260600
