34
Fragment
H -20.035200 -13.216100 -48.424600
N -19.532600 -11.431500 -49.111200
H -19.413200 -8.958500 -51.575800
C -19.391700 -12.544600 -48.421900
H -19.239100 -10.514000 -51.487000
H -18.855900 -8.902200 -49.263700
N -18.801800 -8.731900 -53.968700
C -18.788100 -9.686900 -51.719700
F -18.635000 -6.869800 -50.417300
H -18.457600 -8.675700 -55.909000
N -18.423600 -9.725200 -53.125600
N -18.383700 -10.776400 -48.799200
C -18.347600 -9.157300 -55.120100
N -18.259700 -12.644800 -47.717600
C -18.067200 -9.464500 -49.323400
C -17.783400 -10.659100 -53.812500
N -17.716300 -10.330700 -55.081800
C -17.660000 -11.508100 -47.987300
C -17.582900 -9.499500 -50.794000
H -17.430500 -11.438000 -53.446900
C -17.390100 -6.958000 -50.929600
H -17.375900 -9.062800 -48.773800
H -17.176500 -4.962400 -51.085800
C -16.837200 -8.209600 -51.121000
H -16.832800 -11.255500 -47.646800
O -16.777900 -10.627300 -51.021800
C -16.767300 -5.784600 -51.231600
H -16.152400 -10.628900 -50.491700
C -15.561000 -8.230800 -51.643500
C -15.510300 -5.876700 -51.758600
H -15.143100 -9.049700 -51.784000
C -14.885400 -7.069600 -51.963800
F -14.867000 -4.734300 -52.086600
H -14.024400 -7.101400 -52.310700
34
Fragment
H -24.959300 -11.175700 -54.870900
F -24.116700 -8.808500 -55.095000
C -24.098300 -11.143900 -55.217800
H -23.840600 -13.124000 -55.397600
C -23.473400 -9.950900 -55.423000
C -23.422700 -12.305000 -55.538100
H -22.831300 -14.703200 -56.689900
C -22.216400 -9.858900 -55.950000
O -22.205800 -14.701500 -56.159800
H -22.150900 -15.329800 -59.534800
C -22.146400 -12.283900 -56.060600
H -21.807200 -9.036700 -56.095800
H -21.607700 -13.137000 -58.407800
C -21.593600 -11.032300 -56.252000
H -21.553200 -15.512300 -53.734700
C -21.400800 -13.573800 -56.387600
C -21.323700 -15.582400 -59.194300
N -21.267300 -14.404900 -52.099700
C -21.200300 -14.733300 -53.369100
C -20.916500 -13.538700 -57.858200
N -20.724000 -16.719100 -59.464000
C -20.636000 -13.231500 -52.061500
N -20.600000 -14.850600 -58.382400
N -20.560100 -13.799500 -54.056000
H -20.526100 -12.750000 -51.272600
F -20.348700 -10.944100 -56.764300
C -20.195600 -13.761200 -55.461900
N -20.181900 -12.806200 -53.212900
H -20.127800 -12.976500 -57.917900
H -19.744500 -14.588300 -55.694600
C -19.592000 -16.618900 -58.759700
H -19.570500 -13.032700 -55.605800
N -19.451100 -15.505800 -58.070400
H -18.948500 -17.290300 -58.757000
68
Fragment
H -20.035200 -13.216100 -48.424600
N -19.532600 -11.431500 -49.111200
H -19.413200 -8.958500 -51.575800
C -19.391700 -12.544600 -48.421900
H -19.239100 -10.514000 -51.487000
H -18.855900 -8.902200 -49.263700
N -18.801800 -8.731900 -53.968700
C -18.788100 -9.686900 -51.719700
F -18.635000 -6.869800 -50.417300
H -18.457600 -8.675700 -55.909000
N -18.423600 -9.725200 -53.125600
N -18.383700 -10.776400 -48.799200
C -18.347600 -9.157300 -55.120100
N -18.259700 -12.644800 -47.717600
C -18.067200 -9.464500 -49.323400
C -17.783400 -10.659100 -53.812500
N -17.716300 -10.330700 -55.081800
C -17.660000 -11.508100 -47.987300
C -17.582900 -9.499500 -50.794000
H -17.430500 -11.438000 -53.446900
C -17.390100 -6.958000 -50.929600
H -17.375900 -9.062800 -48.773800
H -17.176500 -4.962400 -51.085800
C -16.837200 -8.209600 -51.121000
H -16.832800 -11.255500 -47.646800
O -16.777900 -10.627300 -51.021800
C -16.767300 -5.784600 -51.231600
H -16.152400 -10.628900 -50.491700
C -15.561000 -8.230800 -51.643500
C -15.510300 -5.876700 -51.758600
H -15.143100 -9.049700 -51.784000
C -14.885400 -7.069600 -51.963800
F -14.867000 -4.734300 -52.086600
H -14.024400 -7.101400 -52.310700
H -24.959300 -11.175700 -54.870900
F -24.116700 -8.808500 -55.095000
C -24.098300 -11.143900 -55.217800
H -23.840600 -13.124000 -55.397600
C -23.473400 -9.950900 -55.423000
C -23.422700 -12.305000 -55.538100
H -22.831300 -14.703200 -56.689900
C -22.216400 -9.858900 -55.950000
O -22.205800 -14.701500 -56.159800
H -22.150900 -15.329800 -59.534800
C -22.146400 -12.283900 -56.060600
H -21.807200 -9.036700 -56.095800
H -21.607700 -13.137000 -58.407800
C -21.593600 -11.032300 -56.252000
H -21.553200 -15.512300 -53.734700
C -21.400800 -13.573800 -56.387600
C -21.323700 -15.582400 -59.194300
N -21.267300 -14.404900 -52.099700
C -21.200300 -14.733300 -53.369100
C -20.916500 -13.538700 -57.858200
N -20.724000 -16.719100 -59.464000
C -20.636000 -13.231500 -52.061500
N -20.600000 -14.850600 -58.382400
N -20.560100 -13.799500 -54.056000
H -20.526100 -12.750000 -51.272600
F -20.348700 -10.944100 -56.764300
C -20.195600 -13.761200 -55.461900
N -20.181900 -12.806200 -53.212900
H -20.127800 -12.976500 -57.917900
H -19.744500 -14.588300 -55.694600
C -19.592000 -16.618900 -58.759700
H -19.570500 -13.032700 -55.605800
N -19.451100 -15.505800 -58.070400
H -18.948500 -17.290300 -58.757000
