34
Fragment
H -20.035200 -13.216100 -48.424600
N -19.532600 -11.431500 -49.111200
H -19.413200 -8.958500 -51.575800
C -19.391700 -12.544600 -48.421900
H -19.239100 -10.514000 -51.487000
H -18.855900 -8.902200 -49.263700
N -18.801800 -8.731900 -53.968700
C -18.788100 -9.686900 -51.719700
F -18.635000 -6.869800 -50.417300
H -18.457600 -8.675700 -55.909000
N -18.423600 -9.725200 -53.125600
N -18.383700 -10.776400 -48.799200
C -18.347600 -9.157300 -55.120100
N -18.259700 -12.644800 -47.717600
C -18.067200 -9.464500 -49.323400
C -17.783400 -10.659100 -53.812500
N -17.716300 -10.330700 -55.081800
C -17.660000 -11.508100 -47.987300
C -17.582900 -9.499500 -50.794000
H -17.430500 -11.438000 -53.446900
C -17.390100 -6.958000 -50.929600
H -17.375900 -9.062800 -48.773800
H -17.176500 -4.962400 -51.085800
C -16.837200 -8.209600 -51.121000
H -16.832800 -11.255500 -47.646800
O -16.777900 -10.627300 -51.021800
C -16.767300 -5.784600 -51.231600
H -16.152400 -10.628900 -50.491700
C -15.561000 -8.230800 -51.643500
C -15.510300 -5.876700 -51.758600
H -15.143100 -9.049700 -51.784000
C -14.885400 -7.069600 -51.963800
F -14.867000 -4.734300 -52.086600
H -14.024400 -7.101400 -52.310700
34
Fragment
H -16.417800 -15.249900 -54.870900
F -15.575200 -12.882800 -55.095000
C -15.556800 -15.218100 -55.217800
H -15.299100 -17.198200 -55.397600
C -14.931900 -14.025200 -55.423000
C -14.881200 -16.379300 -55.538100
H -14.289800 -18.777400 -56.689900
C -13.674900 -13.933100 -55.950000
O -13.664300 -18.775800 -56.159800
H -13.609400 -19.404000 -59.534800
C -13.604900 -16.358100 -56.060600
H -13.265700 -13.110900 -56.095800
H -13.066200 -17.211300 -58.407800
C -13.052100 -15.106500 -56.252000
H -13.011700 -19.586500 -53.734700
C -12.859300 -17.648000 -56.387600
C -12.782200 -19.656600 -59.194300
N -12.725800 -18.479200 -52.099700
C -12.658800 -18.807600 -53.369100
C -12.375000 -17.613000 -57.858200
N -12.182500 -20.793300 -59.464000
C -12.094500 -17.305800 -52.061500
N -12.058500 -18.924900 -58.382400
N -12.018600 -17.873700 -54.056000
H -11.984600 -16.824200 -51.272600
F -11.807200 -15.018300 -56.764300
C -11.654100 -17.835400 -55.461900
N -11.640400 -16.880400 -53.212900
H -11.586300 -17.050700 -57.917900
H -11.203000 -18.662500 -55.694600
C -11.050500 -20.693100 -58.759700
H -11.029000 -17.107000 -55.605800
N -10.909600 -19.580000 -58.070400
H -10.407000 -21.364600 -58.757000
68
Fragment
H -20.035200 -13.216100 -48.424600
N -19.532600 -11.431500 -49.111200
H -19.413200 -8.958500 -51.575800
C -19.391700 -12.544600 -48.421900
H -19.239100 -10.514000 -51.487000
H -18.855900 -8.902200 -49.263700
N -18.801800 -8.731900 -53.968700
C -18.788100 -9.686900 -51.719700
F -18.635000 -6.869800 -50.417300
H -18.457600 -8.675700 -55.909000
N -18.423600 -9.725200 -53.125600
N -18.383700 -10.776400 -48.799200
C -18.347600 -9.157300 -55.120100
N -18.259700 -12.644800 -47.717600
C -18.067200 -9.464500 -49.323400
C -17.783400 -10.659100 -53.812500
N -17.716300 -10.330700 -55.081800
C -17.660000 -11.508100 -47.987300
C -17.582900 -9.499500 -50.794000
H -17.430500 -11.438000 -53.446900
C -17.390100 -6.958000 -50.929600
H -17.375900 -9.062800 -48.773800
H -17.176500 -4.962400 -51.085800
C -16.837200 -8.209600 -51.121000
H -16.832800 -11.255500 -47.646800
O -16.777900 -10.627300 -51.021800
C -16.767300 -5.784600 -51.231600
H -16.152400 -10.628900 -50.491700
C -15.561000 -8.230800 -51.643500
C -15.510300 -5.876700 -51.758600
H -15.143100 -9.049700 -51.784000
C -14.885400 -7.069600 -51.963800
F -14.867000 -4.734300 -52.086600
H -14.024400 -7.101400 -52.310700
H -16.417800 -15.249900 -54.870900
F -15.575200 -12.882800 -55.095000
C -15.556800 -15.218100 -55.217800
H -15.299100 -17.198200 -55.397600
C -14.931900 -14.025200 -55.423000
C -14.881200 -16.379300 -55.538100
H -14.289800 -18.777400 -56.689900
C -13.674900 -13.933100 -55.950000
O -13.664300 -18.775800 -56.159800
H -13.609400 -19.404000 -59.534800
C -13.604900 -16.358100 -56.060600
H -13.265700 -13.110900 -56.095800
H -13.066200 -17.211300 -58.407800
C -13.052100 -15.106500 -56.252000
H -13.011700 -19.586500 -53.734700
C -12.859300 -17.648000 -56.387600
C -12.782200 -19.656600 -59.194300
N -12.725800 -18.479200 -52.099700
C -12.658800 -18.807600 -53.369100
C -12.375000 -17.613000 -57.858200
N -12.182500 -20.793300 -59.464000
C -12.094500 -17.305800 -52.061500
N -12.058500 -18.924900 -58.382400
N -12.018600 -17.873700 -54.056000
H -11.984600 -16.824200 -51.272600
F -11.807200 -15.018300 -56.764300
C -11.654100 -17.835400 -55.461900
N -11.640400 -16.880400 -53.212900
H -11.586300 -17.050700 -57.917900
H -11.203000 -18.662500 -55.694600
C -11.050500 -20.693100 -58.759700
H -11.029000 -17.107000 -55.605800
N -10.909600 -19.580000 -58.070400
H -10.407000 -21.364600 -58.757000
