34
Fragment
H -7.293500 -18.093900 -22.282200
H -6.621100 -14.568600 -25.962800
C -6.394500 -17.872800 -22.371100
H -6.167600 -14.192800 -23.720900
N -5.807800 -16.976900 -21.611100
C -5.772700 -14.729500 -25.619000
H -5.629700 -14.624000 -21.465100
N -5.593800 -18.447900 -23.290700
C -5.492200 -14.506600 -24.277900
O -5.062100 -14.043700 -21.577500
F -5.030500 -15.399900 -27.724900
C -4.775500 -15.190500 -26.416200
N -4.533000 -16.982400 -22.086500
C -4.437300 -17.856700 -23.083900
C -4.238700 -14.738400 -23.749900
C -3.955100 -14.593500 -22.260400
H -3.732800 -12.621100 -19.563900
H -3.660600 -18.026800 -23.567200
C -3.585600 -15.962500 -21.665700
H -3.581600 -15.903400 -20.698000
C -3.519900 -15.440000 -25.961000
C -3.284500 -15.208300 -24.627500
H -3.157400 -12.684200 -22.262800
C -2.932500 -13.095100 -19.577900
H -2.851000 -15.752800 -26.526400
C -2.831400 -13.569400 -22.038200
H -2.693800 -16.210700 -21.955400
N -2.357000 -13.570300 -20.667500
N -2.210600 -13.389300 -18.511700
H -2.092200 -13.774100 -22.631100
F -2.039500 -15.487200 -24.167600
N -1.206500 -14.210300 -20.333200
C -1.172400 -14.065400 -19.032300
H -0.482300 -14.404200 -18.508700
34
Fragment
H -13.863400 -18.093900 -22.282200
H -13.191000 -14.568600 -25.962800
C -12.964400 -17.872800 -22.371100
H -12.737500 -14.192800 -23.720900
N -12.377700 -16.976900 -21.611100
C -12.342600 -14.729500 -25.619000
H -12.199600 -14.624000 -21.465100
N -12.163700 -18.447900 -23.290700
C -12.062100 -14.506600 -24.277900
O -11.632000 -14.043700 -21.577500
F -11.600400 -15.399900 -27.724900
C -11.345400 -15.190500 -26.416200
N -11.102900 -16.982400 -22.086500
C -11.007200 -17.856700 -23.083900
C -10.808600 -14.738400 -23.749900
C -10.525000 -14.593500 -22.260400
H -10.302700 -12.621100 -19.563900
H -10.230500 -18.026800 -23.567200
C -10.155500 -15.962500 -21.665700
H -10.151500 -15.903400 -20.698000
C -10.089800 -15.440000 -25.961000
C -9.854400 -15.208300 -24.627500
H -9.727300 -12.684200 -22.262800
C -9.502400 -13.095100 -19.577900
H -9.420900 -15.752800 -26.526400
C -9.401300 -13.569400 -22.038200
H -9.263700 -16.210700 -21.955400
N -8.926900 -13.570300 -20.667500
N -8.780500 -13.389300 -18.511700
H -8.662100 -13.774100 -22.631100
F -8.609400 -15.487200 -24.167600
N -7.776400 -14.210300 -20.333200
C -7.742300 -14.065400 -19.032300
H -7.052200 -14.404200 -18.508700
68
Fragment
H -7.293500 -18.093900 -22.282200
H -6.621100 -14.568600 -25.962800
C -6.394500 -17.872800 -22.371100
H -6.167600 -14.192800 -23.720900
N -5.807800 -16.976900 -21.611100
C -5.772700 -14.729500 -25.619000
H -5.629700 -14.624000 -21.465100
N -5.593800 -18.447900 -23.290700
C -5.492200 -14.506600 -24.277900
O -5.062100 -14.043700 -21.577500
F -5.030500 -15.399900 -27.724900
C -4.775500 -15.190500 -26.416200
N -4.533000 -16.982400 -22.086500
C -4.437300 -17.856700 -23.083900
C -4.238700 -14.738400 -23.749900
C -3.955100 -14.593500 -22.260400
H -3.732800 -12.621100 -19.563900
H -3.660600 -18.026800 -23.567200
C -3.585600 -15.962500 -21.665700
H -3.581600 -15.903400 -20.698000
C -3.519900 -15.440000 -25.961000
C -3.284500 -15.208300 -24.627500
H -3.157400 -12.684200 -22.262800
C -2.932500 -13.095100 -19.577900
H -2.851000 -15.752800 -26.526400
C -2.831400 -13.569400 -22.038200
H -2.693800 -16.210700 -21.955400
N -2.357000 -13.570300 -20.667500
N -2.210600 -13.389300 -18.511700
H -2.092200 -13.774100 -22.631100
F -2.039500 -15.487200 -24.167600
N -1.206500 -14.210300 -20.333200
C -1.172400 -14.065400 -19.032300
H -0.482300 -14.404200 -18.508700
H -13.863400 -18.093900 -22.282200
H -13.191000 -14.568600 -25.962800
C -12.964400 -17.872800 -22.371100
H -12.737500 -14.192800 -23.720900
N -12.377700 -16.976900 -21.611100
C -12.342600 -14.729500 -25.619000
H -12.199600 -14.624000 -21.465100
N -12.163700 -18.447900 -23.290700
C -12.062100 -14.506600 -24.277900
O -11.632000 -14.043700 -21.577500
F -11.600400 -15.399900 -27.724900
C -11.345400 -15.190500 -26.416200
N -11.102900 -16.982400 -22.086500
C -11.007200 -17.856700 -23.083900
C -10.808600 -14.738400 -23.749900
C -10.525000 -14.593500 -22.260400
H -10.302700 -12.621100 -19.563900
H -10.230500 -18.026800 -23.567200
C -10.155500 -15.962500 -21.665700
H -10.151500 -15.903400 -20.698000
C -10.089800 -15.440000 -25.961000
C -9.854400 -15.208300 -24.627500
H -9.727300 -12.684200 -22.262800
C -9.502400 -13.095100 -19.577900
H -9.420900 -15.752800 -26.526400
C -9.401300 -13.569400 -22.038200
H -9.263700 -16.210700 -21.955400
N -8.926900 -13.570300 -20.667500
N -8.780500 -13.389300 -18.511700
H -8.662100 -13.774100 -22.631100
F -8.609400 -15.487200 -24.167600
N -7.776400 -14.210300 -20.333200
C -7.742300 -14.065400 -19.032300
H -7.052200 -14.404200 -18.508700
