34
Fragment
H -7.293500 -18.093900 -22.282200
H -6.621100 -14.568600 -25.962800
C -6.394500 -17.872800 -22.371100
H -6.167600 -14.192800 -23.720900
N -5.807800 -16.976900 -21.611100
C -5.772700 -14.729500 -25.619000
H -5.629700 -14.624000 -21.465100
N -5.593800 -18.447900 -23.290700
C -5.492200 -14.506600 -24.277900
O -5.062100 -14.043700 -21.577500
F -5.030500 -15.399900 -27.724900
C -4.775500 -15.190500 -26.416200
N -4.533000 -16.982400 -22.086500
C -4.437300 -17.856700 -23.083900
C -4.238700 -14.738400 -23.749900
C -3.955100 -14.593500 -22.260400
H -3.732800 -12.621100 -19.563900
H -3.660600 -18.026800 -23.567200
C -3.585600 -15.962500 -21.665700
H -3.581600 -15.903400 -20.698000
C -3.519900 -15.440000 -25.961000
C -3.284500 -15.208300 -24.627500
H -3.157400 -12.684200 -22.262800
C -2.932500 -13.095100 -19.577900
H -2.851000 -15.752800 -26.526400
C -2.831400 -13.569400 -22.038200
H -2.693800 -16.210700 -21.955400
N -2.357000 -13.570300 -20.667500
N -2.210600 -13.389300 -18.511700
H -2.092200 -13.774100 -22.631100
F -2.039500 -15.487200 -24.167600
N -1.206500 -14.210300 -20.333200
C -1.172400 -14.065400 -19.032300
H -0.482300 -14.404200 -18.508700
34
Fragment
H -0.723600 -18.093900 -22.282200
H -0.051200 -14.568600 -25.962800
C 0.175400 -17.872800 -22.371100
H 0.402300 -14.192800 -23.720900
N 0.762100 -16.976900 -21.611100
C 0.797200 -14.729500 -25.619000
H 0.940200 -14.624000 -21.465100
N 0.976100 -18.447900 -23.290700
C 1.077700 -14.506600 -24.277900
O 1.507800 -14.043700 -21.577500
F 1.539400 -15.399900 -27.724900
C 1.794400 -15.190500 -26.416200
N 2.036900 -16.982400 -22.086500
C 2.132600 -17.856700 -23.083900
C 2.331200 -14.738400 -23.749900
C 2.614800 -14.593500 -22.260400
H 2.837100 -12.621100 -19.563900
H 2.909300 -18.026800 -23.567200
C 2.984300 -15.962500 -21.665700
H 2.988300 -15.903400 -20.698000
C 3.050000 -15.440000 -25.961000
C 3.285400 -15.208300 -24.627500
H 3.412500 -12.684200 -22.262800
C 3.637400 -13.095100 -19.577900
H 3.718900 -15.752800 -26.526400
C 3.738500 -13.569400 -22.038200
H 3.876100 -16.210700 -21.955400
N 4.212900 -13.570300 -20.667500
N 4.359300 -13.389300 -18.511700
H 4.477700 -13.774100 -22.631100
F 4.530400 -15.487200 -24.167600
N 5.363400 -14.210300 -20.333200
C 5.397500 -14.065400 -19.032300
H 6.087600 -14.404200 -18.508700
68
Fragment
H -7.293500 -18.093900 -22.282200
H -6.621100 -14.568600 -25.962800
C -6.394500 -17.872800 -22.371100
H -6.167600 -14.192800 -23.720900
N -5.807800 -16.976900 -21.611100
C -5.772700 -14.729500 -25.619000
H -5.629700 -14.624000 -21.465100
N -5.593800 -18.447900 -23.290700
C -5.492200 -14.506600 -24.277900
O -5.062100 -14.043700 -21.577500
F -5.030500 -15.399900 -27.724900
C -4.775500 -15.190500 -26.416200
N -4.533000 -16.982400 -22.086500
C -4.437300 -17.856700 -23.083900
C -4.238700 -14.738400 -23.749900
C -3.955100 -14.593500 -22.260400
H -3.732800 -12.621100 -19.563900
H -3.660600 -18.026800 -23.567200
C -3.585600 -15.962500 -21.665700
H -3.581600 -15.903400 -20.698000
C -3.519900 -15.440000 -25.961000
C -3.284500 -15.208300 -24.627500
H -3.157400 -12.684200 -22.262800
C -2.932500 -13.095100 -19.577900
H -2.851000 -15.752800 -26.526400
C -2.831400 -13.569400 -22.038200
H -2.693800 -16.210700 -21.955400
N -2.357000 -13.570300 -20.667500
N -2.210600 -13.389300 -18.511700
H -2.092200 -13.774100 -22.631100
F -2.039500 -15.487200 -24.167600
N -1.206500 -14.210300 -20.333200
C -1.172400 -14.065400 -19.032300
H -0.482300 -14.404200 -18.508700
H -0.723600 -18.093900 -22.282200
H -0.051200 -14.568600 -25.962800
C 0.175400 -17.872800 -22.371100
H 0.402300 -14.192800 -23.720900
N 0.762100 -16.976900 -21.611100
C 0.797200 -14.729500 -25.619000
H 0.940200 -14.624000 -21.465100
N 0.976100 -18.447900 -23.290700
C 1.077700 -14.506600 -24.277900
O 1.507800 -14.043700 -21.577500
F 1.539400 -15.399900 -27.724900
C 1.794400 -15.190500 -26.416200
N 2.036900 -16.982400 -22.086500
C 2.132600 -17.856700 -23.083900
C 2.331200 -14.738400 -23.749900
C 2.614800 -14.593500 -22.260400
H 2.837100 -12.621100 -19.563900
H 2.909300 -18.026800 -23.567200
C 2.984300 -15.962500 -21.665700
H 2.988300 -15.903400 -20.698000
C 3.050000 -15.440000 -25.961000
C 3.285400 -15.208300 -24.627500
H 3.412500 -12.684200 -22.262800
C 3.637400 -13.095100 -19.577900
H 3.718900 -15.752800 -26.526400
C 3.738500 -13.569400 -22.038200
H 3.876100 -16.210700 -21.955400
N 4.212900 -13.570300 -20.667500
N 4.359300 -13.389300 -18.511700
H 4.477700 -13.774100 -22.631100
F 4.530400 -15.487200 -24.167600
N 5.363400 -14.210300 -20.333200
C 5.397500 -14.065400 -19.032300
H 6.087600 -14.404200 -18.508700
