34
Fragment
H -17.895200 -16.161200 -37.164000
C -17.042800 -16.179800 -37.534200
F -17.004400 -18.504100 -37.378700
H -16.815000 -14.191700 -37.733900
C -16.398400 -17.358100 -37.746300
C -16.391500 -15.006400 -37.885600
H -15.890700 -12.619100 -39.040800
O -15.245200 -12.602100 -38.537000
C -15.163100 -17.439000 -38.317400
H -15.152300 -11.796400 -41.902000
C -15.136800 -15.011400 -38.452100
H -14.746200 -18.256900 -38.465100
H -14.734400 -14.063000 -40.819700
C -14.566100 -16.254300 -38.664600
H -14.465900 -11.679700 -36.194000
C -14.418000 -13.710600 -38.797000
C -14.292200 -11.627100 -41.591400
N -14.122900 -12.713100 -34.521600
C -14.111500 -12.449100 -35.809100
C -13.996100 -13.728500 -40.285700
N -13.610400 -12.419500 -40.781400
N -13.577200 -10.564700 -41.894500
N -13.528300 -13.424100 -36.484700
C -13.509700 -13.906700 -34.463100
H -13.365000 -14.355300 -33.660900
F -13.341200 -16.324900 -39.233100
H -13.250600 -14.339900 -40.396500
C -13.193900 -13.502600 -37.902900
N -13.132000 -14.390100 -35.619700
H -12.745900 -12.683900 -38.165700
H -12.573900 -14.236300 -38.041900
C -12.430900 -10.769500 -41.216600
N -12.389900 -11.881400 -40.527200
H -11.722900 -10.167000 -41.237100
15
Fragment
O -13.670600 -16.875400 -43.905700
H -13.644200 -17.375900 -43.257700
H -13.540500 -14.931100 -45.261200
O -12.639900 -11.993200 -45.960300
C -12.616100 -15.153800 -45.066900
C -12.574600 -16.164400 -43.952300
O -12.483600 -13.319100 -43.589900
H -12.229000 -15.544100 -45.865600
H -11.994200 -12.743800 -43.272100
C -11.894700 -12.934100 -45.896700
C -11.864000 -13.893700 -44.715100
O -11.645300 -16.332000 -43.208800
H -11.122100 -12.739800 -47.457400
O -11.034000 -13.246500 -46.820100
H -10.934500 -14.116400 -44.498400
49
Fragment
H -17.895200 -16.161200 -37.164000
C -17.042800 -16.179800 -37.534200
F -17.004400 -18.504100 -37.378700
H -16.815000 -14.191700 -37.733900
C -16.398400 -17.358100 -37.746300
C -16.391500 -15.006400 -37.885600
H -15.890700 -12.619100 -39.040800
O -15.245200 -12.602100 -38.537000
C -15.163100 -17.439000 -38.317400
H -15.152300 -11.796400 -41.902000
C -15.136800 -15.011400 -38.452100
H -14.746200 -18.256900 -38.465100
H -14.734400 -14.063000 -40.819700
C -14.566100 -16.254300 -38.664600
H -14.465900 -11.679700 -36.194000
C -14.418000 -13.710600 -38.797000
C -14.292200 -11.627100 -41.591400
N -14.122900 -12.713100 -34.521600
C -14.111500 -12.449100 -35.809100
C -13.996100 -13.728500 -40.285700
N -13.610400 -12.419500 -40.781400
N -13.577200 -10.564700 -41.894500
N -13.528300 -13.424100 -36.484700
C -13.509700 -13.906700 -34.463100
H -13.365000 -14.355300 -33.660900
F -13.341200 -16.324900 -39.233100
H -13.250600 -14.339900 -40.396500
C -13.193900 -13.502600 -37.902900
N -13.132000 -14.390100 -35.619700
H -12.745900 -12.683900 -38.165700
H -12.573900 -14.236300 -38.041900
C -12.430900 -10.769500 -41.216600
N -12.389900 -11.881400 -40.527200
H -11.722900 -10.167000 -41.237100
O -13.670600 -16.875400 -43.905700
H -13.644200 -17.375900 -43.257700
H -13.540500 -14.931100 -45.261200
O -12.639900 -11.993200 -45.960300
C -12.616100 -15.153800 -45.066900
C -12.574600 -16.164400 -43.952300
O -12.483600 -13.319100 -43.589900
H -12.229000 -15.544100 -45.865600
H -11.994200 -12.743800 -43.272100
C -11.894700 -12.934100 -45.896700
C -11.864000 -13.893700 -44.715100
O -11.645300 -16.332000 -43.208800
H -11.122100 -12.739800 -47.457400
O -11.034000 -13.246500 -46.820100
H -10.934500 -14.116400 -44.498400
