34
Fragment
H -20.035200 -13.216100 -48.424600
N -19.532600 -11.431500 -49.111200
H -19.413200 -8.958500 -51.575800
C -19.391700 -12.544600 -48.421900
H -19.239100 -10.514000 -51.487000
H -18.855900 -8.902200 -49.263700
N -18.801800 -8.731900 -53.968700
C -18.788100 -9.686900 -51.719700
F -18.635000 -6.869800 -50.417300
H -18.457600 -8.675700 -55.909000
N -18.423600 -9.725200 -53.125600
N -18.383700 -10.776400 -48.799200
C -18.347600 -9.157300 -55.120100
N -18.259700 -12.644800 -47.717600
C -18.067200 -9.464500 -49.323400
C -17.783400 -10.659100 -53.812500
N -17.716300 -10.330700 -55.081800
C -17.660000 -11.508100 -47.987300
C -17.582900 -9.499500 -50.794000
H -17.430500 -11.438000 -53.446900
C -17.390100 -6.958000 -50.929600
H -17.375900 -9.062800 -48.773800
H -17.176500 -4.962400 -51.085800
C -16.837200 -8.209600 -51.121000
H -16.832800 -11.255500 -47.646800
O -16.777900 -10.627300 -51.021800
C -16.767300 -5.784600 -51.231600
H -16.152400 -10.628900 -50.491700
C -15.561000 -8.230800 -51.643500
C -15.510300 -5.876700 -51.758600
H -15.143100 -9.049700 -51.784000
C -14.885400 -7.069600 -51.963800
F -14.867000 -4.734300 -52.086600
H -14.024400 -7.101400 -52.310700
34
Fragment
H -20.035200 -5.067600 -48.424600
N -19.532600 -3.283000 -49.111200
H -19.413200 -0.810000 -51.575800
C -19.391700 -4.396100 -48.421900
H -19.239100 -2.365500 -51.487000
H -18.855900 -0.753700 -49.263700
N -18.801800 -0.583400 -53.968700
C -18.788100 -1.538400 -51.719700
F -18.635000 1.278700 -50.417300
H -18.457600 -0.527200 -55.909000
N -18.423600 -1.576700 -53.125600
N -18.383700 -2.627900 -48.799200
C -18.347600 -1.008800 -55.120100
N -18.259700 -4.496300 -47.717600
C -18.067200 -1.316000 -49.323400
C -17.783400 -2.510600 -53.812500
N -17.716300 -2.182200 -55.081800
C -17.660000 -3.359600 -47.987300
C -17.582900 -1.351000 -50.794000
H -17.430500 -3.289500 -53.446900
C -17.390100 1.190500 -50.929600
H -17.375900 -0.914300 -48.773800
H -17.176500 3.186100 -51.085800
C -16.837200 -0.061100 -51.121000
H -16.832800 -3.107000 -47.646800
O -16.777900 -2.478800 -51.021800
C -16.767300 2.363900 -51.231600
H -16.152400 -2.480400 -50.491700
C -15.561000 -0.082300 -51.643500
C -15.510300 2.271800 -51.758600
H -15.143100 -0.901200 -51.784000
C -14.885400 1.078900 -51.963800
F -14.867000 3.414200 -52.086600
H -14.024400 1.047100 -52.310700
68
Fragment
H -20.035200 -13.216100 -48.424600
N -19.532600 -11.431500 -49.111200
H -19.413200 -8.958500 -51.575800
C -19.391700 -12.544600 -48.421900
H -19.239100 -10.514000 -51.487000
H -18.855900 -8.902200 -49.263700
N -18.801800 -8.731900 -53.968700
C -18.788100 -9.686900 -51.719700
F -18.635000 -6.869800 -50.417300
H -18.457600 -8.675700 -55.909000
N -18.423600 -9.725200 -53.125600
N -18.383700 -10.776400 -48.799200
C -18.347600 -9.157300 -55.120100
N -18.259700 -12.644800 -47.717600
C -18.067200 -9.464500 -49.323400
C -17.783400 -10.659100 -53.812500
N -17.716300 -10.330700 -55.081800
C -17.660000 -11.508100 -47.987300
C -17.582900 -9.499500 -50.794000
H -17.430500 -11.438000 -53.446900
C -17.390100 -6.958000 -50.929600
H -17.375900 -9.062800 -48.773800
H -17.176500 -4.962400 -51.085800
C -16.837200 -8.209600 -51.121000
H -16.832800 -11.255500 -47.646800
O -16.777900 -10.627300 -51.021800
C -16.767300 -5.784600 -51.231600
H -16.152400 -10.628900 -50.491700
C -15.561000 -8.230800 -51.643500
C -15.510300 -5.876700 -51.758600
H -15.143100 -9.049700 -51.784000
C -14.885400 -7.069600 -51.963800
F -14.867000 -4.734300 -52.086600
H -14.024400 -7.101400 -52.310700
H -20.035200 -5.067600 -48.424600
N -19.532600 -3.283000 -49.111200
H -19.413200 -0.810000 -51.575800
C -19.391700 -4.396100 -48.421900
H -19.239100 -2.365500 -51.487000
H -18.855900 -0.753700 -49.263700
N -18.801800 -0.583400 -53.968700
C -18.788100 -1.538400 -51.719700
F -18.635000 1.278700 -50.417300
H -18.457600 -0.527200 -55.909000
N -18.423600 -1.576700 -53.125600
N -18.383700 -2.627900 -48.799200
C -18.347600 -1.008800 -55.120100
N -18.259700 -4.496300 -47.717600
C -18.067200 -1.316000 -49.323400
C -17.783400 -2.510600 -53.812500
N -17.716300 -2.182200 -55.081800
C -17.660000 -3.359600 -47.987300
C -17.582900 -1.351000 -50.794000
H -17.430500 -3.289500 -53.446900
C -17.390100 1.190500 -50.929600
H -17.375900 -0.914300 -48.773800
H -17.176500 3.186100 -51.085800
C -16.837200 -0.061100 -51.121000
H -16.832800 -3.107000 -47.646800
O -16.777900 -2.478800 -51.021800
C -16.767300 2.363900 -51.231600
H -16.152400 -2.480400 -50.491700
C -15.561000 -0.082300 -51.643500
C -15.510300 2.271800 -51.758600
H -15.143100 -0.901200 -51.784000
C -14.885400 1.078900 -51.963800
F -14.867000 3.414200 -52.086600
H -14.024400 1.047100 -52.310700
