34
Fragment
H -17.895200 -16.161200 -37.164000
C -17.042800 -16.179800 -37.534200
F -17.004400 -18.504100 -37.378700
H -16.815000 -14.191700 -37.733900
C -16.398400 -17.358100 -37.746300
C -16.391500 -15.006400 -37.885600
H -15.890700 -12.619100 -39.040800
O -15.245200 -12.602100 -38.537000
C -15.163100 -17.439000 -38.317400
H -15.152300 -11.796400 -41.902000
C -15.136800 -15.011400 -38.452100
H -14.746200 -18.256900 -38.465100
H -14.734400 -14.063000 -40.819700
C -14.566100 -16.254300 -38.664600
H -14.465900 -11.679700 -36.194000
C -14.418000 -13.710600 -38.797000
C -14.292200 -11.627100 -41.591400
N -14.122900 -12.713100 -34.521600
C -14.111500 -12.449100 -35.809100
C -13.996100 -13.728500 -40.285700
N -13.610400 -12.419500 -40.781400
N -13.577200 -10.564700 -41.894500
N -13.528300 -13.424100 -36.484700
C -13.509700 -13.906700 -34.463100
H -13.365000 -14.355300 -33.660900
F -13.341200 -16.324900 -39.233100
H -13.250600 -14.339900 -40.396500
C -13.193900 -13.502600 -37.902900
N -13.132000 -14.390100 -35.619700
H -12.745900 -12.683900 -38.165700
H -12.573900 -14.236300 -38.041900
C -12.430900 -10.769500 -41.216600
N -12.389900 -11.881400 -40.527200
H -11.722900 -10.167000 -41.237100
34
Fragment
H -21.480300 -2.069000 -30.724900
N -20.813300 -3.783400 -31.434700
C -20.772300 -2.671500 -30.745300
H -20.629300 -6.138300 -33.920000
H -20.457300 -4.585900 -33.796200
N -20.071200 -6.292100 -36.342200
C -20.009300 -5.404600 -34.059000
H -19.952600 -6.241900 -31.565400
F -19.862000 -8.226900 -32.728900
H -19.838100 -6.257300 -38.301000
C -19.693500 -5.808700 -37.498800
N -19.674900 -5.326100 -35.477200
N -19.626000 -2.466700 -30.067400
N -19.592700 -4.321500 -31.180500
C -19.207000 -5.630500 -31.676200
C -19.091700 -4.351100 -36.152800
N -19.080200 -4.615100 -37.440300
C -18.911000 -3.529100 -30.370500
C -18.785200 -5.612600 -33.164900
H -18.737200 -3.581700 -35.767900
C -18.637100 -8.156300 -33.297300
H -18.468800 -5.965000 -31.142200
H -18.456900 -10.158900 -33.496800
C -18.066400 -6.913400 -33.509800
H -18.050900 -3.698400 -30.059900
C -18.040100 -9.341000 -33.644500
O -17.958000 -4.504100 -33.424900
H -17.312500 -4.521100 -32.921100
C -16.811700 -6.908400 -34.076300
C -16.804800 -9.260100 -34.215600
H -16.388200 -6.093700 -34.228000
F -16.198800 -10.406100 -34.583200
C -16.160400 -8.081800 -34.427700
H -15.308000 -8.063200 -34.797900
68
Fragment
H -17.895200 -16.161200 -37.164000
C -17.042800 -16.179800 -37.534200
F -17.004400 -18.504100 -37.378700
H -16.815000 -14.191700 -37.733900
C -16.398400 -17.358100 -37.746300
C -16.391500 -15.006400 -37.885600
H -15.890700 -12.619100 -39.040800
O -15.245200 -12.602100 -38.537000
C -15.163100 -17.439000 -38.317400
H -15.152300 -11.796400 -41.902000
C -15.136800 -15.011400 -38.452100
H -14.746200 -18.256900 -38.465100
H -14.734400 -14.063000 -40.819700
C -14.566100 -16.254300 -38.664600
H -14.465900 -11.679700 -36.194000
C -14.418000 -13.710600 -38.797000
C -14.292200 -11.627100 -41.591400
N -14.122900 -12.713100 -34.521600
C -14.111500 -12.449100 -35.809100
C -13.996100 -13.728500 -40.285700
N -13.610400 -12.419500 -40.781400
N -13.577200 -10.564700 -41.894500
N -13.528300 -13.424100 -36.484700
C -13.509700 -13.906700 -34.463100
H -13.365000 -14.355300 -33.660900
F -13.341200 -16.324900 -39.233100
H -13.250600 -14.339900 -40.396500
C -13.193900 -13.502600 -37.902900
N -13.132000 -14.390100 -35.619700
H -12.745900 -12.683900 -38.165700
H -12.573900 -14.236300 -38.041900
C -12.430900 -10.769500 -41.216600
N -12.389900 -11.881400 -40.527200
H -11.722900 -10.167000 -41.237100
H -21.480300 -2.069000 -30.724900
N -20.813300 -3.783400 -31.434700
C -20.772300 -2.671500 -30.745300
H -20.629300 -6.138300 -33.920000
H -20.457300 -4.585900 -33.796200
N -20.071200 -6.292100 -36.342200
C -20.009300 -5.404600 -34.059000
H -19.952600 -6.241900 -31.565400
F -19.862000 -8.226900 -32.728900
H -19.838100 -6.257300 -38.301000
C -19.693500 -5.808700 -37.498800
N -19.674900 -5.326100 -35.477200
N -19.626000 -2.466700 -30.067400
N -19.592700 -4.321500 -31.180500
C -19.207000 -5.630500 -31.676200
C -19.091700 -4.351100 -36.152800
N -19.080200 -4.615100 -37.440300
C -18.911000 -3.529100 -30.370500
C -18.785200 -5.612600 -33.164900
H -18.737200 -3.581700 -35.767900
C -18.637100 -8.156300 -33.297300
H -18.468800 -5.965000 -31.142200
H -18.456900 -10.158900 -33.496800
C -18.066400 -6.913400 -33.509800
H -18.050900 -3.698400 -30.059900
C -18.040100 -9.341000 -33.644500
O -17.958000 -4.504100 -33.424900
H -17.312500 -4.521100 -32.921100
C -16.811700 -6.908400 -34.076300
C -16.804800 -9.260100 -34.215600
H -16.388200 -6.093700 -34.228000
F -16.198800 -10.406100 -34.583200
C -16.160400 -8.081800 -34.427700
H -15.308000 -8.063200 -34.797900
