32
Fragment
O -23.479100 -7.205300 -27.336400
N -22.409600 -7.708500 -27.525800
O -22.149800 -8.728200 -28.099700
O -21.875800 -6.927900 -24.818300
O -21.839100 -5.016500 -25.795000
N -21.678200 -6.186200 -25.750900
O -21.582400 -5.874200 -29.080100
C -21.173500 -6.911200 -27.031000
N -20.908200 -5.862800 -28.088700
O -19.981900 -5.120500 -27.838500
C -19.981300 -7.775500 -26.839800
N -19.790400 -8.545900 -25.796800
N -19.037800 -7.829300 -27.801700
N -18.633300 -9.163300 -26.080100
H -18.235400 -9.738000 -25.580000
C -18.201000 -8.734200 -27.275700
C -16.979900 -9.196800 -27.904700
H -16.945500 -8.193000 -29.600400
N -16.547700 -8.767700 -29.100300
N -16.143100 -10.101700 -27.378700
N -15.390500 -9.385100 -29.383600
C -15.199600 -10.155500 -28.340700
O -15.199100 -12.810500 -27.341900
N -14.272700 -12.068200 -27.091700
C -14.007400 -11.019800 -28.149400
O -13.598500 -12.056800 -26.100300
N -13.502700 -11.744800 -29.429600
O -13.341900 -12.914500 -29.385400
O -13.305200 -11.003100 -30.362100
O -13.031200 -9.202800 -27.080700
N -12.771400 -10.222500 -27.654600
O -11.701900 -10.725700 -27.844000
32
Fragment
O -15.425400 -11.766900 -21.154300
O -14.981300 -8.967900 -21.730000
O -14.766700 -10.031200 -23.600700
N -14.506800 -9.799900 -22.452900
N -14.215700 -11.790200 -21.034800
O -13.515300 -12.554100 -20.435100
C -13.423600 -10.688100 -21.798100
O -12.986200 -12.560100 -23.124300
H -12.816800 -10.009000 -16.755200
N -12.728100 -10.019200 -19.521000
N -12.672300 -11.416100 -22.929300
C -12.576700 -9.914600 -20.856400
N -12.211000 -9.403600 -16.681000
O -11.970400 -10.663000 -23.573100
C -11.870200 -9.110100 -19.090600
N -11.748200 -8.898000 -15.505700
N -11.705800 -9.033000 -21.281200
C -11.583800 -8.820900 -17.696400
O -11.483600 -7.268000 -13.213900
N -11.243000 -8.527400 -20.105900
C -10.877200 -8.016400 -15.930600
N -10.781700 -6.514900 -13.857600
N -10.725800 -7.911800 -17.265900
H -10.637200 -7.922000 -20.031800
O -10.467800 -5.370900 -13.662700
C -10.030300 -7.242900 -14.988800
O -9.938600 -5.376900 -16.351800
N -9.238200 -6.140800 -15.752200
N -8.947100 -8.131100 -14.334000
O -8.687300 -7.899800 -13.186300
O -8.472600 -8.963100 -15.056900
O -8.028600 -6.164100 -15.632600
64
Fragment
O -23.479100 -7.205300 -27.336400
N -22.409600 -7.708500 -27.525800
O -22.149800 -8.728200 -28.099700
O -21.875800 -6.927900 -24.818300
O -21.839100 -5.016500 -25.795000
N -21.678200 -6.186200 -25.750900
O -21.582400 -5.874200 -29.080100
C -21.173500 -6.911200 -27.031000
N -20.908200 -5.862800 -28.088700
O -19.981900 -5.120500 -27.838500
C -19.981300 -7.775500 -26.839800
N -19.790400 -8.545900 -25.796800
N -19.037800 -7.829300 -27.801700
N -18.633300 -9.163300 -26.080100
H -18.235400 -9.738000 -25.580000
C -18.201000 -8.734200 -27.275700
C -16.979900 -9.196800 -27.904700
H -16.945500 -8.193000 -29.600400
N -16.547700 -8.767700 -29.100300
N -16.143100 -10.101700 -27.378700
N -15.390500 -9.385100 -29.383600
C -15.199600 -10.155500 -28.340700
O -15.199100 -12.810500 -27.341900
N -14.272700 -12.068200 -27.091700
C -14.007400 -11.019800 -28.149400
O -13.598500 -12.056800 -26.100300
N -13.502700 -11.744800 -29.429600
O -13.341900 -12.914500 -29.385400
O -13.305200 -11.003100 -30.362100
O -13.031200 -9.202800 -27.080700
N -12.771400 -10.222500 -27.654600
O -11.701900 -10.725700 -27.844000
O -15.425400 -11.766900 -21.154300
O -14.981300 -8.967900 -21.730000
O -14.766700 -10.031200 -23.600700
N -14.506800 -9.799900 -22.452900
N -14.215700 -11.790200 -21.034800
O -13.515300 -12.554100 -20.435100
C -13.423600 -10.688100 -21.798100
O -12.986200 -12.560100 -23.124300
H -12.816800 -10.009000 -16.755200
N -12.728100 -10.019200 -19.521000
N -12.672300 -11.416100 -22.929300
C -12.576700 -9.914600 -20.856400
N -12.211000 -9.403600 -16.681000
O -11.970400 -10.663000 -23.573100
C -11.870200 -9.110100 -19.090600
N -11.748200 -8.898000 -15.505700
N -11.705800 -9.033000 -21.281200
C -11.583800 -8.820900 -17.696400
O -11.483600 -7.268000 -13.213900
N -11.243000 -8.527400 -20.105900
C -10.877200 -8.016400 -15.930600
N -10.781700 -6.514900 -13.857600
N -10.725800 -7.911800 -17.265900
H -10.637200 -7.922000 -20.031800
O -10.467800 -5.370900 -13.662700
C -10.030300 -7.242900 -14.988800
O -9.938600 -5.376900 -16.351800
N -9.238200 -6.140800 -15.752200
N -8.947100 -8.131100 -14.334000
O -8.687300 -7.899800 -13.186300
O -8.472600 -8.963100 -15.056900
O -8.028600 -6.164100 -15.632600
