32
Fragment
O -23.479100 -7.205300 -27.336400
N -22.409600 -7.708500 -27.525800
O -22.149800 -8.728200 -28.099700
O -21.875800 -6.927900 -24.818300
O -21.839100 -5.016500 -25.795000
N -21.678200 -6.186200 -25.750900
O -21.582400 -5.874200 -29.080100
C -21.173500 -6.911200 -27.031000
N -20.908200 -5.862800 -28.088700
O -19.981900 -5.120500 -27.838500
C -19.981300 -7.775500 -26.839800
N -19.790400 -8.545900 -25.796800
N -19.037800 -7.829300 -27.801700
N -18.633300 -9.163300 -26.080100
H -18.235400 -9.738000 -25.580000
C -18.201000 -8.734200 -27.275700
C -16.979900 -9.196800 -27.904700
H -16.945500 -8.193000 -29.600400
N -16.547700 -8.767700 -29.100300
N -16.143100 -10.101700 -27.378700
N -15.390500 -9.385100 -29.383600
C -15.199600 -10.155500 -28.340700
O -15.199100 -12.810500 -27.341900
N -14.272700 -12.068200 -27.091700
C -14.007400 -11.019800 -28.149400
O -13.598500 -12.056800 -26.100300
N -13.502700 -11.744800 -29.429600
O -13.341900 -12.914500 -29.385400
O -13.305200 -11.003100 -30.362100
O -13.031200 -9.202800 -27.080700
N -12.771400 -10.222500 -27.654600
O -11.701900 -10.725700 -27.844000
32
Fragment
O -31.822400 -3.175600 -30.351100
O -31.378300 -5.974600 -30.926800
O -31.163700 -4.911300 -32.797400
N -30.903800 -5.142600 -31.649600
N -30.612700 -3.152300 -30.231500
O -29.912300 -2.388400 -29.631900
C -29.820600 -4.254400 -30.994800
O -29.383200 -2.382400 -32.321000
H -29.213700 -4.933500 -25.951900
N -29.125100 -4.923300 -28.717700
N -29.069300 -3.526400 -32.126000
C -28.973700 -5.027900 -30.053100
N -28.608000 -5.538900 -25.877800
O -28.367400 -4.279500 -32.769800
C -28.267200 -5.832400 -28.287300
N -28.145200 -6.044500 -24.702400
N -28.102800 -5.909500 -30.478000
C -27.980800 -6.121600 -26.893100
O -27.880600 -7.674500 -22.410600
N -27.639900 -6.415100 -29.302600
C -27.274200 -6.926100 -25.127300
N -27.178700 -8.427600 -23.054400
N -27.122800 -7.030700 -26.462700
H -27.034200 -7.020500 -29.228500
O -26.864800 -9.571600 -22.859400
C -26.427300 -7.699600 -24.185600
O -26.335600 -9.565600 -25.548500
N -25.635200 -8.801700 -24.948900
N -25.344100 -6.811400 -23.530800
O -25.084300 -7.042700 -22.383000
O -24.869600 -5.979400 -24.253600
O -24.425600 -8.778400 -24.829300
64
Fragment
O -23.479100 -7.205300 -27.336400
N -22.409600 -7.708500 -27.525800
O -22.149800 -8.728200 -28.099700
O -21.875800 -6.927900 -24.818300
O -21.839100 -5.016500 -25.795000
N -21.678200 -6.186200 -25.750900
O -21.582400 -5.874200 -29.080100
C -21.173500 -6.911200 -27.031000
N -20.908200 -5.862800 -28.088700
O -19.981900 -5.120500 -27.838500
C -19.981300 -7.775500 -26.839800
N -19.790400 -8.545900 -25.796800
N -19.037800 -7.829300 -27.801700
N -18.633300 -9.163300 -26.080100
H -18.235400 -9.738000 -25.580000
C -18.201000 -8.734200 -27.275700
C -16.979900 -9.196800 -27.904700
H -16.945500 -8.193000 -29.600400
N -16.547700 -8.767700 -29.100300
N -16.143100 -10.101700 -27.378700
N -15.390500 -9.385100 -29.383600
C -15.199600 -10.155500 -28.340700
O -15.199100 -12.810500 -27.341900
N -14.272700 -12.068200 -27.091700
C -14.007400 -11.019800 -28.149400
O -13.598500 -12.056800 -26.100300
N -13.502700 -11.744800 -29.429600
O -13.341900 -12.914500 -29.385400
O -13.305200 -11.003100 -30.362100
O -13.031200 -9.202800 -27.080700
N -12.771400 -10.222500 -27.654600
O -11.701900 -10.725700 -27.844000
O -31.822400 -3.175600 -30.351100
O -31.378300 -5.974600 -30.926800
O -31.163700 -4.911300 -32.797400
N -30.903800 -5.142600 -31.649600
N -30.612700 -3.152300 -30.231500
O -29.912300 -2.388400 -29.631900
C -29.820600 -4.254400 -30.994800
O -29.383200 -2.382400 -32.321000
H -29.213700 -4.933500 -25.951900
N -29.125100 -4.923300 -28.717700
N -29.069300 -3.526400 -32.126000
C -28.973700 -5.027900 -30.053100
N -28.608000 -5.538900 -25.877800
O -28.367400 -4.279500 -32.769800
C -28.267200 -5.832400 -28.287300
N -28.145200 -6.044500 -24.702400
N -28.102800 -5.909500 -30.478000
C -27.980800 -6.121600 -26.893100
O -27.880600 -7.674500 -22.410600
N -27.639900 -6.415100 -29.302600
C -27.274200 -6.926100 -25.127300
N -27.178700 -8.427600 -23.054400
N -27.122800 -7.030700 -26.462700
H -27.034200 -7.020500 -29.228500
O -26.864800 -9.571600 -22.859400
C -26.427300 -7.699600 -24.185600
O -26.335600 -9.565600 -25.548500
N -25.635200 -8.801700 -24.948900
N -25.344100 -6.811400 -23.530800
O -25.084300 -7.042700 -22.383000
O -24.869600 -5.979400 -24.253600
O -24.425600 -8.778400 -24.829300
