32
Fragment
O -23.479100 -7.205300 -27.336400
N -22.409600 -7.708500 -27.525800
O -22.149800 -8.728200 -28.099700
O -21.875800 -6.927900 -24.818300
O -21.839100 -5.016500 -25.795000
N -21.678200 -6.186200 -25.750900
O -21.582400 -5.874200 -29.080100
C -21.173500 -6.911200 -27.031000
N -20.908200 -5.862800 -28.088700
O -19.981900 -5.120500 -27.838500
C -19.981300 -7.775500 -26.839800
N -19.790400 -8.545900 -25.796800
N -19.037800 -7.829300 -27.801700
N -18.633300 -9.163300 -26.080100
H -18.235400 -9.738000 -25.580000
C -18.201000 -8.734200 -27.275700
C -16.979900 -9.196800 -27.904700
H -16.945500 -8.193000 -29.600400
N -16.547700 -8.767700 -29.100300
N -16.143100 -10.101700 -27.378700
N -15.390500 -9.385100 -29.383600
C -15.199600 -10.155500 -28.340700
O -15.199100 -12.810500 -27.341900
N -14.272700 -12.068200 -27.091700
C -14.007400 -11.019800 -28.149400
O -13.598500 -12.056800 -26.100300
N -13.502700 -11.744800 -29.429600
O -13.341900 -12.914500 -29.385400
O -13.305200 -11.003100 -30.362100
O -13.031200 -9.202800 -27.080700
N -12.771400 -10.222500 -27.654600
O -11.701900 -10.725700 -27.844000
32
Fragment
O -23.479100 -1.228300 -27.336400
N -22.409600 -1.731500 -27.525800
O -22.149800 -2.751200 -28.099700
O -21.875800 -0.950900 -24.818300
O -21.839100 0.960500 -25.795000
N -21.678200 -0.209200 -25.750900
O -21.582400 0.102800 -29.080100
C -21.173500 -0.934200 -27.031000
N -20.908200 0.114200 -28.088700
O -19.981900 0.856500 -27.838500
C -19.981300 -1.798500 -26.839800
N -19.790400 -2.568900 -25.796800
N -19.037800 -1.852300 -27.801700
N -18.633300 -3.186300 -26.080100
H -18.235400 -3.761000 -25.580000
C -18.201000 -2.757200 -27.275700
C -16.979900 -3.219800 -27.904700
H -16.945500 -2.216000 -29.600400
N -16.547700 -2.790700 -29.100300
N -16.143100 -4.124700 -27.378700
N -15.390500 -3.408100 -29.383600
C -15.199600 -4.178500 -28.340700
O -15.199100 -6.833500 -27.341900
N -14.272700 -6.091200 -27.091700
C -14.007400 -5.042800 -28.149400
O -13.598500 -6.079800 -26.100300
N -13.502700 -5.767800 -29.429600
O -13.341900 -6.937500 -29.385400
O -13.305200 -5.026100 -30.362100
O -13.031200 -3.225800 -27.080700
N -12.771400 -4.245500 -27.654600
O -11.701900 -4.748700 -27.844000
64
Fragment
O -23.479100 -7.205300 -27.336400
N -22.409600 -7.708500 -27.525800
O -22.149800 -8.728200 -28.099700
O -21.875800 -6.927900 -24.818300
O -21.839100 -5.016500 -25.795000
N -21.678200 -6.186200 -25.750900
O -21.582400 -5.874200 -29.080100
C -21.173500 -6.911200 -27.031000
N -20.908200 -5.862800 -28.088700
O -19.981900 -5.120500 -27.838500
C -19.981300 -7.775500 -26.839800
N -19.790400 -8.545900 -25.796800
N -19.037800 -7.829300 -27.801700
N -18.633300 -9.163300 -26.080100
H -18.235400 -9.738000 -25.580000
C -18.201000 -8.734200 -27.275700
C -16.979900 -9.196800 -27.904700
H -16.945500 -8.193000 -29.600400
N -16.547700 -8.767700 -29.100300
N -16.143100 -10.101700 -27.378700
N -15.390500 -9.385100 -29.383600
C -15.199600 -10.155500 -28.340700
O -15.199100 -12.810500 -27.341900
N -14.272700 -12.068200 -27.091700
C -14.007400 -11.019800 -28.149400
O -13.598500 -12.056800 -26.100300
N -13.502700 -11.744800 -29.429600
O -13.341900 -12.914500 -29.385400
O -13.305200 -11.003100 -30.362100
O -13.031200 -9.202800 -27.080700
N -12.771400 -10.222500 -27.654600
O -11.701900 -10.725700 -27.844000
O -23.479100 -1.228300 -27.336400
N -22.409600 -1.731500 -27.525800
O -22.149800 -2.751200 -28.099700
O -21.875800 -0.950900 -24.818300
O -21.839100 0.960500 -25.795000
N -21.678200 -0.209200 -25.750900
O -21.582400 0.102800 -29.080100
C -21.173500 -0.934200 -27.031000
N -20.908200 0.114200 -28.088700
O -19.981900 0.856500 -27.838500
C -19.981300 -1.798500 -26.839800
N -19.790400 -2.568900 -25.796800
N -19.037800 -1.852300 -27.801700
N -18.633300 -3.186300 -26.080100
H -18.235400 -3.761000 -25.580000
C -18.201000 -2.757200 -27.275700
C -16.979900 -3.219800 -27.904700
H -16.945500 -2.216000 -29.600400
N -16.547700 -2.790700 -29.100300
N -16.143100 -4.124700 -27.378700
N -15.390500 -3.408100 -29.383600
C -15.199600 -4.178500 -28.340700
O -15.199100 -6.833500 -27.341900
N -14.272700 -6.091200 -27.091700
C -14.007400 -5.042800 -28.149400
O -13.598500 -6.079800 -26.100300
N -13.502700 -5.767800 -29.429600
O -13.341900 -6.937500 -29.385400
O -13.305200 -5.026100 -30.362100
O -13.031200 -3.225800 -27.080700
N -12.771400 -4.245500 -27.654600
O -11.701900 -4.748700 -27.844000
