24
Fragment
H -17.701900 -10.868400 -23.127800
H -17.557300 -9.591500 -22.174500
C -17.144800 -10.091800 -22.908700
H -17.066900 -9.513100 -23.695800
O -16.379600 -10.265300 -20.292900
N -15.815600 -10.543800 -22.504500
C -15.537700 -10.577400 -21.117000
O -15.347400 -10.911100 -24.705000
C -14.973900 -10.948900 -23.547500
H -14.771900 -11.490500 -18.161500
C -14.210300 -11.024500 -20.879300
H -14.175600 -10.009900 -18.270800
C -13.967200 -10.964300 -18.351300
N -13.711600 -11.379900 -23.197400
N -13.508400 -11.247700 -19.703600
C -13.364800 -11.418400 -21.876400
H -13.264100 -11.200100 -17.711400
H -13.217700 -11.834000 -25.094800
C -12.768400 -11.820000 -24.223900
H -12.447800 -12.720500 -24.007800
C -12.324900 -11.743800 -20.054700
N -12.183600 -11.862000 -21.379100
H -12.009900 -11.201500 -24.256500
H -11.651600 -11.988000 -19.431100
24
Fragment
H -14.012700 -6.624100 -15.938600
H -13.868100 -7.901000 -14.985300
C -13.455600 -7.400700 -15.719400
H -13.377800 -7.979400 -16.506500
O -12.690400 -7.227200 -13.103700
N -12.126400 -6.948700 -15.315300
C -11.848500 -6.915100 -13.927700
O -11.658200 -6.581400 -17.515700
C -11.284700 -6.543600 -16.358300
H -11.082800 -6.002000 -10.972200
C -10.521100 -6.468000 -13.690100
H -10.486400 -7.482600 -11.081500
C -10.278100 -6.528200 -11.162000
N -10.022400 -6.112600 -16.008200
N -9.819200 -6.244800 -12.514300
C -9.675600 -6.074100 -14.687200
H -9.574900 -6.292400 -10.522200
H -9.528500 -5.658500 -17.905500
C -9.079300 -5.672500 -17.034600
H -8.758600 -4.772000 -16.818500
C -8.635700 -5.748700 -12.865400
N -8.494400 -5.630500 -14.189800
H -8.320700 -6.291000 -17.067300
H -7.962400 -5.504500 -12.241800
48
Fragment
H -17.701900 -10.868400 -23.127800
H -17.557300 -9.591500 -22.174500
C -17.144800 -10.091800 -22.908700
H -17.066900 -9.513100 -23.695800
O -16.379600 -10.265300 -20.292900
N -15.815600 -10.543800 -22.504500
C -15.537700 -10.577400 -21.117000
O -15.347400 -10.911100 -24.705000
C -14.973900 -10.948900 -23.547500
H -14.771900 -11.490500 -18.161500
C -14.210300 -11.024500 -20.879300
H -14.175600 -10.009900 -18.270800
C -13.967200 -10.964300 -18.351300
N -13.711600 -11.379900 -23.197400
N -13.508400 -11.247700 -19.703600
C -13.364800 -11.418400 -21.876400
H -13.264100 -11.200100 -17.711400
H -13.217700 -11.834000 -25.094800
C -12.768400 -11.820000 -24.223900
H -12.447800 -12.720500 -24.007800
C -12.324900 -11.743800 -20.054700
N -12.183600 -11.862000 -21.379100
H -12.009900 -11.201500 -24.256500
H -11.651600 -11.988000 -19.431100
H -14.012700 -6.624100 -15.938600
H -13.868100 -7.901000 -14.985300
C -13.455600 -7.400700 -15.719400
H -13.377800 -7.979400 -16.506500
O -12.690400 -7.227200 -13.103700
N -12.126400 -6.948700 -15.315300
C -11.848500 -6.915100 -13.927700
O -11.658200 -6.581400 -17.515700
C -11.284700 -6.543600 -16.358300
H -11.082800 -6.002000 -10.972200
C -10.521100 -6.468000 -13.690100
H -10.486400 -7.482600 -11.081500
C -10.278100 -6.528200 -11.162000
N -10.022400 -6.112600 -16.008200
N -9.819200 -6.244800 -12.514300
C -9.675600 -6.074100 -14.687200
H -9.574900 -6.292400 -10.522200
H -9.528500 -5.658500 -17.905500
C -9.079300 -5.672500 -17.034600
H -8.758600 -4.772000 -16.818500
C -8.635700 -5.748700 -12.865400
N -8.494400 -5.630500 -14.189800
H -8.320700 -6.291000 -17.067300
H -7.962400 -5.504500 -12.241800
