24
Fragment
H -17.701900 -10.868400 -23.127800
H -17.557300 -9.591500 -22.174500
C -17.144800 -10.091800 -22.908700
H -17.066900 -9.513100 -23.695800
O -16.379600 -10.265300 -20.292900
N -15.815600 -10.543800 -22.504500
C -15.537700 -10.577400 -21.117000
O -15.347400 -10.911100 -24.705000
C -14.973900 -10.948900 -23.547500
H -14.771900 -11.490500 -18.161500
C -14.210300 -11.024500 -20.879300
H -14.175600 -10.009900 -18.270800
C -13.967200 -10.964300 -18.351300
N -13.711600 -11.379900 -23.197400
N -13.508400 -11.247700 -19.703600
C -13.364800 -11.418400 -21.876400
H -13.264100 -11.200100 -17.711400
H -13.217700 -11.834000 -25.094800
C -12.768400 -11.820000 -24.223900
H -12.447800 -12.720500 -24.007800
C -12.324900 -11.743800 -20.054700
N -12.183600 -11.862000 -21.379100
H -12.009900 -11.201500 -24.256500
H -11.651600 -11.988000 -19.431100
16
Fragment
H -21.845500 -12.076800 -14.868800
O -21.000000 -11.812300 -15.304900
O -20.285800 -11.687100 -13.197300
C -20.094400 -11.531800 -14.409700
H -19.308400 -11.081800 -16.919200
H -18.824700 -11.104200 -12.586900
C -18.818600 -11.023100 -14.938100
C -18.610300 -10.868400 -16.311400
O -17.922600 -10.810400 -12.707400
C -17.782300 -10.689300 -14.049700
C -17.404800 -10.410100 -16.794500
H -17.262000 -10.326900 -17.730100
C -16.579100 -10.206500 -14.547400
C -16.400100 -10.071500 -15.898900
H -15.879000 -9.968600 -13.950000
H -15.572700 -9.740500 -16.229000
40
Fragment
H -17.701900 -10.868400 -23.127800
H -17.557300 -9.591500 -22.174500
C -17.144800 -10.091800 -22.908700
H -17.066900 -9.513100 -23.695800
O -16.379600 -10.265300 -20.292900
N -15.815600 -10.543800 -22.504500
C -15.537700 -10.577400 -21.117000
O -15.347400 -10.911100 -24.705000
C -14.973900 -10.948900 -23.547500
H -14.771900 -11.490500 -18.161500
C -14.210300 -11.024500 -20.879300
H -14.175600 -10.009900 -18.270800
C -13.967200 -10.964300 -18.351300
N -13.711600 -11.379900 -23.197400
N -13.508400 -11.247700 -19.703600
C -13.364800 -11.418400 -21.876400
H -13.264100 -11.200100 -17.711400
H -13.217700 -11.834000 -25.094800
C -12.768400 -11.820000 -24.223900
H -12.447800 -12.720500 -24.007800
C -12.324900 -11.743800 -20.054700
N -12.183600 -11.862000 -21.379100
H -12.009900 -11.201500 -24.256500
H -11.651600 -11.988000 -19.431100
H -21.845500 -12.076800 -14.868800
O -21.000000 -11.812300 -15.304900
O -20.285800 -11.687100 -13.197300
C -20.094400 -11.531800 -14.409700
H -19.308400 -11.081800 -16.919200
H -18.824700 -11.104200 -12.586900
C -18.818600 -11.023100 -14.938100
C -18.610300 -10.868400 -16.311400
O -17.922600 -10.810400 -12.707400
C -17.782300 -10.689300 -14.049700
C -17.404800 -10.410100 -16.794500
H -17.262000 -10.326900 -17.730100
C -16.579100 -10.206500 -14.547400
C -16.400100 -10.071500 -15.898900
H -15.879000 -9.968600 -13.950000
H -15.572700 -9.740500 -16.229000
