24
Fragment
H -17.701900 -10.868400 -23.127800
H -17.557300 -9.591500 -22.174500
C -17.144800 -10.091800 -22.908700
H -17.066900 -9.513100 -23.695800
O -16.379600 -10.265300 -20.292900
N -15.815600 -10.543800 -22.504500
C -15.537700 -10.577400 -21.117000
O -15.347400 -10.911100 -24.705000
C -14.973900 -10.948900 -23.547500
H -14.771900 -11.490500 -18.161500
C -14.210300 -11.024500 -20.879300
H -14.175600 -10.009900 -18.270800
C -13.967200 -10.964300 -18.351300
N -13.711600 -11.379900 -23.197400
N -13.508400 -11.247700 -19.703600
C -13.364800 -11.418400 -21.876400
H -13.264100 -11.200100 -17.711400
H -13.217700 -11.834000 -25.094800
C -12.768400 -11.820000 -24.223900
H -12.447800 -12.720500 -24.007800
C -12.324900 -11.743800 -20.054700
N -12.183600 -11.862000 -21.379100
H -12.009900 -11.201500 -24.256500
H -11.651600 -11.988000 -19.431100
16
Fragment
H -14.495800 -12.076800 -29.247300
O -13.650400 -11.812300 -29.683400
O -12.936200 -11.687100 -27.575800
C -12.744700 -11.531800 -28.788200
H -11.958800 -11.081800 -31.297700
H -11.475100 -11.104200 -26.965400
C -11.469000 -11.023100 -29.316600
C -11.260700 -10.868400 -30.689900
O -10.572900 -10.810400 -27.085900
C -10.432700 -10.689300 -28.428100
C -10.055100 -10.410100 -31.173000
H -9.912400 -10.326900 -32.108600
C -9.229400 -10.206500 -28.925900
C -9.050500 -10.071500 -30.277400
H -8.529300 -9.968600 -28.328500
H -8.223100 -9.740500 -30.607500
40
Fragment
H -17.701900 -10.868400 -23.127800
H -17.557300 -9.591500 -22.174500
C -17.144800 -10.091800 -22.908700
H -17.066900 -9.513100 -23.695800
O -16.379600 -10.265300 -20.292900
N -15.815600 -10.543800 -22.504500
C -15.537700 -10.577400 -21.117000
O -15.347400 -10.911100 -24.705000
C -14.973900 -10.948900 -23.547500
H -14.771900 -11.490500 -18.161500
C -14.210300 -11.024500 -20.879300
H -14.175600 -10.009900 -18.270800
C -13.967200 -10.964300 -18.351300
N -13.711600 -11.379900 -23.197400
N -13.508400 -11.247700 -19.703600
C -13.364800 -11.418400 -21.876400
H -13.264100 -11.200100 -17.711400
H -13.217700 -11.834000 -25.094800
C -12.768400 -11.820000 -24.223900
H -12.447800 -12.720500 -24.007800
C -12.324900 -11.743800 -20.054700
N -12.183600 -11.862000 -21.379100
H -12.009900 -11.201500 -24.256500
H -11.651600 -11.988000 -19.431100
H -14.495800 -12.076800 -29.247300
O -13.650400 -11.812300 -29.683400
O -12.936200 -11.687100 -27.575800
C -12.744700 -11.531800 -28.788200
H -11.958800 -11.081800 -31.297700
H -11.475100 -11.104200 -26.965400
C -11.469000 -11.023100 -29.316600
C -11.260700 -10.868400 -30.689900
O -10.572900 -10.810400 -27.085900
C -10.432700 -10.689300 -28.428100
C -10.055100 -10.410100 -31.173000
H -9.912400 -10.326900 -32.108600
C -9.229400 -10.206500 -28.925900
C -9.050500 -10.071500 -30.277400
H -8.529300 -9.968600 -28.328500
H -8.223100 -9.740500 -30.607500
