24
Fragment
H -17.701900 -10.868400 -23.127800
H -17.557300 -9.591500 -22.174500
C -17.144800 -10.091800 -22.908700
H -17.066900 -9.513100 -23.695800
O -16.379600 -10.265300 -20.292900
N -15.815600 -10.543800 -22.504500
C -15.537700 -10.577400 -21.117000
O -15.347400 -10.911100 -24.705000
C -14.973900 -10.948900 -23.547500
H -14.771900 -11.490500 -18.161500
C -14.210300 -11.024500 -20.879300
H -14.175600 -10.009900 -18.270800
C -13.967200 -10.964300 -18.351300
N -13.711600 -11.379900 -23.197400
N -13.508400 -11.247700 -19.703600
C -13.364800 -11.418400 -21.876400
H -13.264100 -11.200100 -17.711400
H -13.217700 -11.834000 -25.094800
C -12.768400 -11.820000 -24.223900
H -12.447800 -12.720500 -24.007800
C -12.324900 -11.743800 -20.054700
N -12.183600 -11.862000 -21.379100
H -12.009900 -11.201500 -24.256500
H -11.651600 -11.988000 -19.431100
16
Fragment
H -13.912100 -11.250500 -12.528000
H -13.605800 -11.022400 -14.807000
C -13.084700 -10.919500 -12.858100
C -12.905700 -10.784500 -14.209500
H -12.222800 -10.664100 -11.026900
C -12.080000 -10.580900 -11.962500
C -11.702500 -10.301700 -14.707300
O -11.562200 -10.180600 -16.049600
C -10.874400 -10.122600 -12.445600
C -10.666100 -9.967900 -13.818900
H -10.660100 -9.886800 -16.170100
H -10.176400 -9.909200 -11.837800
C -9.390400 -9.459200 -14.347300
O -9.199000 -9.303900 -15.559700
O -8.484800 -9.178700 -13.452100
H -7.639300 -8.914200 -13.888200
40
Fragment
H -17.701900 -10.868400 -23.127800
H -17.557300 -9.591500 -22.174500
C -17.144800 -10.091800 -22.908700
H -17.066900 -9.513100 -23.695800
O -16.379600 -10.265300 -20.292900
N -15.815600 -10.543800 -22.504500
C -15.537700 -10.577400 -21.117000
O -15.347400 -10.911100 -24.705000
C -14.973900 -10.948900 -23.547500
H -14.771900 -11.490500 -18.161500
C -14.210300 -11.024500 -20.879300
H -14.175600 -10.009900 -18.270800
C -13.967200 -10.964300 -18.351300
N -13.711600 -11.379900 -23.197400
N -13.508400 -11.247700 -19.703600
C -13.364800 -11.418400 -21.876400
H -13.264100 -11.200100 -17.711400
H -13.217700 -11.834000 -25.094800
C -12.768400 -11.820000 -24.223900
H -12.447800 -12.720500 -24.007800
C -12.324900 -11.743800 -20.054700
N -12.183600 -11.862000 -21.379100
H -12.009900 -11.201500 -24.256500
H -11.651600 -11.988000 -19.431100
H -13.912100 -11.250500 -12.528000
H -13.605800 -11.022400 -14.807000
C -13.084700 -10.919500 -12.858100
C -12.905700 -10.784500 -14.209500
H -12.222800 -10.664100 -11.026900
C -12.080000 -10.580900 -11.962500
C -11.702500 -10.301700 -14.707300
O -11.562200 -10.180600 -16.049600
C -10.874400 -10.122600 -12.445600
C -10.666100 -9.967900 -13.818900
H -10.660100 -9.886800 -16.170100
H -10.176400 -9.909200 -11.837800
C -9.390400 -9.459200 -14.347300
O -9.199000 -9.303900 -15.559700
O -8.484800 -9.178700 -13.452100
H -7.639300 -8.914200 -13.888200
