24
Fragment
H -17.701900 -10.868400 -23.127800
H -17.557300 -9.591500 -22.174500
C -17.144800 -10.091800 -22.908700
H -17.066900 -9.513100 -23.695800
O -16.379600 -10.265300 -20.292900
N -15.815600 -10.543800 -22.504500
C -15.537700 -10.577400 -21.117000
O -15.347400 -10.911100 -24.705000
C -14.973900 -10.948900 -23.547500
H -14.771900 -11.490500 -18.161500
C -14.210300 -11.024500 -20.879300
H -14.175600 -10.009900 -18.270800
C -13.967200 -10.964300 -18.351300
N -13.711600 -11.379900 -23.197400
N -13.508400 -11.247700 -19.703600
C -13.364800 -11.418400 -21.876400
H -13.264100 -11.200100 -17.711400
H -13.217700 -11.834000 -25.094800
C -12.768400 -11.820000 -24.223900
H -12.447800 -12.720500 -24.007800
C -12.324900 -11.743800 -20.054700
N -12.183600 -11.862000 -21.379100
H -12.009900 -11.201500 -24.256500
H -11.651600 -11.988000 -19.431100
16
Fragment
H -21.290500 -11.250500 -26.906500
H -20.984200 -11.022400 -29.185500
C -20.463100 -10.919500 -27.236600
C -20.284100 -10.784500 -28.588000
H -19.601100 -10.664100 -25.405400
C -19.458400 -10.580900 -26.341000
C -19.080900 -10.301700 -29.085800
O -18.940600 -10.180600 -30.428100
C -18.252800 -10.122600 -26.824100
C -18.044500 -9.967900 -28.197400
H -18.038500 -9.886800 -30.548500
H -17.554800 -9.909200 -26.216300
C -16.768800 -9.459200 -28.725800
O -16.577400 -9.303900 -29.938200
O -15.863200 -9.178700 -27.830600
H -15.017700 -8.914200 -28.266700
40
Fragment
H -17.701900 -10.868400 -23.127800
H -17.557300 -9.591500 -22.174500
C -17.144800 -10.091800 -22.908700
H -17.066900 -9.513100 -23.695800
O -16.379600 -10.265300 -20.292900
N -15.815600 -10.543800 -22.504500
C -15.537700 -10.577400 -21.117000
O -15.347400 -10.911100 -24.705000
C -14.973900 -10.948900 -23.547500
H -14.771900 -11.490500 -18.161500
C -14.210300 -11.024500 -20.879300
H -14.175600 -10.009900 -18.270800
C -13.967200 -10.964300 -18.351300
N -13.711600 -11.379900 -23.197400
N -13.508400 -11.247700 -19.703600
C -13.364800 -11.418400 -21.876400
H -13.264100 -11.200100 -17.711400
H -13.217700 -11.834000 -25.094800
C -12.768400 -11.820000 -24.223900
H -12.447800 -12.720500 -24.007800
C -12.324900 -11.743800 -20.054700
N -12.183600 -11.862000 -21.379100
H -12.009900 -11.201500 -24.256500
H -11.651600 -11.988000 -19.431100
H -21.290500 -11.250500 -26.906500
H -20.984200 -11.022400 -29.185500
C -20.463100 -10.919500 -27.236600
C -20.284100 -10.784500 -28.588000
H -19.601100 -10.664100 -25.405400
C -19.458400 -10.580900 -26.341000
C -19.080900 -10.301700 -29.085800
O -18.940600 -10.180600 -30.428100
C -18.252800 -10.122600 -26.824100
C -18.044500 -9.967900 -28.197400
H -18.038500 -9.886800 -30.548500
H -17.554800 -9.909200 -26.216300
C -16.768800 -9.459200 -28.725800
O -16.577400 -9.303900 -29.938200
O -15.863200 -9.178700 -27.830600
H -15.017700 -8.914200 -28.266700
