17
Fragment
H -16.067400 -9.353800 -38.376800
C -15.121600 -9.315300 -38.536500
H -14.955000 -9.339000 -39.482600
O -14.827500 -8.876900 -35.212600
H -14.767500 -8.501600 -38.169700
N -14.756200 -11.754900 -38.068700
C -14.463900 -10.475000 -37.889900
N -13.909300 -12.462800 -37.264400
C -13.613600 -8.666000 -35.283200
N -13.456500 -10.407100 -37.005000
H -13.317100 -7.562700 -33.760000
N -13.126300 -11.660900 -36.615600
N -12.921000 -7.933800 -34.427400
C -12.799700 -9.244200 -36.438600
H -12.689300 -8.569000 -37.125300
H -12.074200 -7.828500 -34.538200
H -11.918700 -9.494400 -36.119600
17
Fragment
H -17.176800 -12.705500 -32.142200
H -17.021400 -11.039600 -33.723600
H -16.406200 -11.780100 -31.136500
C -16.295800 -12.455300 -31.823200
N -16.174600 -11.144800 -33.834400
N -15.969200 -14.872000 -31.646200
H -15.778400 -10.773700 -34.501800
N -15.639000 -13.618100 -31.256900
C -15.481900 -11.877000 -32.978700
N -15.186200 -15.673800 -30.997500
C -14.631600 -13.686000 -30.372000
N -14.339400 -14.965900 -30.193100
H -14.328000 -11.712600 -30.092100
O -14.268000 -12.087900 -33.049200
H -14.140500 -12.550100 -28.779200
C -13.973900 -12.526300 -29.725300
H -13.028100 -12.564800 -29.885000
34
Fragment
H -16.067400 -9.353800 -38.376800
C -15.121600 -9.315300 -38.536500
H -14.955000 -9.339000 -39.482600
O -14.827500 -8.876900 -35.212600
H -14.767500 -8.501600 -38.169700
N -14.756200 -11.754900 -38.068700
C -14.463900 -10.475000 -37.889900
N -13.909300 -12.462800 -37.264400
C -13.613600 -8.666000 -35.283200
N -13.456500 -10.407100 -37.005000
H -13.317100 -7.562700 -33.760000
N -13.126300 -11.660900 -36.615600
N -12.921000 -7.933800 -34.427400
C -12.799700 -9.244200 -36.438600
H -12.689300 -8.569000 -37.125300
H -12.074200 -7.828500 -34.538200
H -11.918700 -9.494400 -36.119600
H -17.176800 -12.705500 -32.142200
H -17.021400 -11.039600 -33.723600
H -16.406200 -11.780100 -31.136500
C -16.295800 -12.455300 -31.823200
N -16.174600 -11.144800 -33.834400
N -15.969200 -14.872000 -31.646200
H -15.778400 -10.773700 -34.501800
N -15.639000 -13.618100 -31.256900
C -15.481900 -11.877000 -32.978700
N -15.186200 -15.673800 -30.997500
C -14.631600 -13.686000 -30.372000
N -14.339400 -14.965900 -30.193100
H -14.328000 -11.712600 -30.092100
O -14.268000 -12.087900 -33.049200
H -14.140500 -12.550100 -28.779200
C -13.973900 -12.526300 -29.725300
H -13.028100 -12.564800 -29.885000
