17
Fragment
H -16.067400 -9.353800 -38.376800
C -15.121600 -9.315300 -38.536500
H -14.955000 -9.339000 -39.482600
O -14.827500 -8.876900 -35.212600
H -14.767500 -8.501600 -38.169700
N -14.756200 -11.754900 -38.068700
C -14.463900 -10.475000 -37.889900
N -13.909300 -12.462800 -37.264400
C -13.613600 -8.666000 -35.283200
N -13.456500 -10.407100 -37.005000
H -13.317100 -7.562700 -33.760000
N -13.126300 -11.660900 -36.615600
N -12.921000 -7.933800 -34.427400
C -12.799700 -9.244200 -36.438600
H -12.689300 -8.569000 -37.125300
H -12.074200 -7.828500 -34.538200
H -11.918700 -9.494400 -36.119600
3
Fragment
H -12.494200 -9.755200 -40.272200
O -11.984600 -9.236900 -39.819400
H -11.475000 -9.755200 -39.366600
20
Fragment
H -16.067400 -9.353800 -38.376800
C -15.121600 -9.315300 -38.536500
H -14.955000 -9.339000 -39.482600
O -14.827500 -8.876900 -35.212600
H -14.767500 -8.501600 -38.169700
N -14.756200 -11.754900 -38.068700
C -14.463900 -10.475000 -37.889900
N -13.909300 -12.462800 -37.264400
C -13.613600 -8.666000 -35.283200
N -13.456500 -10.407100 -37.005000
H -13.317100 -7.562700 -33.760000
N -13.126300 -11.660900 -36.615600
N -12.921000 -7.933800 -34.427400
C -12.799700 -9.244200 -36.438600
H -12.689300 -8.569000 -37.125300
H -12.074200 -7.828500 -34.538200
H -11.918700 -9.494400 -36.119600
H -12.494200 -9.755200 -40.272200
O -11.984600 -9.236900 -39.819400
H -11.475000 -9.755200 -39.366600
