17
Fragment
H -16.067400 -9.353800 -38.376800
C -15.121600 -9.315300 -38.536500
H -14.955000 -9.339000 -39.482600
O -14.827500 -8.876900 -35.212600
H -14.767500 -8.501600 -38.169700
N -14.756200 -11.754900 -38.068700
C -14.463900 -10.475000 -37.889900
N -13.909300 -12.462800 -37.264400
C -13.613600 -8.666000 -35.283200
N -13.456500 -10.407100 -37.005000
H -13.317100 -7.562700 -33.760000
N -13.126300 -11.660900 -36.615600
N -12.921000 -7.933800 -34.427400
C -12.799700 -9.244200 -36.438600
H -12.689300 -8.569000 -37.125300
H -12.074200 -7.828500 -34.538200
H -11.918700 -9.494400 -36.119600
17
Fragment
H -12.572700 -3.349800 -32.142200
H -12.417300 -5.015700 -33.723600
H -11.802100 -4.275200 -31.136500
C -11.691700 -3.600000 -31.823200
N -11.570500 -4.910400 -33.834400
N -11.365100 -1.183300 -31.646200
H -11.174300 -5.281500 -34.501800
N -11.034900 -2.437100 -31.256900
C -10.877800 -4.178200 -32.978700
N -10.582100 -0.381400 -30.997500
C -10.027500 -2.369200 -30.372000
N -9.735300 -1.089300 -30.193100
H -9.723900 -4.342600 -30.092100
O -9.663900 -3.967300 -33.049200
H -9.536400 -3.505200 -28.779200
C -9.369800 -3.528900 -29.725300
H -8.424000 -3.490400 -29.885000
34
Fragment
H -16.067400 -9.353800 -38.376800
C -15.121600 -9.315300 -38.536500
H -14.955000 -9.339000 -39.482600
O -14.827500 -8.876900 -35.212600
H -14.767500 -8.501600 -38.169700
N -14.756200 -11.754900 -38.068700
C -14.463900 -10.475000 -37.889900
N -13.909300 -12.462800 -37.264400
C -13.613600 -8.666000 -35.283200
N -13.456500 -10.407100 -37.005000
H -13.317100 -7.562700 -33.760000
N -13.126300 -11.660900 -36.615600
N -12.921000 -7.933800 -34.427400
C -12.799700 -9.244200 -36.438600
H -12.689300 -8.569000 -37.125300
H -12.074200 -7.828500 -34.538200
H -11.918700 -9.494400 -36.119600
H -12.572700 -3.349800 -32.142200
H -12.417300 -5.015700 -33.723600
H -11.802100 -4.275200 -31.136500
C -11.691700 -3.600000 -31.823200
N -11.570500 -4.910400 -33.834400
N -11.365100 -1.183300 -31.646200
H -11.174300 -5.281500 -34.501800
N -11.034900 -2.437100 -31.256900
C -10.877800 -4.178200 -32.978700
N -10.582100 -0.381400 -30.997500
C -10.027500 -2.369200 -30.372000
N -9.735300 -1.089300 -30.193100
H -9.723900 -4.342600 -30.092100
O -9.663900 -3.967300 -33.049200
H -9.536400 -3.505200 -28.779200
C -9.369800 -3.528900 -29.725300
H -8.424000 -3.490400 -29.885000
