17
Fragment
H -16.067400 -9.353800 -38.376800
C -15.121600 -9.315300 -38.536500
H -14.955000 -9.339000 -39.482600
O -14.827500 -8.876900 -35.212600
H -14.767500 -8.501600 -38.169700
N -14.756200 -11.754900 -38.068700
C -14.463900 -10.475000 -37.889900
N -13.909300 -12.462800 -37.264400
C -13.613600 -8.666000 -35.283200
N -13.456500 -10.407100 -37.005000
H -13.317100 -7.562700 -33.760000
N -13.126300 -11.660900 -36.615600
N -12.921000 -7.933800 -34.427400
C -12.799700 -9.244200 -36.438600
H -12.689300 -8.569000 -37.125300
H -12.074200 -7.828500 -34.538200
H -11.918700 -9.494400 -36.119600
17
Fragment
H -16.654600 -6.560800 -43.519200
H -16.499200 -8.226700 -45.100600
H -15.884000 -7.486200 -42.513500
C -15.773600 -6.811000 -43.200200
N -15.652400 -8.121500 -45.211400
N -15.447000 -4.394300 -43.023200
H -15.256300 -8.492600 -45.878800
N -15.116800 -5.648200 -42.633800
C -14.959700 -7.389300 -44.355600
N -14.664100 -3.592500 -42.374400
C -14.109400 -5.580300 -41.748900
N -13.817200 -4.300400 -41.570100
H -13.805800 -7.553700 -41.469100
O -13.745800 -7.178400 -44.426200
H -13.618300 -6.716200 -40.156200
C -13.451700 -6.740000 -41.102300
H -12.505900 -6.701500 -41.262000
34
Fragment
H -16.067400 -9.353800 -38.376800
C -15.121600 -9.315300 -38.536500
H -14.955000 -9.339000 -39.482600
O -14.827500 -8.876900 -35.212600
H -14.767500 -8.501600 -38.169700
N -14.756200 -11.754900 -38.068700
C -14.463900 -10.475000 -37.889900
N -13.909300 -12.462800 -37.264400
C -13.613600 -8.666000 -35.283200
N -13.456500 -10.407100 -37.005000
H -13.317100 -7.562700 -33.760000
N -13.126300 -11.660900 -36.615600
N -12.921000 -7.933800 -34.427400
C -12.799700 -9.244200 -36.438600
H -12.689300 -8.569000 -37.125300
H -12.074200 -7.828500 -34.538200
H -11.918700 -9.494400 -36.119600
H -16.654600 -6.560800 -43.519200
H -16.499200 -8.226700 -45.100600
H -15.884000 -7.486200 -42.513500
C -15.773600 -6.811000 -43.200200
N -15.652400 -8.121500 -45.211400
N -15.447000 -4.394300 -43.023200
H -15.256300 -8.492600 -45.878800
N -15.116800 -5.648200 -42.633800
C -14.959700 -7.389300 -44.355600
N -14.664100 -3.592500 -42.374400
C -14.109400 -5.580300 -41.748900
N -13.817200 -4.300400 -41.570100
H -13.805800 -7.553700 -41.469100
O -13.745800 -7.178400 -44.426200
H -13.618300 -6.716200 -40.156200
C -13.451700 -6.740000 -41.102300
H -12.505900 -6.701500 -41.262000
