17
Fragment
H -16.067400 -9.353800 -38.376800
C -15.121600 -9.315300 -38.536500
H -14.955000 -9.339000 -39.482600
O -14.827500 -8.876900 -35.212600
H -14.767500 -8.501600 -38.169700
N -14.756200 -11.754900 -38.068700
C -14.463900 -10.475000 -37.889900
N -13.909300 -12.462800 -37.264400
C -13.613600 -8.666000 -35.283200
N -13.456500 -10.407100 -37.005000
H -13.317100 -7.562700 -33.760000
N -13.126300 -11.660900 -36.615600
N -12.921000 -7.933800 -34.427400
C -12.799700 -9.244200 -36.438600
H -12.689300 -8.569000 -37.125300
H -12.074200 -7.828500 -34.538200
H -11.918700 -9.494400 -36.119600
17
Fragment
H -20.671500 -13.123600 -38.376800
C -19.725700 -13.162100 -38.536500
H -19.559100 -13.138300 -39.482600
O -19.431600 -13.600500 -35.212600
H -19.371600 -13.975800 -38.169700
N -19.360300 -10.722500 -38.068700
C -19.068000 -12.002400 -37.889900
N -18.513400 -10.014600 -37.264400
C -18.217700 -13.811400 -35.283200
N -18.060600 -12.070300 -37.005000
H -17.921200 -14.914700 -33.760000
N -17.730400 -10.816400 -36.615600
N -17.525100 -14.543600 -34.427400
C -17.403800 -13.233100 -36.438600
H -17.293400 -13.908300 -37.125300
H -16.678300 -14.648800 -34.538200
H -16.522800 -12.982900 -36.119600
34
Fragment
H -16.067400 -9.353800 -38.376800
C -15.121600 -9.315300 -38.536500
H -14.955000 -9.339000 -39.482600
O -14.827500 -8.876900 -35.212600
H -14.767500 -8.501600 -38.169700
N -14.756200 -11.754900 -38.068700
C -14.463900 -10.475000 -37.889900
N -13.909300 -12.462800 -37.264400
C -13.613600 -8.666000 -35.283200
N -13.456500 -10.407100 -37.005000
H -13.317100 -7.562700 -33.760000
N -13.126300 -11.660900 -36.615600
N -12.921000 -7.933800 -34.427400
C -12.799700 -9.244200 -36.438600
H -12.689300 -8.569000 -37.125300
H -12.074200 -7.828500 -34.538200
H -11.918700 -9.494400 -36.119600
H -20.671500 -13.123600 -38.376800
C -19.725700 -13.162100 -38.536500
H -19.559100 -13.138300 -39.482600
O -19.431600 -13.600500 -35.212600
H -19.371600 -13.975800 -38.169700
N -19.360300 -10.722500 -38.068700
C -19.068000 -12.002400 -37.889900
N -18.513400 -10.014600 -37.264400
C -18.217700 -13.811400 -35.283200
N -18.060600 -12.070300 -37.005000
H -17.921200 -14.914700 -33.760000
N -17.730400 -10.816400 -36.615600
N -17.525100 -14.543600 -34.427400
C -17.403800 -13.233100 -36.438600
H -17.293400 -13.908300 -37.125300
H -16.678300 -14.648800 -34.538200
H -16.522800 -12.982900 -36.119600
