32
Fragment
H -11.554200 -10.342500 -12.450700
H -11.413900 -9.635800 -11.117100
N -11.007300 -9.882200 -11.854100
H -10.371200 -12.212400 -13.910600
H -10.028300 -12.157000 -16.733500
H -9.836800 -10.846800 -14.504200
C -9.754300 -10.446600 -11.633000
C -9.603400 -11.621300 -13.968600
O -9.482800 -15.061200 -19.140100
H -9.455400 -15.805100 -16.888100
H -9.410200 -9.694100 -9.794200
H -9.365900 -12.518000 -18.922700
C -9.191800 -14.400300 -18.174200
N -9.166500 -14.997600 -16.925100
C -9.120700 -11.218100 -12.607300
C -9.077700 -12.205700 -16.918500
C -9.023300 -10.201200 -10.470600
O -9.013900 -14.985100 -14.680400
C -8.892700 -14.383100 -15.726500
C -8.840200 -12.941100 -18.226800
H -8.732000 -11.301400 -16.980200
N -8.434400 -12.315600 -14.514200
C -8.376600 -12.948700 -15.812500
H -7.905300 -12.853200 -18.469600
C -7.835500 -11.692900 -12.414700
C -7.742400 -10.688200 -10.290400
H -7.430500 -13.001200 -16.060800
C -7.415300 -12.402500 -13.633800
H -7.292700 -10.502000 -9.498000
C -7.117100 -11.443600 -11.257200
O -6.331900 -12.964200 -13.856900
H -6.254200 -11.770300 -11.138400
32
Fragment
H -18.133800 -13.532200 -12.450700
H -17.993500 -14.238900 -11.117100
N -17.586900 -13.992500 -11.854100
H -16.950800 -11.662300 -13.910600
H -16.607900 -11.717700 -16.733500
H -16.416400 -13.028000 -14.504200
C -16.333900 -13.428100 -11.633000
C -16.183000 -12.253500 -13.968600
O -16.062400 -8.813500 -19.140100
H -16.035000 -8.069700 -16.888100
H -15.989800 -14.180600 -9.794200
H -15.945500 -11.356700 -18.922700
C -15.771400 -9.474500 -18.174200
N -15.746100 -8.877100 -16.925100
C -15.700300 -12.656700 -12.607300
C -15.657300 -11.669000 -16.918500
C -15.602900 -13.673500 -10.470600
O -15.593500 -8.889600 -14.680400
C -15.472300 -9.491600 -15.726500
C -15.419800 -10.933700 -18.226800
H -15.311600 -12.573400 -16.980200
N -15.014000 -11.559200 -14.514200
C -14.956200 -10.926000 -15.812500
H -14.484900 -11.021500 -18.469600
C -14.415100 -12.181900 -12.414700
C -14.322000 -13.186500 -10.290400
H -14.010100 -10.873500 -16.060800
C -13.994900 -11.472300 -13.633800
H -13.872300 -13.372700 -9.498000
C -13.696700 -12.431100 -11.257200
O -12.911500 -10.910600 -13.856900
H -12.833800 -12.104500 -11.138400
64
Fragment
H -11.554200 -10.342500 -12.450700
H -11.413900 -9.635800 -11.117100
N -11.007300 -9.882200 -11.854100
H -10.371200 -12.212400 -13.910600
H -10.028300 -12.157000 -16.733500
H -9.836800 -10.846800 -14.504200
C -9.754300 -10.446600 -11.633000
C -9.603400 -11.621300 -13.968600
O -9.482800 -15.061200 -19.140100
H -9.455400 -15.805100 -16.888100
H -9.410200 -9.694100 -9.794200
H -9.365900 -12.518000 -18.922700
C -9.191800 -14.400300 -18.174200
N -9.166500 -14.997600 -16.925100
C -9.120700 -11.218100 -12.607300
C -9.077700 -12.205700 -16.918500
C -9.023300 -10.201200 -10.470600
O -9.013900 -14.985100 -14.680400
C -8.892700 -14.383100 -15.726500
C -8.840200 -12.941100 -18.226800
H -8.732000 -11.301400 -16.980200
N -8.434400 -12.315600 -14.514200
C -8.376600 -12.948700 -15.812500
H -7.905300 -12.853200 -18.469600
C -7.835500 -11.692900 -12.414700
C -7.742400 -10.688200 -10.290400
H -7.430500 -13.001200 -16.060800
C -7.415300 -12.402500 -13.633800
H -7.292700 -10.502000 -9.498000
C -7.117100 -11.443600 -11.257200
O -6.331900 -12.964200 -13.856900
H -6.254200 -11.770300 -11.138400
H -18.133800 -13.532200 -12.450700
H -17.993500 -14.238900 -11.117100
N -17.586900 -13.992500 -11.854100
H -16.950800 -11.662300 -13.910600
H -16.607900 -11.717700 -16.733500
H -16.416400 -13.028000 -14.504200
C -16.333900 -13.428100 -11.633000
C -16.183000 -12.253500 -13.968600
O -16.062400 -8.813500 -19.140100
H -16.035000 -8.069700 -16.888100
H -15.989800 -14.180600 -9.794200
H -15.945500 -11.356700 -18.922700
C -15.771400 -9.474500 -18.174200
N -15.746100 -8.877100 -16.925100
C -15.700300 -12.656700 -12.607300
C -15.657300 -11.669000 -16.918500
C -15.602900 -13.673500 -10.470600
O -15.593500 -8.889600 -14.680400
C -15.472300 -9.491600 -15.726500
C -15.419800 -10.933700 -18.226800
H -15.311600 -12.573400 -16.980200
N -15.014000 -11.559200 -14.514200
C -14.956200 -10.926000 -15.812500
H -14.484900 -11.021500 -18.469600
C -14.415100 -12.181900 -12.414700
C -14.322000 -13.186500 -10.290400
H -14.010100 -10.873500 -16.060800
C -13.994900 -11.472300 -13.633800
H -13.872300 -13.372700 -9.498000
C -13.696700 -12.431100 -11.257200
O -12.911500 -10.910600 -13.856900
H -12.833800 -12.104500 -11.138400
