32
Fragment
H -11.554200 -10.342500 -12.450700
H -11.413900 -9.635800 -11.117100
N -11.007300 -9.882200 -11.854100
H -10.371200 -12.212400 -13.910600
H -10.028300 -12.157000 -16.733500
H -9.836800 -10.846800 -14.504200
C -9.754300 -10.446600 -11.633000
C -9.603400 -11.621300 -13.968600
O -9.482800 -15.061200 -19.140100
H -9.455400 -15.805100 -16.888100
H -9.410200 -9.694100 -9.794200
H -9.365900 -12.518000 -18.922700
C -9.191800 -14.400300 -18.174200
N -9.166500 -14.997600 -16.925100
C -9.120700 -11.218100 -12.607300
C -9.077700 -12.205700 -16.918500
C -9.023300 -10.201200 -10.470600
O -9.013900 -14.985100 -14.680400
C -8.892700 -14.383100 -15.726500
C -8.840200 -12.941100 -18.226800
H -8.732000 -11.301400 -16.980200
N -8.434400 -12.315600 -14.514200
C -8.376600 -12.948700 -15.812500
H -7.905300 -12.853200 -18.469600
C -7.835500 -11.692900 -12.414700
C -7.742400 -10.688200 -10.290400
H -7.430500 -13.001200 -16.060800
C -7.415300 -12.402500 -13.633800
H -7.292700 -10.502000 -9.498000
C -7.117100 -11.443600 -11.257200
O -6.331900 -12.964200 -13.856900
H -6.254200 -11.770300 -11.138400
32
Fragment
H -8.340300 -7.329500 -12.464900
O -8.262600 -6.135600 -9.746400
C -7.477400 -7.656200 -12.346000
H -7.301800 -8.597800 -14.105300
C -7.179200 -6.697300 -9.969400
H -7.163900 -6.098600 -7.542400
C -6.852000 -8.411600 -13.312800
C -6.758900 -7.406900 -11.188500
H -6.689100 -6.246600 -5.133700
C -6.217900 -6.151100 -7.790700
N -6.160000 -6.784200 -9.089000
H -5.862500 -7.798400 -6.623100
C -5.754200 -6.158700 -5.376500
C -5.701800 -4.716700 -7.876800
O -5.580500 -4.114700 -8.922900
C -5.571100 -8.898600 -13.132600
C -5.516800 -6.894100 -6.684800
C -5.473800 -7.881700 -10.995900
N -5.428000 -4.102200 -6.678200
C -5.402700 -4.699500 -5.429100
H -5.228500 -6.581800 -4.680500
H -5.184200 -9.405700 -13.809100
H -5.139100 -3.294700 -6.715100
O -5.111600 -4.038600 -4.463100
C -4.991000 -7.478500 -9.634600
C -4.840200 -8.653200 -11.970300
H -4.757700 -8.253000 -9.099100
H -4.566200 -6.942800 -6.869700
H -4.223300 -6.887400 -9.692700
N -3.587200 -9.217600 -11.749100
H -3.180500 -9.464000 -12.486100
H -3.040200 -8.757300 -11.152500
64
Fragment
H -11.554200 -10.342500 -12.450700
H -11.413900 -9.635800 -11.117100
N -11.007300 -9.882200 -11.854100
H -10.371200 -12.212400 -13.910600
H -10.028300 -12.157000 -16.733500
H -9.836800 -10.846800 -14.504200
C -9.754300 -10.446600 -11.633000
C -9.603400 -11.621300 -13.968600
O -9.482800 -15.061200 -19.140100
H -9.455400 -15.805100 -16.888100
H -9.410200 -9.694100 -9.794200
H -9.365900 -12.518000 -18.922700
C -9.191800 -14.400300 -18.174200
N -9.166500 -14.997600 -16.925100
C -9.120700 -11.218100 -12.607300
C -9.077700 -12.205700 -16.918500
C -9.023300 -10.201200 -10.470600
O -9.013900 -14.985100 -14.680400
C -8.892700 -14.383100 -15.726500
C -8.840200 -12.941100 -18.226800
H -8.732000 -11.301400 -16.980200
N -8.434400 -12.315600 -14.514200
C -8.376600 -12.948700 -15.812500
H -7.905300 -12.853200 -18.469600
C -7.835500 -11.692900 -12.414700
C -7.742400 -10.688200 -10.290400
H -7.430500 -13.001200 -16.060800
C -7.415300 -12.402500 -13.633800
H -7.292700 -10.502000 -9.498000
C -7.117100 -11.443600 -11.257200
O -6.331900 -12.964200 -13.856900
H -6.254200 -11.770300 -11.138400
H -8.340300 -7.329500 -12.464900
O -8.262600 -6.135600 -9.746400
C -7.477400 -7.656200 -12.346000
H -7.301800 -8.597800 -14.105300
C -7.179200 -6.697300 -9.969400
H -7.163900 -6.098600 -7.542400
C -6.852000 -8.411600 -13.312800
C -6.758900 -7.406900 -11.188500
H -6.689100 -6.246600 -5.133700
C -6.217900 -6.151100 -7.790700
N -6.160000 -6.784200 -9.089000
H -5.862500 -7.798400 -6.623100
C -5.754200 -6.158700 -5.376500
C -5.701800 -4.716700 -7.876800
O -5.580500 -4.114700 -8.922900
C -5.571100 -8.898600 -13.132600
C -5.516800 -6.894100 -6.684800
C -5.473800 -7.881700 -10.995900
N -5.428000 -4.102200 -6.678200
C -5.402700 -4.699500 -5.429100
H -5.228500 -6.581800 -4.680500
H -5.184200 -9.405700 -13.809100
H -5.139100 -3.294700 -6.715100
O -5.111600 -4.038600 -4.463100
C -4.991000 -7.478500 -9.634600
C -4.840200 -8.653200 -11.970300
H -4.757700 -8.253000 -9.099100
H -4.566200 -6.942800 -6.869700
H -4.223300 -6.887400 -9.692700
N -3.587200 -9.217600 -11.749100
H -3.180500 -9.464000 -12.486100
H -3.040200 -8.757300 -11.152500
