32
Fragment
H -9.843500 -18.482100 -20.581100
H -9.277500 -18.098600 -22.795600
C -9.254000 -17.769200 -20.798200
H -8.968100 -17.131800 -18.856800
C -8.929900 -17.542200 -22.108300
C -8.726600 -16.960500 -19.759100
C -8.069100 -16.466200 -22.419400
C -7.878200 -15.941800 -20.050500
N -7.685700 -16.010200 -23.613900
N -7.555300 -15.717500 -21.364800
H -7.517200 -15.396900 -19.360500
C -6.908500 -14.911500 -23.342900
C -6.799600 -14.695100 -21.936800
O -6.470200 -13.134400 -26.342300
O -6.439100 -15.282400 -26.091300
N -6.413500 -14.139500 -25.637800
C -6.312200 -13.977700 -24.206500
C -6.119500 -13.656200 -21.333000
H -6.052800 -13.555100 -20.391500
C -5.641900 -12.874900 -23.650800
C -5.544000 -12.775600 -22.233900
N -4.992400 -11.829300 -24.263900
N -4.798300 -11.620300 -22.009800
H -4.624600 -11.420400 -19.993000
C -4.492200 -11.100400 -23.262400
C -4.391100 -11.037900 -20.830100
C -3.712800 -9.922100 -23.319800
C -3.645200 -9.900000 -20.892000
H -3.476500 -9.539100 -24.156900
H -3.353000 -9.479800 -20.092200
C -3.305600 -9.343400 -22.150800
H -2.783000 -8.550200 -22.182300
32
Fragment
H -2.850000 -14.690400 -22.256400
C -2.327400 -13.897200 -22.288000
H -2.280000 -13.760800 -24.346500
H -2.156500 -13.701500 -20.281900
C -1.987800 -13.340600 -23.546800
C -1.920200 -13.318500 -21.118900
C -1.242000 -12.202700 -23.608700
C -1.140800 -12.140200 -21.176400
H -1.008400 -11.820200 -24.445800
N -0.834700 -11.620300 -22.429000
N -0.640600 -11.411300 -20.174900
C -0.089000 -10.465000 -22.204900
C 0.008900 -10.365700 -20.788000
H 0.419800 -9.685500 -24.047300
C 0.486500 -9.584400 -23.105800
C 0.679200 -9.262900 -20.232200
N 0.780500 -9.101100 -18.801000
O 0.806100 -7.958200 -18.347400
O 0.837200 -10.106200 -18.096500
C 1.166500 -8.545500 -22.502000
C 1.275500 -8.329100 -21.095800
H 1.884100 -7.843700 -25.078300
N 1.922300 -7.523100 -23.073900
N 2.052600 -7.230400 -20.824900
C 2.245200 -7.298800 -24.388300
C 2.436100 -6.774400 -22.019400
C 3.093600 -6.280100 -24.679700
C 3.296900 -5.698400 -22.330500
H 3.335100 -6.108800 -25.581900
C 3.621000 -5.471400 -23.640500
H 3.644400 -5.142000 -21.643200
H 4.210500 -4.758500 -23.857700
64
Fragment
H -9.843500 -18.482100 -20.581100
H -9.277500 -18.098600 -22.795600
C -9.254000 -17.769200 -20.798200
H -8.968100 -17.131800 -18.856800
C -8.929900 -17.542200 -22.108300
C -8.726600 -16.960500 -19.759100
C -8.069100 -16.466200 -22.419400
C -7.878200 -15.941800 -20.050500
N -7.685700 -16.010200 -23.613900
N -7.555300 -15.717500 -21.364800
H -7.517200 -15.396900 -19.360500
C -6.908500 -14.911500 -23.342900
C -6.799600 -14.695100 -21.936800
O -6.470200 -13.134400 -26.342300
O -6.439100 -15.282400 -26.091300
N -6.413500 -14.139500 -25.637800
C -6.312200 -13.977700 -24.206500
C -6.119500 -13.656200 -21.333000
H -6.052800 -13.555100 -20.391500
C -5.641900 -12.874900 -23.650800
C -5.544000 -12.775600 -22.233900
N -4.992400 -11.829300 -24.263900
N -4.798300 -11.620300 -22.009800
H -4.624600 -11.420400 -19.993000
C -4.492200 -11.100400 -23.262400
C -4.391100 -11.037900 -20.830100
C -3.712800 -9.922100 -23.319800
C -3.645200 -9.900000 -20.892000
H -3.476500 -9.539100 -24.156900
H -3.353000 -9.479800 -20.092200
C -3.305600 -9.343400 -22.150800
H -2.783000 -8.550200 -22.182300
H -2.850000 -14.690400 -22.256400
C -2.327400 -13.897200 -22.288000
H -2.280000 -13.760800 -24.346500
H -2.156500 -13.701500 -20.281900
C -1.987800 -13.340600 -23.546800
C -1.920200 -13.318500 -21.118900
C -1.242000 -12.202700 -23.608700
C -1.140800 -12.140200 -21.176400
H -1.008400 -11.820200 -24.445800
N -0.834700 -11.620300 -22.429000
N -0.640600 -11.411300 -20.174900
C -0.089000 -10.465000 -22.204900
C 0.008900 -10.365700 -20.788000
H 0.419800 -9.685500 -24.047300
C 0.486500 -9.584400 -23.105800
C 0.679200 -9.262900 -20.232200
N 0.780500 -9.101100 -18.801000
O 0.806100 -7.958200 -18.347400
O 0.837200 -10.106200 -18.096500
C 1.166500 -8.545500 -22.502000
C 1.275500 -8.329100 -21.095800
H 1.884100 -7.843700 -25.078300
N 1.922300 -7.523100 -23.073900
N 2.052600 -7.230400 -20.824900
C 2.245200 -7.298800 -24.388300
C 2.436100 -6.774400 -22.019400
C 3.093600 -6.280100 -24.679700
C 3.296900 -5.698400 -22.330500
H 3.335100 -6.108800 -25.581900
C 3.621000 -5.471400 -23.640500
H 3.644400 -5.142000 -21.643200
H 4.210500 -4.758500 -23.857700
