32
Fragment
H -9.843500 -18.482100 -20.581100
H -9.277500 -18.098600 -22.795600
C -9.254000 -17.769200 -20.798200
H -8.968100 -17.131800 -18.856800
C -8.929900 -17.542200 -22.108300
C -8.726600 -16.960500 -19.759100
C -8.069100 -16.466200 -22.419400
C -7.878200 -15.941800 -20.050500
N -7.685700 -16.010200 -23.613900
N -7.555300 -15.717500 -21.364800
H -7.517200 -15.396900 -19.360500
C -6.908500 -14.911500 -23.342900
C -6.799600 -14.695100 -21.936800
O -6.470200 -13.134400 -26.342300
O -6.439100 -15.282400 -26.091300
N -6.413500 -14.139500 -25.637800
C -6.312200 -13.977700 -24.206500
C -6.119500 -13.656200 -21.333000
H -6.052800 -13.555100 -20.391500
C -5.641900 -12.874900 -23.650800
C -5.544000 -12.775600 -22.233900
N -4.992400 -11.829300 -24.263900
N -4.798300 -11.620300 -22.009800
H -4.624600 -11.420400 -19.993000
C -4.492200 -11.100400 -23.262400
C -4.391100 -11.037900 -20.830100
C -3.712800 -9.922100 -23.319800
C -3.645200 -9.900000 -20.892000
H -3.476500 -9.539100 -24.156900
H -3.353000 -9.479800 -20.092200
C -3.305600 -9.343400 -22.150800
H -2.783000 -8.550200 -22.182300
32
Fragment
H -1.919700 -6.861800 -20.581100
H -1.353700 -6.478300 -22.795600
C -1.330200 -6.148900 -20.798200
H -1.044300 -5.511500 -18.856800
C -1.006100 -5.921900 -22.108300
C -0.802800 -5.340200 -19.759100
C -0.145300 -4.845900 -22.419400
C 0.045600 -4.321500 -20.050500
N 0.238100 -4.389900 -23.613900
N 0.368500 -4.097200 -21.364800
H 0.406600 -3.776600 -19.360500
C 1.015300 -3.291200 -23.342900
C 1.124200 -3.074800 -21.936800
O 1.453600 -1.514100 -26.342300
O 1.484700 -3.662100 -26.091300
N 1.510300 -2.519200 -25.637800
C 1.611600 -2.357400 -24.206500
C 1.804300 -2.035900 -21.333000
H 1.871000 -1.934800 -20.391500
C 2.281900 -1.254600 -23.650800
C 2.379800 -1.155300 -22.233900
N 2.931400 -0.209000 -24.263900
N 3.125500 0.000000 -22.009800
H 3.299200 0.199900 -19.993000
C 3.431600 0.519900 -23.262400
C 3.532700 0.582400 -20.830100
C 4.211000 1.698200 -23.319800
C 4.278600 1.720300 -20.892000
H 4.447300 2.081200 -24.156900
H 4.570800 2.140500 -20.092200
C 4.618200 2.276900 -22.150800
H 5.140800 3.070100 -22.182300
64
Fragment
H -9.843500 -18.482100 -20.581100
H -9.277500 -18.098600 -22.795600
C -9.254000 -17.769200 -20.798200
H -8.968100 -17.131800 -18.856800
C -8.929900 -17.542200 -22.108300
C -8.726600 -16.960500 -19.759100
C -8.069100 -16.466200 -22.419400
C -7.878200 -15.941800 -20.050500
N -7.685700 -16.010200 -23.613900
N -7.555300 -15.717500 -21.364800
H -7.517200 -15.396900 -19.360500
C -6.908500 -14.911500 -23.342900
C -6.799600 -14.695100 -21.936800
O -6.470200 -13.134400 -26.342300
O -6.439100 -15.282400 -26.091300
N -6.413500 -14.139500 -25.637800
C -6.312200 -13.977700 -24.206500
C -6.119500 -13.656200 -21.333000
H -6.052800 -13.555100 -20.391500
C -5.641900 -12.874900 -23.650800
C -5.544000 -12.775600 -22.233900
N -4.992400 -11.829300 -24.263900
N -4.798300 -11.620300 -22.009800
H -4.624600 -11.420400 -19.993000
C -4.492200 -11.100400 -23.262400
C -4.391100 -11.037900 -20.830100
C -3.712800 -9.922100 -23.319800
C -3.645200 -9.900000 -20.892000
H -3.476500 -9.539100 -24.156900
H -3.353000 -9.479800 -20.092200
C -3.305600 -9.343400 -22.150800
H -2.783000 -8.550200 -22.182300
H -1.919700 -6.861800 -20.581100
H -1.353700 -6.478300 -22.795600
C -1.330200 -6.148900 -20.798200
H -1.044300 -5.511500 -18.856800
C -1.006100 -5.921900 -22.108300
C -0.802800 -5.340200 -19.759100
C -0.145300 -4.845900 -22.419400
C 0.045600 -4.321500 -20.050500
N 0.238100 -4.389900 -23.613900
N 0.368500 -4.097200 -21.364800
H 0.406600 -3.776600 -19.360500
C 1.015300 -3.291200 -23.342900
C 1.124200 -3.074800 -21.936800
O 1.453600 -1.514100 -26.342300
O 1.484700 -3.662100 -26.091300
N 1.510300 -2.519200 -25.637800
C 1.611600 -2.357400 -24.206500
C 1.804300 -2.035900 -21.333000
H 1.871000 -1.934800 -20.391500
C 2.281900 -1.254600 -23.650800
C 2.379800 -1.155300 -22.233900
N 2.931400 -0.209000 -24.263900
N 3.125500 0.000000 -22.009800
H 3.299200 0.199900 -19.993000
C 3.431600 0.519900 -23.262400
C 3.532700 0.582400 -20.830100
C 4.211000 1.698200 -23.319800
C 4.278600 1.720300 -20.892000
H 4.447300 2.081200 -24.156900
H 4.570800 2.140500 -20.092200
C 4.618200 2.276900 -22.150800
H 5.140800 3.070100 -22.182300
