32
Fragment
H -9.843500 -18.482100 -20.581100
H -9.277500 -18.098600 -22.795600
C -9.254000 -17.769200 -20.798200
H -8.968100 -17.131800 -18.856800
C -8.929900 -17.542200 -22.108300
C -8.726600 -16.960500 -19.759100
C -8.069100 -16.466200 -22.419400
C -7.878200 -15.941800 -20.050500
N -7.685700 -16.010200 -23.613900
N -7.555300 -15.717500 -21.364800
H -7.517200 -15.396900 -19.360500
C -6.908500 -14.911500 -23.342900
C -6.799600 -14.695100 -21.936800
O -6.470200 -13.134400 -26.342300
O -6.439100 -15.282400 -26.091300
N -6.413500 -14.139500 -25.637800
C -6.312200 -13.977700 -24.206500
C -6.119500 -13.656200 -21.333000
H -6.052800 -13.555100 -20.391500
C -5.641900 -12.874900 -23.650800
C -5.544000 -12.775600 -22.233900
N -4.992400 -11.829300 -24.263900
N -4.798300 -11.620300 -22.009800
H -4.624600 -11.420400 -19.993000
C -4.492200 -11.100400 -23.262400
C -4.391100 -11.037900 -20.830100
C -3.712800 -9.922100 -23.319800
C -3.645200 -9.900000 -20.892000
H -3.476500 -9.539100 -24.156900
H -3.353000 -9.479800 -20.092200
C -3.305600 -9.343400 -22.150800
H -2.783000 -8.550200 -22.182300
32
Fragment
H -12.103000 -10.568700 -27.987500
H -11.536900 -10.952100 -30.202100
C -11.513500 -11.281600 -28.204700
H -11.227600 -11.918900 -26.263300
C -11.189400 -11.508500 -29.514700
C -10.986100 -12.090200 -27.165600
C -10.328600 -12.584600 -29.825800
C -10.137700 -13.109000 -27.456900
N -9.945100 -13.040500 -31.020300
N -9.814800 -13.333200 -28.771300
H -9.776600 -13.653900 -26.766900
C -9.168000 -14.139200 -30.749400
C -9.059000 -14.355600 -29.343200
O -8.729700 -15.916300 -33.748700
O -8.698600 -13.768300 -33.497800
N -8.673000 -14.911300 -33.044200
C -8.571700 -15.073000 -31.613000
C -8.379000 -15.394600 -28.739400
H -8.312300 -15.495700 -27.797900
C -7.901400 -16.175800 -31.057200
C -7.803500 -16.275200 -29.640400
N -7.251900 -17.221400 -31.670300
N -7.057800 -17.430400 -29.416200
H -6.884100 -17.630300 -27.399500
C -6.751700 -17.950300 -30.668800
C -6.650500 -18.012900 -28.236500
C -5.972300 -19.128600 -30.726300
C -5.904700 -19.150700 -28.298500
H -5.736000 -19.511600 -31.563400
H -5.612500 -19.570900 -27.498700
C -5.565100 -19.707300 -29.557300
H -5.042500 -20.500500 -29.588800
64
Fragment
H -9.843500 -18.482100 -20.581100
H -9.277500 -18.098600 -22.795600
C -9.254000 -17.769200 -20.798200
H -8.968100 -17.131800 -18.856800
C -8.929900 -17.542200 -22.108300
C -8.726600 -16.960500 -19.759100
C -8.069100 -16.466200 -22.419400
C -7.878200 -15.941800 -20.050500
N -7.685700 -16.010200 -23.613900
N -7.555300 -15.717500 -21.364800
H -7.517200 -15.396900 -19.360500
C -6.908500 -14.911500 -23.342900
C -6.799600 -14.695100 -21.936800
O -6.470200 -13.134400 -26.342300
O -6.439100 -15.282400 -26.091300
N -6.413500 -14.139500 -25.637800
C -6.312200 -13.977700 -24.206500
C -6.119500 -13.656200 -21.333000
H -6.052800 -13.555100 -20.391500
C -5.641900 -12.874900 -23.650800
C -5.544000 -12.775600 -22.233900
N -4.992400 -11.829300 -24.263900
N -4.798300 -11.620300 -22.009800
H -4.624600 -11.420400 -19.993000
C -4.492200 -11.100400 -23.262400
C -4.391100 -11.037900 -20.830100
C -3.712800 -9.922100 -23.319800
C -3.645200 -9.900000 -20.892000
H -3.476500 -9.539100 -24.156900
H -3.353000 -9.479800 -20.092200
C -3.305600 -9.343400 -22.150800
H -2.783000 -8.550200 -22.182300
H -12.103000 -10.568700 -27.987500
H -11.536900 -10.952100 -30.202100
C -11.513500 -11.281600 -28.204700
H -11.227600 -11.918900 -26.263300
C -11.189400 -11.508500 -29.514700
C -10.986100 -12.090200 -27.165600
C -10.328600 -12.584600 -29.825800
C -10.137700 -13.109000 -27.456900
N -9.945100 -13.040500 -31.020300
N -9.814800 -13.333200 -28.771300
H -9.776600 -13.653900 -26.766900
C -9.168000 -14.139200 -30.749400
C -9.059000 -14.355600 -29.343200
O -8.729700 -15.916300 -33.748700
O -8.698600 -13.768300 -33.497800
N -8.673000 -14.911300 -33.044200
C -8.571700 -15.073000 -31.613000
C -8.379000 -15.394600 -28.739400
H -8.312300 -15.495700 -27.797900
C -7.901400 -16.175800 -31.057200
C -7.803500 -16.275200 -29.640400
N -7.251900 -17.221400 -31.670300
N -7.057800 -17.430400 -29.416200
H -6.884100 -17.630300 -27.399500
C -6.751700 -17.950300 -30.668800
C -6.650500 -18.012900 -28.236500
C -5.972300 -19.128600 -30.726300
C -5.904700 -19.150700 -28.298500
H -5.736000 -19.511600 -31.563400
H -5.612500 -19.570900 -27.498700
C -5.565100 -19.707300 -29.557300
H -5.042500 -20.500500 -29.588800
