32
Fragment
H -9.843500 -18.482100 -20.581100
H -9.277500 -18.098600 -22.795600
C -9.254000 -17.769200 -20.798200
H -8.968100 -17.131800 -18.856800
C -8.929900 -17.542200 -22.108300
C -8.726600 -16.960500 -19.759100
C -8.069100 -16.466200 -22.419400
C -7.878200 -15.941800 -20.050500
N -7.685700 -16.010200 -23.613900
N -7.555300 -15.717500 -21.364800
H -7.517200 -15.396900 -19.360500
C -6.908500 -14.911500 -23.342900
C -6.799600 -14.695100 -21.936800
O -6.470200 -13.134400 -26.342300
O -6.439100 -15.282400 -26.091300
N -6.413500 -14.139500 -25.637800
C -6.312200 -13.977700 -24.206500
C -6.119500 -13.656200 -21.333000
H -6.052800 -13.555100 -20.391500
C -5.641900 -12.874900 -23.650800
C -5.544000 -12.775600 -22.233900
N -4.992400 -11.829300 -24.263900
N -4.798300 -11.620300 -22.009800
H -4.624600 -11.420400 -19.993000
C -4.492200 -11.100400 -23.262400
C -4.391100 -11.037900 -20.830100
C -3.712800 -9.922100 -23.319800
C -3.645200 -9.900000 -20.892000
H -3.476500 -9.539100 -24.156900
H -3.353000 -9.479800 -20.092200
C -3.305600 -9.343400 -22.150800
H -2.783000 -8.550200 -22.182300
32
Fragment
H -5.109500 -2.740100 -29.662900
C -4.586900 -3.533300 -29.694400
H -4.539500 -3.669700 -31.753000
H -4.416000 -3.729000 -27.688300
C -4.247300 -4.089900 -30.953200
C -4.179700 -4.112000 -28.525400
C -3.501400 -5.227700 -31.015100
C -3.400300 -5.290300 -28.582900
H -3.267900 -5.610300 -31.852200
N -3.094200 -5.810200 -29.835400
N -2.900100 -6.019200 -27.581400
C -2.348500 -6.965400 -29.611300
C -2.250600 -7.064800 -28.194500
H -1.839700 -7.744900 -31.453800
C -1.773000 -7.846000 -30.512200
C -1.580300 -8.167600 -27.638700
N -1.479000 -8.329300 -26.207500
O -1.453400 -9.472300 -25.753900
O -1.422300 -7.324300 -25.503000
C -1.092900 -8.885000 -29.908500
C -0.984000 -9.101400 -28.502300
H -0.375300 -9.586700 -32.484700
N -0.337200 -9.907400 -30.480400
N -0.206800 -10.200100 -28.231400
C -0.014300 -10.131600 -31.794700
C 0.176600 -10.656000 -29.425900
C 0.834100 -11.150400 -32.086100
C 1.037400 -11.732100 -29.736900
H 1.075600 -11.321700 -32.988400
C 1.361500 -11.959000 -31.047000
H 1.385000 -12.288500 -29.049600
H 1.951000 -12.671900 -31.264200
64
Fragment
H -9.843500 -18.482100 -20.581100
H -9.277500 -18.098600 -22.795600
C -9.254000 -17.769200 -20.798200
H -8.968100 -17.131800 -18.856800
C -8.929900 -17.542200 -22.108300
C -8.726600 -16.960500 -19.759100
C -8.069100 -16.466200 -22.419400
C -7.878200 -15.941800 -20.050500
N -7.685700 -16.010200 -23.613900
N -7.555300 -15.717500 -21.364800
H -7.517200 -15.396900 -19.360500
C -6.908500 -14.911500 -23.342900
C -6.799600 -14.695100 -21.936800
O -6.470200 -13.134400 -26.342300
O -6.439100 -15.282400 -26.091300
N -6.413500 -14.139500 -25.637800
C -6.312200 -13.977700 -24.206500
C -6.119500 -13.656200 -21.333000
H -6.052800 -13.555100 -20.391500
C -5.641900 -12.874900 -23.650800
C -5.544000 -12.775600 -22.233900
N -4.992400 -11.829300 -24.263900
N -4.798300 -11.620300 -22.009800
H -4.624600 -11.420400 -19.993000
C -4.492200 -11.100400 -23.262400
C -4.391100 -11.037900 -20.830100
C -3.712800 -9.922100 -23.319800
C -3.645200 -9.900000 -20.892000
H -3.476500 -9.539100 -24.156900
H -3.353000 -9.479800 -20.092200
C -3.305600 -9.343400 -22.150800
H -2.783000 -8.550200 -22.182300
H -5.109500 -2.740100 -29.662900
C -4.586900 -3.533300 -29.694400
H -4.539500 -3.669700 -31.753000
H -4.416000 -3.729000 -27.688300
C -4.247300 -4.089900 -30.953200
C -4.179700 -4.112000 -28.525400
C -3.501400 -5.227700 -31.015100
C -3.400300 -5.290300 -28.582900
H -3.267900 -5.610300 -31.852200
N -3.094200 -5.810200 -29.835400
N -2.900100 -6.019200 -27.581400
C -2.348500 -6.965400 -29.611300
C -2.250600 -7.064800 -28.194500
H -1.839700 -7.744900 -31.453800
C -1.773000 -7.846000 -30.512200
C -1.580300 -8.167600 -27.638700
N -1.479000 -8.329300 -26.207500
O -1.453400 -9.472300 -25.753900
O -1.422300 -7.324300 -25.503000
C -1.092900 -8.885000 -29.908500
C -0.984000 -9.101400 -28.502300
H -0.375300 -9.586700 -32.484700
N -0.337200 -9.907400 -30.480400
N -0.206800 -10.200100 -28.231400
C -0.014300 -10.131600 -31.794700
C 0.176600 -10.656000 -29.425900
C 0.834100 -11.150400 -32.086100
C 1.037400 -11.732100 -29.736900
H 1.075600 -11.321700 -32.988400
C 1.361500 -11.959000 -31.047000
H 1.385000 -12.288500 -29.049600
H 1.951000 -12.671900 -31.264200
