6
Fragment
H -8.409700 -11.645300 -25.188800
H -8.273100 -11.185900 -26.681300
H -8.123400 -10.140700 -25.522900
C -7.954500 -11.048300 -25.787000
C -6.532400 -11.307300 -25.736100
N -5.419800 -11.472200 -25.709100
50
Fragment
H -14.724500 -4.377800 -18.111100
H -14.098700 -6.618600 -18.325900
C -13.907200 -4.609300 -18.489800
C -13.527800 -5.942700 -18.612300
F -13.410700 -2.348800 -18.868500
C -13.033200 -3.637600 -18.946500
O -12.762900 -8.574500 -18.914600
H -12.363400 -17.567900 -22.324600
C -12.305600 -6.260000 -19.161300
C -11.983100 -7.713200 -19.293300
C -11.792400 -3.924900 -19.473100
C -11.568900 -17.443200 -22.792400
H -11.509300 -19.290000 -23.561000
C -11.431300 -5.277300 -19.547900
H -11.393400 -9.848700 -20.838400
H -11.269300 -15.523900 -22.218000
H -11.221300 -3.251800 -19.765900
H -11.145100 -11.668900 -22.081100
C -11.055300 -18.477800 -23.543400
C -10.925300 -16.224700 -22.722400
H -10.746200 -10.118600 -19.433400
H -10.723800 -13.327600 -23.685100
C -10.671000 -8.138100 -19.964800
C -10.648200 -9.621500 -20.260800
H -10.588400 -5.511500 -19.864600
H -10.560400 -7.645200 -20.792300
C -10.246300 -11.702500 -22.445500
H -10.173100 -10.997400 -23.105900
C -10.055900 -13.009200 -23.121800
H -9.927300 -7.917100 -19.382500
C -9.894300 -18.350100 -24.267400
C -9.742500 -16.086800 -23.436800
H -9.557700 -19.048900 -24.781400
C -9.337300 -10.016400 -20.940200
N -9.284100 -11.430700 -21.355500
C -9.252700 -17.127600 -24.192700
H -9.210500 -9.456600 -21.723100
C -8.961700 -13.738600 -22.945200
N -8.849600 -14.999700 -23.581600
H -8.604100 -9.841500 -20.330800
N -8.064800 -16.664000 -24.813200
C -7.924100 -11.809100 -21.809000
H -7.849500 -13.784900 -21.236200
C -7.836600 -15.375300 -24.453600
C -7.824700 -13.299500 -22.076400
H -7.709300 -11.321500 -22.620600
H -7.426300 -17.253500 -25.454500
H -7.277300 -11.559000 -21.131200
H -6.982500 -13.498300 -22.515500
O -6.911300 -14.651800 -24.794100
56
Fragment
H -8.409700 -11.645300 -25.188800
H -8.273100 -11.185900 -26.681300
H -8.123400 -10.140700 -25.522900
C -7.954500 -11.048300 -25.787000
C -6.532400 -11.307300 -25.736100
N -5.419800 -11.472200 -25.709100
H -14.724500 -4.377800 -18.111100
H -14.098700 -6.618600 -18.325900
C -13.907200 -4.609300 -18.489800
C -13.527800 -5.942700 -18.612300
F -13.410700 -2.348800 -18.868500
C -13.033200 -3.637600 -18.946500
O -12.762900 -8.574500 -18.914600
H -12.363400 -17.567900 -22.324600
C -12.305600 -6.260000 -19.161300
C -11.983100 -7.713200 -19.293300
C -11.792400 -3.924900 -19.473100
C -11.568900 -17.443200 -22.792400
H -11.509300 -19.290000 -23.561000
C -11.431300 -5.277300 -19.547900
H -11.393400 -9.848700 -20.838400
H -11.269300 -15.523900 -22.218000
H -11.221300 -3.251800 -19.765900
H -11.145100 -11.668900 -22.081100
C -11.055300 -18.477800 -23.543400
C -10.925300 -16.224700 -22.722400
H -10.746200 -10.118600 -19.433400
H -10.723800 -13.327600 -23.685100
C -10.671000 -8.138100 -19.964800
C -10.648200 -9.621500 -20.260800
H -10.588400 -5.511500 -19.864600
H -10.560400 -7.645200 -20.792300
C -10.246300 -11.702500 -22.445500
H -10.173100 -10.997400 -23.105900
C -10.055900 -13.009200 -23.121800
H -9.927300 -7.917100 -19.382500
C -9.894300 -18.350100 -24.267400
C -9.742500 -16.086800 -23.436800
H -9.557700 -19.048900 -24.781400
C -9.337300 -10.016400 -20.940200
N -9.284100 -11.430700 -21.355500
C -9.252700 -17.127600 -24.192700
H -9.210500 -9.456600 -21.723100
C -8.961700 -13.738600 -22.945200
N -8.849600 -14.999700 -23.581600
H -8.604100 -9.841500 -20.330800
N -8.064800 -16.664000 -24.813200
C -7.924100 -11.809100 -21.809000
H -7.849500 -13.784900 -21.236200
C -7.836600 -15.375300 -24.453600
C -7.824700 -13.299500 -22.076400
H -7.709300 -11.321500 -22.620600
H -7.426300 -17.253500 -25.454500
H -7.277300 -11.559000 -21.131200
H -6.982500 -13.498300 -22.515500
O -6.911300 -14.651800 -24.794100
