6
Fragment
H -8.409700 -11.645300 -25.188800
H -8.273100 -11.185900 -26.681300
H -8.123400 -10.140700 -25.522900
C -7.954500 -11.048300 -25.787000
C -6.532400 -11.307300 -25.736100
N -5.419800 -11.472200 -25.709100
6
Fragment
H -2.322700 -11.645300 -25.188800
H -2.186100 -11.185900 -26.681300
H -2.036400 -10.140700 -25.522900
C -1.867500 -11.048300 -25.787000
C -0.445400 -11.307300 -25.736100
N 0.667200 -11.472200 -25.709100
12
Fragment
H -8.409700 -11.645300 -25.188800
H -8.273100 -11.185900 -26.681300
H -8.123400 -10.140700 -25.522900
C -7.954500 -11.048300 -25.787000
C -6.532400 -11.307300 -25.736100
N -5.419800 -11.472200 -25.709100
H -2.322700 -11.645300 -25.188800
H -2.186100 -11.185900 -26.681300
H -2.036400 -10.140700 -25.522900
C -1.867500 -11.048300 -25.787000
C -0.445400 -11.307300 -25.736100
N 0.667200 -11.472200 -25.709100
