6
Fragment
H -8.409700 -11.645300 -25.188800
H -8.273100 -11.185900 -26.681300
H -8.123400 -10.140700 -25.522900
C -7.954500 -11.048300 -25.787000
C -6.532400 -11.307300 -25.736100
N -5.419800 -11.472200 -25.709100
50
Fragment
H -8.637500 -4.377800 -18.111100
H -8.011700 -6.618600 -18.325900
C -7.820200 -4.609300 -18.489800
C -7.440800 -5.942700 -18.612300
F -7.323700 -2.348800 -18.868500
C -6.946200 -3.637600 -18.946500
O -6.675900 -8.574500 -18.914600
H -6.276400 -17.567900 -22.324600
C -6.218600 -6.260000 -19.161300
C -5.896100 -7.713200 -19.293300
C -5.705400 -3.924900 -19.473100
C -5.481900 -17.443200 -22.792400
H -5.422300 -19.290000 -23.561000
C -5.344300 -5.277300 -19.547900
H -5.306400 -9.848700 -20.838400
H -5.182300 -15.523900 -22.218000
H -5.134300 -3.251800 -19.765900
H -5.058100 -11.668900 -22.081100
C -4.968300 -18.477800 -23.543400
C -4.838300 -16.224700 -22.722400
H -4.659200 -10.118600 -19.433400
H -4.636800 -13.327600 -23.685100
C -4.584000 -8.138100 -19.964800
C -4.561200 -9.621500 -20.260800
H -4.501400 -5.511500 -19.864600
H -4.473400 -7.645200 -20.792300
C -4.159300 -11.702500 -22.445500
H -4.086100 -10.997400 -23.105900
C -3.968900 -13.009200 -23.121800
H -3.840300 -7.917100 -19.382500
C -3.807300 -18.350100 -24.267400
C -3.655500 -16.086800 -23.436800
H -3.470700 -19.048900 -24.781400
C -3.250300 -10.016400 -20.940200
N -3.197100 -11.430700 -21.355500
C -3.165700 -17.127600 -24.192700
H -3.123500 -9.456600 -21.723100
C -2.874700 -13.738600 -22.945200
N -2.762600 -14.999700 -23.581600
H -2.517100 -9.841500 -20.330800
N -1.977800 -16.664000 -24.813200
C -1.837100 -11.809100 -21.809000
H -1.762500 -13.784900 -21.236200
C -1.749600 -15.375300 -24.453600
C -1.737700 -13.299500 -22.076400
H -1.622300 -11.321500 -22.620600
H -1.339300 -17.253500 -25.454500
H -1.190300 -11.559000 -21.131200
H -0.895500 -13.498300 -22.515500
O -0.824300 -14.651800 -24.794100
56
Fragment
H -8.409700 -11.645300 -25.188800
H -8.273100 -11.185900 -26.681300
H -8.123400 -10.140700 -25.522900
C -7.954500 -11.048300 -25.787000
C -6.532400 -11.307300 -25.736100
N -5.419800 -11.472200 -25.709100
H -8.637500 -4.377800 -18.111100
H -8.011700 -6.618600 -18.325900
C -7.820200 -4.609300 -18.489800
C -7.440800 -5.942700 -18.612300
F -7.323700 -2.348800 -18.868500
C -6.946200 -3.637600 -18.946500
O -6.675900 -8.574500 -18.914600
H -6.276400 -17.567900 -22.324600
C -6.218600 -6.260000 -19.161300
C -5.896100 -7.713200 -19.293300
C -5.705400 -3.924900 -19.473100
C -5.481900 -17.443200 -22.792400
H -5.422300 -19.290000 -23.561000
C -5.344300 -5.277300 -19.547900
H -5.306400 -9.848700 -20.838400
H -5.182300 -15.523900 -22.218000
H -5.134300 -3.251800 -19.765900
H -5.058100 -11.668900 -22.081100
C -4.968300 -18.477800 -23.543400
C -4.838300 -16.224700 -22.722400
H -4.659200 -10.118600 -19.433400
H -4.636800 -13.327600 -23.685100
C -4.584000 -8.138100 -19.964800
C -4.561200 -9.621500 -20.260800
H -4.501400 -5.511500 -19.864600
H -4.473400 -7.645200 -20.792300
C -4.159300 -11.702500 -22.445500
H -4.086100 -10.997400 -23.105900
C -3.968900 -13.009200 -23.121800
H -3.840300 -7.917100 -19.382500
C -3.807300 -18.350100 -24.267400
C -3.655500 -16.086800 -23.436800
H -3.470700 -19.048900 -24.781400
C -3.250300 -10.016400 -20.940200
N -3.197100 -11.430700 -21.355500
C -3.165700 -17.127600 -24.192700
H -3.123500 -9.456600 -21.723100
C -2.874700 -13.738600 -22.945200
N -2.762600 -14.999700 -23.581600
H -2.517100 -9.841500 -20.330800
N -1.977800 -16.664000 -24.813200
C -1.837100 -11.809100 -21.809000
H -1.762500 -13.784900 -21.236200
C -1.749600 -15.375300 -24.453600
C -1.737700 -13.299500 -22.076400
H -1.622300 -11.321500 -22.620600
H -1.339300 -17.253500 -25.454500
H -1.190300 -11.559000 -21.131200
H -0.895500 -13.498300 -22.515500
O -0.824300 -14.651800 -24.794100
