7
Fragment
H -7.148300 -11.415500 -26.453100
H -7.001100 -11.254100 -28.005600
H -6.686800 -10.045100 -27.058900
C -6.640700 -10.999400 -27.154200
N -5.243600 -11.430700 -27.067000
O -4.765100 -12.184700 -27.966800
O -4.590200 -11.070600 -26.141300
50
Fragment
O -6.287600 -7.806700 -27.949100
H -6.271800 -8.996600 -30.315900
H -6.004400 -10.879200 -31.766600
H -5.593900 -11.180600 -30.281900
H -5.524900 -5.339600 -27.483800
C -5.429500 -9.195300 -30.753700
H -5.389700 -8.682600 -31.576000
C -5.359900 -10.669600 -31.071900
C -5.339000 -7.104500 -28.349700
N -5.055400 -5.827100 -28.013700
H -4.724000 -12.590300 -32.598600
N -4.359400 -7.509600 -29.233400
C -4.295100 -8.801800 -29.861900
H -4.174000 -13.025800 -31.197900
N -4.018400 -11.056900 -31.521100
C -4.003100 -12.455500 -31.962100
C -3.894200 -5.421100 -28.635700
H -3.485300 -3.485400 -28.084800
H -3.421100 -14.585200 -33.511400
C -3.413700 -6.499000 -29.419200
C -3.237400 -9.545200 -29.701900
C -3.188300 -4.206100 -28.592100
H -3.123800 -11.564000 -29.781100
C -3.044700 -10.837700 -30.419200
H -2.822600 -17.017000 -32.997700
H -2.805200 -14.874100 -32.096200
C -2.697200 -12.877900 -32.606700
C -2.682200 -14.374600 -32.918500
H -2.574700 -9.257100 -29.117100
H -2.567600 -12.378600 -33.427400
C -2.265800 -6.389900 -30.167200
H -2.233100 -19.270700 -33.152800
H -2.146200 -10.861800 -30.784400
C -2.029300 -4.138700 -29.344900
C -1.988600 -17.254100 -33.333700
H -1.967200 -7.094700 -30.695500
H -1.962100 -12.668200 -32.009000
C -1.645700 -18.606100 -33.433900
C -1.572600 -5.199500 -30.110700
H -1.536500 -3.349200 -29.336800
C -1.391800 -14.791300 -33.566300
C -1.101500 -16.255400 -33.731100
H -0.784300 -5.106000 -30.595300
O -0.583800 -13.979400 -33.968600
C -0.422000 -18.921100 -33.952500
F -0.079700 -20.229900 -34.044500
C 0.150500 -16.628100 -34.274000
C 0.470500 -17.977600 -34.393500
H 0.754500 -15.976800 -34.548600
H 1.281600 -18.236500 -34.766700
57
Fragment
H -7.148300 -11.415500 -26.453100
H -7.001100 -11.254100 -28.005600
H -6.686800 -10.045100 -27.058900
C -6.640700 -10.999400 -27.154200
N -5.243600 -11.430700 -27.067000
O -4.765100 -12.184700 -27.966800
O -4.590200 -11.070600 -26.141300
O -6.287600 -7.806700 -27.949100
H -6.271800 -8.996600 -30.315900
H -6.004400 -10.879200 -31.766600
H -5.593900 -11.180600 -30.281900
H -5.524900 -5.339600 -27.483800
C -5.429500 -9.195300 -30.753700
H -5.389700 -8.682600 -31.576000
C -5.359900 -10.669600 -31.071900
C -5.339000 -7.104500 -28.349700
N -5.055400 -5.827100 -28.013700
H -4.724000 -12.590300 -32.598600
N -4.359400 -7.509600 -29.233400
C -4.295100 -8.801800 -29.861900
H -4.174000 -13.025800 -31.197900
N -4.018400 -11.056900 -31.521100
C -4.003100 -12.455500 -31.962100
C -3.894200 -5.421100 -28.635700
H -3.485300 -3.485400 -28.084800
H -3.421100 -14.585200 -33.511400
C -3.413700 -6.499000 -29.419200
C -3.237400 -9.545200 -29.701900
C -3.188300 -4.206100 -28.592100
H -3.123800 -11.564000 -29.781100
C -3.044700 -10.837700 -30.419200
H -2.822600 -17.017000 -32.997700
H -2.805200 -14.874100 -32.096200
C -2.697200 -12.877900 -32.606700
C -2.682200 -14.374600 -32.918500
H -2.574700 -9.257100 -29.117100
H -2.567600 -12.378600 -33.427400
C -2.265800 -6.389900 -30.167200
H -2.233100 -19.270700 -33.152800
H -2.146200 -10.861800 -30.784400
C -2.029300 -4.138700 -29.344900
C -1.988600 -17.254100 -33.333700
H -1.967200 -7.094700 -30.695500
H -1.962100 -12.668200 -32.009000
C -1.645700 -18.606100 -33.433900
C -1.572600 -5.199500 -30.110700
H -1.536500 -3.349200 -29.336800
C -1.391800 -14.791300 -33.566300
C -1.101500 -16.255400 -33.731100
H -0.784300 -5.106000 -30.595300
O -0.583800 -13.979400 -33.968600
C -0.422000 -18.921100 -33.952500
F -0.079700 -20.229900 -34.044500
C 0.150500 -16.628100 -34.274000
C 0.470500 -17.977600 -34.393500
H 0.754500 -15.976800 -34.548600
H 1.281600 -18.236500 -34.766700
