7
Fragment
H -7.148300 -11.415500 -26.453100
H -7.001100 -11.254100 -28.005600
H -6.686800 -10.045100 -27.058900
C -6.640700 -10.999400 -27.154200
N -5.243600 -11.430700 -27.067000
O -4.765100 -12.184700 -27.966800
O -4.590200 -11.070600 -26.141300
50
Fragment
H -13.149000 -4.135400 -19.331700
H -12.547500 -6.352400 -19.545000
C -12.325500 -4.374300 -19.692000
C -11.956500 -5.690400 -19.822800
F -11.776600 -2.113300 -20.032900
C -11.428200 -3.426800 -20.115300
O -11.248900 -8.353200 -20.094200
H -11.080600 -17.284000 -23.441700
C -10.737700 -6.065000 -20.354400
C -10.448700 -7.527500 -20.499800
H -10.352700 -19.056700 -24.724400
C -10.307500 -17.188100 -23.950600
C -10.180200 -3.734200 -20.637100
H -9.927200 -15.240500 -23.427100
H -9.887900 -9.687400 -22.062000
C -9.869300 -18.262300 -24.721200
C -9.847800 -5.075900 -20.743700
H -9.688400 -11.393500 -23.302700
C -9.620100 -15.967800 -23.919900
H -9.590300 -3.066900 -20.905300
H -9.334600 -13.037300 -24.944100
H -9.258600 -9.978200 -20.653200
C -9.164900 -7.993700 -21.160500
C -9.145900 -9.473900 -21.473900
H -9.037900 -7.496900 -21.984400
H -9.015200 -5.316100 -21.079700
C -8.790000 -11.462000 -23.663000
C -8.708100 -18.152800 -25.488600
H -8.673800 -10.742600 -24.302800
C -8.653900 -12.764200 -24.372200
C -8.446300 -15.910100 -24.669500
H -8.419400 -7.788800 -20.575700
H -8.411800 -18.862400 -26.012000
C -8.024900 -16.983100 -25.446600
N -7.843700 -11.287700 -22.588700
C -7.836900 -9.881500 -22.144400
H -7.679000 -9.307900 -22.910200
C -7.582600 -13.557900 -24.213900
N -7.531800 -14.847200 -24.824600
H -7.106500 -9.750700 -21.519200
N -6.856000 -16.546000 -26.078300
C -6.546500 -15.254000 -25.721200
C -6.496100 -11.673500 -23.000600
H -6.446600 -13.685600 -22.520800
C -6.426000 -13.165600 -23.338300
H -6.387200 -17.026900 -26.616200
H -6.236300 -11.153600 -23.777700
H -5.871600 -11.475700 -22.284900
O -5.609300 -14.567400 -26.109000
H -5.591700 -13.356500 -23.797100
57
Fragment
H -7.148300 -11.415500 -26.453100
H -7.001100 -11.254100 -28.005600
H -6.686800 -10.045100 -27.058900
C -6.640700 -10.999400 -27.154200
N -5.243600 -11.430700 -27.067000
O -4.765100 -12.184700 -27.966800
O -4.590200 -11.070600 -26.141300
H -13.149000 -4.135400 -19.331700
H -12.547500 -6.352400 -19.545000
C -12.325500 -4.374300 -19.692000
C -11.956500 -5.690400 -19.822800
F -11.776600 -2.113300 -20.032900
C -11.428200 -3.426800 -20.115300
O -11.248900 -8.353200 -20.094200
H -11.080600 -17.284000 -23.441700
C -10.737700 -6.065000 -20.354400
C -10.448700 -7.527500 -20.499800
H -10.352700 -19.056700 -24.724400
C -10.307500 -17.188100 -23.950600
C -10.180200 -3.734200 -20.637100
H -9.927200 -15.240500 -23.427100
H -9.887900 -9.687400 -22.062000
C -9.869300 -18.262300 -24.721200
C -9.847800 -5.075900 -20.743700
H -9.688400 -11.393500 -23.302700
C -9.620100 -15.967800 -23.919900
H -9.590300 -3.066900 -20.905300
H -9.334600 -13.037300 -24.944100
H -9.258600 -9.978200 -20.653200
C -9.164900 -7.993700 -21.160500
C -9.145900 -9.473900 -21.473900
H -9.037900 -7.496900 -21.984400
H -9.015200 -5.316100 -21.079700
C -8.790000 -11.462000 -23.663000
C -8.708100 -18.152800 -25.488600
H -8.673800 -10.742600 -24.302800
C -8.653900 -12.764200 -24.372200
C -8.446300 -15.910100 -24.669500
H -8.419400 -7.788800 -20.575700
H -8.411800 -18.862400 -26.012000
C -8.024900 -16.983100 -25.446600
N -7.843700 -11.287700 -22.588700
C -7.836900 -9.881500 -22.144400
H -7.679000 -9.307900 -22.910200
C -7.582600 -13.557900 -24.213900
N -7.531800 -14.847200 -24.824600
H -7.106500 -9.750700 -21.519200
N -6.856000 -16.546000 -26.078300
C -6.546500 -15.254000 -25.721200
C -6.496100 -11.673500 -23.000600
H -6.446600 -13.685600 -22.520800
C -6.426000 -13.165600 -23.338300
H -6.387200 -17.026900 -26.616200
H -6.236300 -11.153600 -23.777700
H -5.871600 -11.475700 -22.284900
O -5.609300 -14.567400 -26.109000
H -5.591700 -13.356500 -23.797100
