16
Fragment
H -42.073000 -27.217700 -11.603900
O -41.878300 -25.937100 -9.396700
H -41.534400 -25.450100 -8.720600
C -41.166600 -27.100800 -11.342200
C -40.866700 -26.422100 -10.168700
H -40.361100 -28.080200 -12.926700
C -40.148900 -27.607300 -12.130000
C -39.535800 -26.252500 -9.804300
H -39.323600 -25.790500 -9.001400
C -38.816000 -27.432500 -11.769000
C -38.512600 -26.748300 -10.596200
H -38.120600 -27.777400 -12.317700
C -37.087500 -26.583500 -10.164600
O -36.968200 -25.956100 -9.009600
O -36.143700 -27.016800 -10.801000
H -36.050500 -26.008200 -8.665800
22
Fragment
H -35.373700 -30.001600 -9.817300
H -35.190900 -32.433700 -9.796100
H -34.721600 -29.166900 -11.018900
N -34.611100 -31.187400 -11.295600
C -34.609400 -29.966300 -10.446200
C -34.428300 -32.369200 -10.424900
H -34.422700 -33.188200 -10.981900
H -33.968100 -31.099800 -8.223900
H -33.555600 -30.297800 -12.793100
C -33.451400 -31.095200 -12.215600
H -33.434600 -31.893600 -12.800000
N -33.357200 -29.851400 -9.686500
C -33.210500 -31.050700 -8.858300
N -33.167300 -32.292600 -9.657000
H -32.377300 -30.977100 -8.328000
H -32.325400 -29.006500 -11.197700
C -32.240900 -29.813200 -10.630500
N -32.182200 -31.002100 -11.492900
C -32.049300 -32.178400 -10.621500
H -32.019100 -32.995100 -11.181200
H -31.394200 -29.739700 -10.124200
H -31.196500 -32.119500 -10.124200
38
Fragment
H -42.073000 -27.217700 -11.603900
O -41.878300 -25.937100 -9.396700
H -41.534400 -25.450100 -8.720600
C -41.166600 -27.100800 -11.342200
C -40.866700 -26.422100 -10.168700
H -40.361100 -28.080200 -12.926700
C -40.148900 -27.607300 -12.130000
C -39.535800 -26.252500 -9.804300
H -39.323600 -25.790500 -9.001400
C -38.816000 -27.432500 -11.769000
C -38.512600 -26.748300 -10.596200
H -38.120600 -27.777400 -12.317700
C -37.087500 -26.583500 -10.164600
O -36.968200 -25.956100 -9.009600
O -36.143700 -27.016800 -10.801000
H -36.050500 -26.008200 -8.665800
H -35.373700 -30.001600 -9.817300
H -35.190900 -32.433700 -9.796100
H -34.721600 -29.166900 -11.018900
N -34.611100 -31.187400 -11.295600
C -34.609400 -29.966300 -10.446200
C -34.428300 -32.369200 -10.424900
H -34.422700 -33.188200 -10.981900
H -33.968100 -31.099800 -8.223900
H -33.555600 -30.297800 -12.793100
C -33.451400 -31.095200 -12.215600
H -33.434600 -31.893600 -12.800000
N -33.357200 -29.851400 -9.686500
C -33.210500 -31.050700 -8.858300
N -33.167300 -32.292600 -9.657000
H -32.377300 -30.977100 -8.328000
H -32.325400 -29.006500 -11.197700
C -32.240900 -29.813200 -10.630500
N -32.182200 -31.002100 -11.492900
C -32.049300 -32.178400 -10.621500
H -32.019100 -32.995100 -11.181200
H -31.394200 -29.739700 -10.124200
H -31.196500 -32.119500 -10.124200
