16
Fragment
H -42.073000 -27.217700 -11.603900
O -41.878300 -25.937100 -9.396700
H -41.534400 -25.450100 -8.720600
C -41.166600 -27.100800 -11.342200
C -40.866700 -26.422100 -10.168700
H -40.361100 -28.080200 -12.926700
C -40.148900 -27.607300 -12.130000
C -39.535800 -26.252500 -9.804300
H -39.323600 -25.790500 -9.001400
C -38.816000 -27.432500 -11.769000
C -38.512600 -26.748300 -10.596200
H -38.120600 -27.777400 -12.317700
C -37.087500 -26.583500 -10.164600
O -36.968200 -25.956100 -9.009600
O -36.143700 -27.016800 -10.801000
H -36.050500 -26.008200 -8.665800
16
Fragment
H -38.056400 -23.091600 -11.885400
O -37.963200 -22.083000 -9.750200
O -37.138700 -23.143700 -11.541600
C -37.019400 -22.516300 -10.386600
H -35.986300 -21.322400 -8.233500
C -35.594300 -22.351500 -9.955000
C -35.290900 -21.667300 -8.782200
H -34.783300 -23.309300 -11.549800
C -34.571100 -22.847300 -10.746900
C -33.958000 -21.492500 -8.421200
H -33.745800 -21.019600 -7.624500
C -33.240200 -22.677700 -10.382500
C -32.940300 -21.999000 -9.209000
H -32.572500 -23.649700 -11.830600
O -32.228600 -23.162700 -11.154500
H -32.033900 -21.882100 -8.947300
32
Fragment
H -42.073000 -27.217700 -11.603900
O -41.878300 -25.937100 -9.396700
H -41.534400 -25.450100 -8.720600
C -41.166600 -27.100800 -11.342200
C -40.866700 -26.422100 -10.168700
H -40.361100 -28.080200 -12.926700
C -40.148900 -27.607300 -12.130000
C -39.535800 -26.252500 -9.804300
H -39.323600 -25.790500 -9.001400
C -38.816000 -27.432500 -11.769000
C -38.512600 -26.748300 -10.596200
H -38.120600 -27.777400 -12.317700
C -37.087500 -26.583500 -10.164600
O -36.968200 -25.956100 -9.009600
O -36.143700 -27.016800 -10.801000
H -36.050500 -26.008200 -8.665800
H -38.056400 -23.091600 -11.885400
O -37.963200 -22.083000 -9.750200
O -37.138700 -23.143700 -11.541600
C -37.019400 -22.516300 -10.386600
H -35.986300 -21.322400 -8.233500
C -35.594300 -22.351500 -9.955000
C -35.290900 -21.667300 -8.782200
H -34.783300 -23.309300 -11.549800
C -34.571100 -22.847300 -10.746900
C -33.958000 -21.492500 -8.421200
H -33.745800 -21.019600 -7.624500
C -33.240200 -22.677700 -10.382500
C -32.940300 -21.999000 -9.209000
H -32.572500 -23.649700 -11.830600
O -32.228600 -23.162700 -11.154500
H -32.033900 -21.882100 -8.947300
