16
Fragment
H -42.073000 -27.217700 -11.603900
O -41.878300 -25.937100 -9.396700
H -41.534400 -25.450100 -8.720600
C -41.166600 -27.100800 -11.342200
C -40.866700 -26.422100 -10.168700
H -40.361100 -28.080200 -12.926700
C -40.148900 -27.607300 -12.130000
C -39.535800 -26.252500 -9.804300
H -39.323600 -25.790500 -9.001400
C -38.816000 -27.432500 -11.769000
C -38.512600 -26.748300 -10.596200
H -38.120600 -27.777400 -12.317700
C -37.087500 -26.583500 -10.164600
O -36.968200 -25.956100 -9.009600
O -36.143700 -27.016800 -10.801000
H -36.050500 -26.008200 -8.665800
16
Fragment
H -50.407500 -26.008200 -5.240600
O -50.314400 -27.016800 -7.375800
O -49.489800 -25.956100 -5.584400
C -49.370500 -26.583500 -6.739400
H -48.337500 -27.777400 -8.892500
C -47.945400 -26.748300 -7.171000
C -47.642100 -27.432500 -8.343800
H -47.134500 -25.790500 -5.576200
C -46.922300 -26.252500 -6.379100
C -46.309200 -27.607300 -8.704800
H -46.097000 -28.080200 -9.501500
C -45.591300 -26.422100 -6.743500
C -45.291400 -27.100800 -7.917000
H -44.923600 -25.450100 -5.295400
O -44.579700 -25.937100 -5.971500
H -44.385100 -27.217700 -8.178700
32
Fragment
H -42.073000 -27.217700 -11.603900
O -41.878300 -25.937100 -9.396700
H -41.534400 -25.450100 -8.720600
C -41.166600 -27.100800 -11.342200
C -40.866700 -26.422100 -10.168700
H -40.361100 -28.080200 -12.926700
C -40.148900 -27.607300 -12.130000
C -39.535800 -26.252500 -9.804300
H -39.323600 -25.790500 -9.001400
C -38.816000 -27.432500 -11.769000
C -38.512600 -26.748300 -10.596200
H -38.120600 -27.777400 -12.317700
C -37.087500 -26.583500 -10.164600
O -36.968200 -25.956100 -9.009600
O -36.143700 -27.016800 -10.801000
H -36.050500 -26.008200 -8.665800
H -50.407500 -26.008200 -5.240600
O -50.314400 -27.016800 -7.375800
O -49.489800 -25.956100 -5.584400
C -49.370500 -26.583500 -6.739400
H -48.337500 -27.777400 -8.892500
C -47.945400 -26.748300 -7.171000
C -47.642100 -27.432500 -8.343800
H -47.134500 -25.790500 -5.576200
C -46.922300 -26.252500 -6.379100
C -46.309200 -27.607300 -8.704800
H -46.097000 -28.080200 -9.501500
C -45.591300 -26.422100 -6.743500
C -45.291400 -27.100800 -7.917000
H -44.923600 -25.450100 -5.295400
O -44.579700 -25.937100 -5.971500
H -44.385100 -27.217700 -8.178700
