16
Fragment
H -42.073000 -27.217700 -11.603900
O -41.878300 -25.937100 -9.396700
H -41.534400 -25.450100 -8.720600
C -41.166600 -27.100800 -11.342200
C -40.866700 -26.422100 -10.168700
H -40.361100 -28.080200 -12.926700
C -40.148900 -27.607300 -12.130000
C -39.535800 -26.252500 -9.804300
H -39.323600 -25.790500 -9.001400
C -38.816000 -27.432500 -11.769000
C -38.512600 -26.748300 -10.596200
H -38.120600 -27.777400 -12.317700
C -37.087500 -26.583500 -10.164600
O -36.968200 -25.956100 -9.009600
O -36.143700 -27.016800 -10.801000
H -36.050500 -26.008200 -8.665800
22
Fragment
H -47.724800 -21.818300 -10.733900
H -47.542000 -24.250400 -10.755100
H -47.072700 -20.983600 -9.532300
N -46.962300 -23.004100 -9.255600
C -46.960600 -21.783000 -10.105000
C -46.779500 -24.185900 -10.126300
H -46.773800 -25.004900 -9.569300
H -46.319300 -22.916500 -12.327300
H -45.906800 -22.114500 -7.758100
C -45.802500 -22.911900 -8.335600
H -45.785700 -23.710300 -7.751200
N -45.708400 -21.668100 -10.864700
C -45.561700 -22.867400 -11.692900
N -45.518400 -24.109300 -10.894200
H -44.728500 -22.793800 -12.223200
H -44.676600 -20.823200 -9.353500
C -44.592100 -21.629900 -9.920700
N -44.533300 -22.818800 -9.058300
C -44.400400 -23.995100 -9.929700
H -44.370300 -24.811800 -9.370000
H -43.745300 -21.556400 -10.427000
H -43.547700 -23.936200 -10.427000
38
Fragment
H -42.073000 -27.217700 -11.603900
O -41.878300 -25.937100 -9.396700
H -41.534400 -25.450100 -8.720600
C -41.166600 -27.100800 -11.342200
C -40.866700 -26.422100 -10.168700
H -40.361100 -28.080200 -12.926700
C -40.148900 -27.607300 -12.130000
C -39.535800 -26.252500 -9.804300
H -39.323600 -25.790500 -9.001400
C -38.816000 -27.432500 -11.769000
C -38.512600 -26.748300 -10.596200
H -38.120600 -27.777400 -12.317700
C -37.087500 -26.583500 -10.164600
O -36.968200 -25.956100 -9.009600
O -36.143700 -27.016800 -10.801000
H -36.050500 -26.008200 -8.665800
H -47.724800 -21.818300 -10.733900
H -47.542000 -24.250400 -10.755100
H -47.072700 -20.983600 -9.532300
N -46.962300 -23.004100 -9.255600
C -46.960600 -21.783000 -10.105000
C -46.779500 -24.185900 -10.126300
H -46.773800 -25.004900 -9.569300
H -46.319300 -22.916500 -12.327300
H -45.906800 -22.114500 -7.758100
C -45.802500 -22.911900 -8.335600
H -45.785700 -23.710300 -7.751200
N -45.708400 -21.668100 -10.864700
C -45.561700 -22.867400 -11.692900
N -45.518400 -24.109300 -10.894200
H -44.728500 -22.793800 -12.223200
H -44.676600 -20.823200 -9.353500
C -44.592100 -21.629900 -9.920700
N -44.533300 -22.818800 -9.058300
C -44.400400 -23.995100 -9.929700
H -44.370300 -24.811800 -9.370000
H -43.745300 -21.556400 -10.427000
H -43.547700 -23.936200 -10.427000
