17
Fragment
H -24.153400 -22.386300 -10.367400
O -23.705600 -22.056500 -9.651100
O -22.602300 -23.366600 -11.791800
C -22.348900 -22.164100 -9.772100
H -22.135500 -23.826100 -12.388000
H -21.925900 -21.131800 -8.066800
C -21.760300 -22.835900 -10.853600
C -21.533300 -21.598600 -8.794400
C -20.382100 -22.945500 -10.928200
C -20.147600 -21.712800 -8.874400
H -19.987500 -23.404700 -11.660500
H -19.600500 -21.328500 -8.199700
C -19.563500 -22.389400 -9.940300
C -18.079900 -22.503500 -10.058300
O -17.706100 -23.088200 -11.189000
O -17.294800 -22.090600 -9.223200
H -16.755500 -22.994700 -11.343800
17
Fragment
H -23.723300 -18.611200 -13.757700
O -23.275400 -18.941000 -13.041400
O -22.172200 -17.630900 -15.182000
C -21.918700 -18.833400 -13.162400
H -21.705300 -17.171400 -15.778300
H -21.495700 -19.865700 -11.457100
C -21.330100 -18.161600 -14.243900
C -21.103200 -19.398900 -12.184600
C -19.951900 -18.052000 -14.318500
C -19.717500 -19.284700 -12.264600
H -19.557400 -17.592800 -15.050800
H -19.170400 -19.669000 -11.590000
C -19.133300 -18.608100 -13.330500
C -17.649800 -18.494000 -13.448500
O -17.275900 -17.909300 -14.579300
O -16.864600 -18.906900 -12.613500
H -16.325300 -18.002800 -14.734100
34
Fragment
H -24.153400 -22.386300 -10.367400
O -23.705600 -22.056500 -9.651100
O -22.602300 -23.366600 -11.791800
C -22.348900 -22.164100 -9.772100
H -22.135500 -23.826100 -12.388000
H -21.925900 -21.131800 -8.066800
C -21.760300 -22.835900 -10.853600
C -21.533300 -21.598600 -8.794400
C -20.382100 -22.945500 -10.928200
C -20.147600 -21.712800 -8.874400
H -19.987500 -23.404700 -11.660500
H -19.600500 -21.328500 -8.199700
C -19.563500 -22.389400 -9.940300
C -18.079900 -22.503500 -10.058300
O -17.706100 -23.088200 -11.189000
O -17.294800 -22.090600 -9.223200
H -16.755500 -22.994700 -11.343800
H -23.723300 -18.611200 -13.757700
O -23.275400 -18.941000 -13.041400
O -22.172200 -17.630900 -15.182000
C -21.918700 -18.833400 -13.162400
H -21.705300 -17.171400 -15.778300
H -21.495700 -19.865700 -11.457100
C -21.330100 -18.161600 -14.243900
C -21.103200 -19.398900 -12.184600
C -19.951900 -18.052000 -14.318500
C -19.717500 -19.284700 -12.264600
H -19.557400 -17.592800 -15.050800
H -19.170400 -19.669000 -11.590000
C -19.133300 -18.608100 -13.330500
C -17.649800 -18.494000 -13.448500
O -17.275900 -17.909300 -14.579300
O -16.864600 -18.906900 -12.613500
H -16.325300 -18.002800 -14.734100
