17
Fragment
H -24.153400 -22.386300 -10.367400
O -23.705600 -22.056500 -9.651100
O -22.602300 -23.366600 -11.791800
C -22.348900 -22.164100 -9.772100
H -22.135500 -23.826100 -12.388000
H -21.925900 -21.131800 -8.066800
C -21.760300 -22.835900 -10.853600
C -21.533300 -21.598600 -8.794400
C -20.382100 -22.945500 -10.928200
C -20.147600 -21.712800 -8.874400
H -19.987500 -23.404700 -11.660500
H -19.600500 -21.328500 -8.199700
C -19.563500 -22.389400 -9.940300
C -18.079900 -22.503500 -10.058300
O -17.706100 -23.088200 -11.189000
O -17.294800 -22.090600 -9.223200
H -16.755500 -22.994700 -11.343800
22
Fragment
H -15.793400 -21.735200 -13.510900
H -15.670600 -24.163900 -13.525800
H -15.223900 -20.913600 -12.259200
N -15.170300 -22.936800 -11.980100
C -15.080500 -21.713100 -12.824700
H -15.010000 -24.942900 -12.291800
C -14.955400 -24.121100 -12.842300
H -14.284900 -22.840500 -15.005300
H -14.220100 -22.082900 -10.394600
H -14.131100 -23.681800 -10.395900
C -14.085400 -22.877300 -10.970900
N -13.768000 -21.614200 -13.486300
N -13.635500 -24.066800 -13.514200
C -13.581300 -22.813500 -14.309700
H -12.836900 -20.789000 -11.884300
N -12.750700 -22.802200 -11.598700
C -12.716700 -21.590400 -12.452500
H -12.705300 -22.758500 -14.767300
H -12.620400 -24.801800 -11.907300
C -12.586600 -23.984200 -12.464700
H -11.830600 -21.525300 -12.889100
H -11.696900 -23.947500 -12.897900
39
Fragment
H -24.153400 -22.386300 -10.367400
O -23.705600 -22.056500 -9.651100
O -22.602300 -23.366600 -11.791800
C -22.348900 -22.164100 -9.772100
H -22.135500 -23.826100 -12.388000
H -21.925900 -21.131800 -8.066800
C -21.760300 -22.835900 -10.853600
C -21.533300 -21.598600 -8.794400
C -20.382100 -22.945500 -10.928200
C -20.147600 -21.712800 -8.874400
H -19.987500 -23.404700 -11.660500
H -19.600500 -21.328500 -8.199700
C -19.563500 -22.389400 -9.940300
C -18.079900 -22.503500 -10.058300
O -17.706100 -23.088200 -11.189000
O -17.294800 -22.090600 -9.223200
H -16.755500 -22.994700 -11.343800
H -15.793400 -21.735200 -13.510900
H -15.670600 -24.163900 -13.525800
H -15.223900 -20.913600 -12.259200
N -15.170300 -22.936800 -11.980100
C -15.080500 -21.713100 -12.824700
H -15.010000 -24.942900 -12.291800
C -14.955400 -24.121100 -12.842300
H -14.284900 -22.840500 -15.005300
H -14.220100 -22.082900 -10.394600
H -14.131100 -23.681800 -10.395900
C -14.085400 -22.877300 -10.970900
N -13.768000 -21.614200 -13.486300
N -13.635500 -24.066800 -13.514200
C -13.581300 -22.813500 -14.309700
H -12.836900 -20.789000 -11.884300
N -12.750700 -22.802200 -11.598700
C -12.716700 -21.590400 -12.452500
H -12.705300 -22.758500 -14.767300
H -12.620400 -24.801800 -11.907300
C -12.586600 -23.984200 -12.464700
H -11.830600 -21.525300 -12.889100
H -11.696900 -23.947500 -12.897900
