17
Fragment
H -24.153400 -22.386300 -10.367400
O -23.705600 -22.056500 -9.651100
O -22.602300 -23.366600 -11.791800
C -22.348900 -22.164100 -9.772100
H -22.135500 -23.826100 -12.388000
H -21.925900 -21.131800 -8.066800
C -21.760300 -22.835900 -10.853600
C -21.533300 -21.598600 -8.794400
C -20.382100 -22.945500 -10.928200
C -20.147600 -21.712800 -8.874400
H -19.987500 -23.404700 -11.660500
H -19.600500 -21.328500 -8.199700
C -19.563500 -22.389400 -9.940300
C -18.079900 -22.503500 -10.058300
O -17.706100 -23.088200 -11.189000
O -17.294800 -22.090600 -9.223200
H -16.755500 -22.994700 -11.343800
22
Fragment
H -24.324900 -25.249500 -7.443700
H -24.191300 -27.671700 -7.452500
C -23.435300 -25.212800 -7.877000
H -23.401500 -24.395200 -8.434300
H -23.316500 -26.438500 -5.574300
C -23.305200 -27.606600 -7.889200
N -23.271200 -26.394800 -8.743000
H -23.184900 -28.408000 -8.457400
C -22.440600 -26.383500 -6.032000
N -22.386400 -25.130200 -6.827400
N -22.253900 -27.582800 -6.855300
C -21.936400 -26.319700 -9.370700
H -21.890800 -25.515200 -9.945700
H -21.801800 -27.114100 -9.947100
H -21.737000 -26.356500 -5.336300
C -21.066500 -25.075900 -7.499300
H -21.011800 -24.254100 -8.049900
C -20.941400 -27.483900 -7.516900
N -20.851600 -26.260200 -8.361600
H -20.798000 -28.283400 -8.082400
H -20.351300 -25.033100 -6.815800
H -20.228500 -27.461800 -6.830700
39
Fragment
H -24.153400 -22.386300 -10.367400
O -23.705600 -22.056500 -9.651100
O -22.602300 -23.366600 -11.791800
C -22.348900 -22.164100 -9.772100
H -22.135500 -23.826100 -12.388000
H -21.925900 -21.131800 -8.066800
C -21.760300 -22.835900 -10.853600
C -21.533300 -21.598600 -8.794400
C -20.382100 -22.945500 -10.928200
C -20.147600 -21.712800 -8.874400
H -19.987500 -23.404700 -11.660500
H -19.600500 -21.328500 -8.199700
C -19.563500 -22.389400 -9.940300
C -18.079900 -22.503500 -10.058300
O -17.706100 -23.088200 -11.189000
O -17.294800 -22.090600 -9.223200
H -16.755500 -22.994700 -11.343800
H -24.324900 -25.249500 -7.443700
H -24.191300 -27.671700 -7.452500
C -23.435300 -25.212800 -7.877000
H -23.401500 -24.395200 -8.434300
H -23.316500 -26.438500 -5.574300
C -23.305200 -27.606600 -7.889200
N -23.271200 -26.394800 -8.743000
H -23.184900 -28.408000 -8.457400
C -22.440600 -26.383500 -6.032000
N -22.386400 -25.130200 -6.827400
N -22.253900 -27.582800 -6.855300
C -21.936400 -26.319700 -9.370700
H -21.890800 -25.515200 -9.945700
H -21.801800 -27.114100 -9.947100
H -21.737000 -26.356500 -5.336300
C -21.066500 -25.075900 -7.499300
H -21.011800 -24.254100 -8.049900
C -20.941400 -27.483900 -7.516900
N -20.851600 -26.260200 -8.361600
H -20.798000 -28.283400 -8.082400
H -20.351300 -25.033100 -6.815800
H -20.228500 -27.461800 -6.830700
