17
Fragment
H -24.153400 -22.386300 -10.367400
O -23.705600 -22.056500 -9.651100
O -22.602300 -23.366600 -11.791800
C -22.348900 -22.164100 -9.772100
H -22.135500 -23.826100 -12.388000
H -21.925900 -21.131800 -8.066800
C -21.760300 -22.835900 -10.853600
C -21.533300 -21.598600 -8.794400
C -20.382100 -22.945500 -10.928200
C -20.147600 -21.712800 -8.874400
H -19.987500 -23.404700 -11.660500
H -19.600500 -21.328500 -8.199700
C -19.563500 -22.389400 -9.940300
C -18.079900 -22.503500 -10.058300
O -17.706100 -23.088200 -11.189000
O -17.294800 -22.090600 -9.223200
H -16.755500 -22.994700 -11.343800
17
Fragment
H -19.266400 -26.202300 -8.997800
O -18.727100 -27.106400 -11.118400
O -18.315800 -26.108800 -9.152600
C -17.942000 -26.693500 -10.283400
C -16.458400 -26.807600 -10.401300
H -16.421300 -27.868500 -12.141900
H -16.034300 -25.792300 -8.681100
C -15.874200 -27.484200 -11.467200
C -15.639800 -26.251500 -9.413400
C -14.488500 -27.598400 -11.547300
C -14.261600 -26.361100 -9.488000
H -14.096000 -28.065200 -12.274800
H -13.886400 -25.370900 -7.953600
C -13.673000 -27.032900 -10.569500
O -13.419600 -25.830400 -8.549900
O -12.316300 -27.140500 -10.690500
H -11.868400 -26.810700 -9.974200
34
Fragment
H -24.153400 -22.386300 -10.367400
O -23.705600 -22.056500 -9.651100
O -22.602300 -23.366600 -11.791800
C -22.348900 -22.164100 -9.772100
H -22.135500 -23.826100 -12.388000
H -21.925900 -21.131800 -8.066800
C -21.760300 -22.835900 -10.853600
C -21.533300 -21.598600 -8.794400
C -20.382100 -22.945500 -10.928200
C -20.147600 -21.712800 -8.874400
H -19.987500 -23.404700 -11.660500
H -19.600500 -21.328500 -8.199700
C -19.563500 -22.389400 -9.940300
C -18.079900 -22.503500 -10.058300
O -17.706100 -23.088200 -11.189000
O -17.294800 -22.090600 -9.223200
H -16.755500 -22.994700 -11.343800
H -19.266400 -26.202300 -8.997800
O -18.727100 -27.106400 -11.118400
O -18.315800 -26.108800 -9.152600
C -17.942000 -26.693500 -10.283400
C -16.458400 -26.807600 -10.401300
H -16.421300 -27.868500 -12.141900
H -16.034300 -25.792300 -8.681100
C -15.874200 -27.484200 -11.467200
C -15.639800 -26.251500 -9.413400
C -14.488500 -27.598400 -11.547300
C -14.261600 -26.361100 -9.488000
H -14.096000 -28.065200 -12.274800
H -13.886400 -25.370900 -7.953600
C -13.673000 -27.032900 -10.569500
O -13.419600 -25.830400 -8.549900
O -12.316300 -27.140500 -10.690500
H -11.868400 -26.810700 -9.974200
