22
Fragment
H -15.046600 -22.714300 -29.141300
H -14.932800 -24.307200 -29.036700
C -14.417200 -23.476200 -29.195400
N -13.824700 -23.522600 -30.559400
H -13.672200 -21.498900 -30.722000
N -13.403300 -23.335700 -28.148000
H -13.379300 -25.503900 -30.482200
H -13.262800 -21.317000 -28.332400
C -13.053900 -22.271700 -30.756900
H -12.989500 -25.322000 -28.099200
C -12.881800 -24.659200 -30.617100
C -12.648400 -22.091500 -28.396300
H -12.634800 -22.286000 -31.653000
C -12.484400 -24.483400 -28.252200
H -12.461700 -24.691300 -31.513400
N -12.005800 -22.099300 -29.735200
H -11.952000 -21.986800 -27.700200
N -11.828200 -24.541900 -29.585700
H -11.791000 -24.412600 -27.549700
C -11.104300 -23.263900 -29.798400
H -10.660700 -23.283800 -30.682800
H -10.401600 -23.169900 -29.108600
18
Fragment
H -18.399500 -21.675700 -35.867400
O -17.947900 -21.993600 -33.664900
H -17.752000 -21.556700 -32.852100
O -17.681200 -22.117800 -36.418100
C -16.824500 -22.551100 -34.214800
C -16.705600 -22.601300 -35.604000
O -16.031700 -23.039900 -32.065300
C -15.817300 -23.094400 -33.408100
C -15.560200 -23.146100 -36.195800
H -15.471400 -23.168200 -37.140700
H -15.248800 -23.346700 -31.613700
C -14.678900 -23.652500 -33.984800
C -14.548500 -23.657800 -35.379000
H -13.997700 -24.026700 -33.438600
C -13.317000 -24.214200 -36.006700
O -13.056900 -24.099800 -37.201900
O -12.543100 -24.845900 -35.154500
H -11.732000 -25.289700 -35.570900
40
Fragment
H -15.046600 -22.714300 -29.141300
H -14.932800 -24.307200 -29.036700
C -14.417200 -23.476200 -29.195400
N -13.824700 -23.522600 -30.559400
H -13.672200 -21.498900 -30.722000
N -13.403300 -23.335700 -28.148000
H -13.379300 -25.503900 -30.482200
H -13.262800 -21.317000 -28.332400
C -13.053900 -22.271700 -30.756900
H -12.989500 -25.322000 -28.099200
C -12.881800 -24.659200 -30.617100
C -12.648400 -22.091500 -28.396300
H -12.634800 -22.286000 -31.653000
C -12.484400 -24.483400 -28.252200
H -12.461700 -24.691300 -31.513400
N -12.005800 -22.099300 -29.735200
H -11.952000 -21.986800 -27.700200
N -11.828200 -24.541900 -29.585700
H -11.791000 -24.412600 -27.549700
C -11.104300 -23.263900 -29.798400
H -10.660700 -23.283800 -30.682800
H -10.401600 -23.169900 -29.108600
H -18.399500 -21.675700 -35.867400
O -17.947900 -21.993600 -33.664900
H -17.752000 -21.556700 -32.852100
O -17.681200 -22.117800 -36.418100
C -16.824500 -22.551100 -34.214800
C -16.705600 -22.601300 -35.604000
O -16.031700 -23.039900 -32.065300
C -15.817300 -23.094400 -33.408100
C -15.560200 -23.146100 -36.195800
H -15.471400 -23.168200 -37.140700
H -15.248800 -23.346700 -31.613700
C -14.678900 -23.652500 -33.984800
C -14.548500 -23.657800 -35.379000
H -13.997700 -24.026700 -33.438600
C -13.317000 -24.214200 -36.006700
O -13.056900 -24.099800 -37.201900
O -12.543100 -24.845900 -35.154500
H -11.732000 -25.289700 -35.570900
