22
Fragment
H -15.046600 -22.714300 -29.141300
H -14.932800 -24.307200 -29.036700
C -14.417200 -23.476200 -29.195400
N -13.824700 -23.522600 -30.559400
H -13.672200 -21.498900 -30.722000
N -13.403300 -23.335700 -28.148000
H -13.379300 -25.503900 -30.482200
H -13.262800 -21.317000 -28.332400
C -13.053900 -22.271700 -30.756900
H -12.989500 -25.322000 -28.099200
C -12.881800 -24.659200 -30.617100
C -12.648400 -22.091500 -28.396300
H -12.634800 -22.286000 -31.653000
C -12.484400 -24.483400 -28.252200
H -12.461700 -24.691300 -31.513400
N -12.005800 -22.099300 -29.735200
H -11.952000 -21.986800 -27.700200
N -11.828200 -24.541900 -29.585700
H -11.791000 -24.412600 -27.549700
C -11.104300 -23.263900 -29.798400
H -10.660700 -23.283800 -30.682800
H -10.401600 -23.169900 -29.108600
18
Fragment
H -10.661400 -25.707900 -29.836800
O -9.850300 -26.151700 -30.253200
O -9.336400 -26.897800 -28.205800
C -9.076300 -26.783400 -29.401000
H -8.395700 -26.970900 -31.969100
C -7.844900 -27.339800 -30.028700
C -7.714500 -27.345100 -31.423000
H -7.144500 -27.650900 -33.794000
H -6.921900 -27.829400 -28.267000
C -6.833100 -27.851500 -29.212000
C -6.576000 -27.903200 -31.999600
O -6.361600 -27.957700 -33.342500
C -5.687700 -28.396300 -29.803700
C -5.568900 -28.446500 -31.192900
O -4.712200 -28.879800 -28.989600
H -4.641400 -29.440900 -32.555600
O -4.445500 -29.004000 -31.742800
H -3.993800 -29.321900 -29.540300
40
Fragment
H -15.046600 -22.714300 -29.141300
H -14.932800 -24.307200 -29.036700
C -14.417200 -23.476200 -29.195400
N -13.824700 -23.522600 -30.559400
H -13.672200 -21.498900 -30.722000
N -13.403300 -23.335700 -28.148000
H -13.379300 -25.503900 -30.482200
H -13.262800 -21.317000 -28.332400
C -13.053900 -22.271700 -30.756900
H -12.989500 -25.322000 -28.099200
C -12.881800 -24.659200 -30.617100
C -12.648400 -22.091500 -28.396300
H -12.634800 -22.286000 -31.653000
C -12.484400 -24.483400 -28.252200
H -12.461700 -24.691300 -31.513400
N -12.005800 -22.099300 -29.735200
H -11.952000 -21.986800 -27.700200
N -11.828200 -24.541900 -29.585700
H -11.791000 -24.412600 -27.549700
C -11.104300 -23.263900 -29.798400
H -10.660700 -23.283800 -30.682800
H -10.401600 -23.169900 -29.108600
H -10.661400 -25.707900 -29.836800
O -9.850300 -26.151700 -30.253200
O -9.336400 -26.897800 -28.205800
C -9.076300 -26.783400 -29.401000
H -8.395700 -26.970900 -31.969100
C -7.844900 -27.339800 -30.028700
C -7.714500 -27.345100 -31.423000
H -7.144500 -27.650900 -33.794000
H -6.921900 -27.829400 -28.267000
C -6.833100 -27.851500 -29.212000
C -6.576000 -27.903200 -31.999600
O -6.361600 -27.957700 -33.342500
C -5.687700 -28.396300 -29.803700
C -5.568900 -28.446500 -31.192900
O -4.712200 -28.879800 -28.989600
H -4.641400 -29.440900 -32.555600
O -4.445500 -29.004000 -31.742800
H -3.993800 -29.321900 -29.540300
