22
Fragment
H -15.046600 -22.714300 -29.141300
H -14.932800 -24.307200 -29.036700
C -14.417200 -23.476200 -29.195400
N -13.824700 -23.522600 -30.559400
H -13.672200 -21.498900 -30.722000
N -13.403300 -23.335700 -28.148000
H -13.379300 -25.503900 -30.482200
H -13.262800 -21.317000 -28.332400
C -13.053900 -22.271700 -30.756900
H -12.989500 -25.322000 -28.099200
C -12.881800 -24.659200 -30.617100
C -12.648400 -22.091500 -28.396300
H -12.634800 -22.286000 -31.653000
C -12.484400 -24.483400 -28.252200
H -12.461700 -24.691300 -31.513400
N -12.005800 -22.099300 -29.735200
H -11.952000 -21.986800 -27.700200
N -11.828200 -24.541900 -29.585700
H -11.791000 -24.412600 -27.549700
C -11.104300 -23.263900 -29.798400
H -10.660700 -23.283800 -30.682800
H -10.401600 -23.169900 -29.108600
22
Fragment
H -18.948200 -22.653100 -25.232100
H -18.909300 -24.251100 -25.149300
C -18.353600 -23.433200 -25.098200
N -17.733400 -23.348200 -23.753000
H -17.474400 -21.328900 -23.817100
H -17.393700 -25.347500 -23.620900
N -17.349900 -23.465000 -26.177300
H -17.127700 -21.458100 -26.211000
H -17.009500 -25.458000 -26.025700
C -16.897000 -22.125800 -23.707200
C -16.850200 -24.520200 -23.585100
C -16.543600 -22.245300 -26.076300
C -16.473300 -24.627300 -25.961000
H -16.456700 -22.063300 -22.822900
H -16.415700 -24.478800 -22.696500
N -15.867300 -22.130900 -24.763800
H -15.862800 -22.245200 -26.795400
N -15.811300 -24.572200 -24.635200
H -15.783500 -24.653900 -26.671100
C -15.016500 -23.317800 -24.576500
H -14.560600 -23.260000 -23.699400
H -14.321700 -23.336500 -25.282300
44
Fragment
H -15.046600 -22.714300 -29.141300
H -14.932800 -24.307200 -29.036700
C -14.417200 -23.476200 -29.195400
N -13.824700 -23.522600 -30.559400
H -13.672200 -21.498900 -30.722000
N -13.403300 -23.335700 -28.148000
H -13.379300 -25.503900 -30.482200
H -13.262800 -21.317000 -28.332400
C -13.053900 -22.271700 -30.756900
H -12.989500 -25.322000 -28.099200
C -12.881800 -24.659200 -30.617100
C -12.648400 -22.091500 -28.396300
H -12.634800 -22.286000 -31.653000
C -12.484400 -24.483400 -28.252200
H -12.461700 -24.691300 -31.513400
N -12.005800 -22.099300 -29.735200
H -11.952000 -21.986800 -27.700200
N -11.828200 -24.541900 -29.585700
H -11.791000 -24.412600 -27.549700
C -11.104300 -23.263900 -29.798400
H -10.660700 -23.283800 -30.682800
H -10.401600 -23.169900 -29.108600
H -18.948200 -22.653100 -25.232100
H -18.909300 -24.251100 -25.149300
C -18.353600 -23.433200 -25.098200
N -17.733400 -23.348200 -23.753000
H -17.474400 -21.328900 -23.817100
H -17.393700 -25.347500 -23.620900
N -17.349900 -23.465000 -26.177300
H -17.127700 -21.458100 -26.211000
H -17.009500 -25.458000 -26.025700
C -16.897000 -22.125800 -23.707200
C -16.850200 -24.520200 -23.585100
C -16.543600 -22.245300 -26.076300
C -16.473300 -24.627300 -25.961000
H -16.456700 -22.063300 -22.822900
H -16.415700 -24.478800 -22.696500
N -15.867300 -22.130900 -24.763800
H -15.862800 -22.245200 -26.795400
N -15.811300 -24.572200 -24.635200
H -15.783500 -24.653900 -26.671100
C -15.016500 -23.317800 -24.576500
H -14.560600 -23.260000 -23.699400
H -14.321700 -23.336500 -25.282300
