22
Fragment
H -15.046600 -22.714300 -29.141300
H -14.932800 -24.307200 -29.036700
C -14.417200 -23.476200 -29.195400
N -13.824700 -23.522600 -30.559400
H -13.672200 -21.498900 -30.722000
N -13.403300 -23.335700 -28.148000
H -13.379300 -25.503900 -30.482200
H -13.262800 -21.317000 -28.332400
C -13.053900 -22.271700 -30.756900
H -12.989500 -25.322000 -28.099200
C -12.881800 -24.659200 -30.617100
C -12.648400 -22.091500 -28.396300
H -12.634800 -22.286000 -31.653000
C -12.484400 -24.483400 -28.252200
H -12.461700 -24.691300 -31.513400
N -12.005800 -22.099300 -29.735200
H -11.952000 -21.986800 -27.700200
N -11.828200 -24.541900 -29.585700
H -11.791000 -24.412600 -27.549700
C -11.104300 -23.263900 -29.798400
H -10.660700 -23.283800 -30.682800
H -10.401600 -23.169900 -29.108600
18
Fragment
H -14.735900 -25.791200 -24.283700
O -13.938300 -26.309300 -23.947700
O -13.521500 -26.526400 -26.136000
C -13.191100 -26.689900 -24.974800
H -12.230600 -27.198700 -22.552600
C -11.902300 -27.312800 -24.563000
C -11.603000 -27.473900 -23.209700
H -11.189800 -27.598200 -26.457400
C -10.982900 -27.695800 -25.536000
H -10.766100 -27.899100 -20.941400
C -10.392400 -28.034100 -22.817500
O -10.050400 -28.203900 -21.509800
C -9.753100 -28.224600 -25.138600
C -9.459900 -28.427300 -23.786400
H -8.896100 -28.081000 -26.882600
O -8.774700 -28.572300 -26.042300
O -8.290500 -28.971400 -23.353600
H -7.798200 -29.328700 -24.061300
40
Fragment
H -15.046600 -22.714300 -29.141300
H -14.932800 -24.307200 -29.036700
C -14.417200 -23.476200 -29.195400
N -13.824700 -23.522600 -30.559400
H -13.672200 -21.498900 -30.722000
N -13.403300 -23.335700 -28.148000
H -13.379300 -25.503900 -30.482200
H -13.262800 -21.317000 -28.332400
C -13.053900 -22.271700 -30.756900
H -12.989500 -25.322000 -28.099200
C -12.881800 -24.659200 -30.617100
C -12.648400 -22.091500 -28.396300
H -12.634800 -22.286000 -31.653000
C -12.484400 -24.483400 -28.252200
H -12.461700 -24.691300 -31.513400
N -12.005800 -22.099300 -29.735200
H -11.952000 -21.986800 -27.700200
N -11.828200 -24.541900 -29.585700
H -11.791000 -24.412600 -27.549700
C -11.104300 -23.263900 -29.798400
H -10.660700 -23.283800 -30.682800
H -10.401600 -23.169900 -29.108600
H -14.735900 -25.791200 -24.283700
O -13.938300 -26.309300 -23.947700
O -13.521500 -26.526400 -26.136000
C -13.191100 -26.689900 -24.974800
H -12.230600 -27.198700 -22.552600
C -11.902300 -27.312800 -24.563000
C -11.603000 -27.473900 -23.209700
H -11.189800 -27.598200 -26.457400
C -10.982900 -27.695800 -25.536000
H -10.766100 -27.899100 -20.941400
C -10.392400 -28.034100 -22.817500
O -10.050400 -28.203900 -21.509800
C -9.753100 -28.224600 -25.138600
C -9.459900 -28.427300 -23.786400
H -8.896100 -28.081000 -26.882600
O -8.774700 -28.572300 -26.042300
O -8.290500 -28.971400 -23.353600
H -7.798200 -29.328700 -24.061300
