14
Fragment
N -14.389800 -15.489400 -8.370300
N -14.063700 -14.244400 -8.464800
N -13.363900 -16.296200 -8.751100
N -12.791500 -14.206100 -8.922200
H -12.456100 -18.286000 -9.204300
C -12.392300 -15.465200 -9.080400
H -12.345000 -13.388100 -9.027300
N -11.554100 -18.209400 -9.490900
N -11.149400 -15.832000 -9.525600
N -10.816600 -19.309400 -9.790900
C -10.794700 -17.130800 -9.714400
H -10.563700 -15.204700 -9.748900
N -9.667000 -18.881600 -10.178200
N -9.606900 -17.519500 -10.149600
14
Fragment
N -14.414800 -21.369100 -4.966300
N -14.088700 -22.614100 -5.060800
N -13.388800 -20.562300 -5.347100
N -12.816500 -22.652400 -5.518200
H -12.481000 -18.572500 -5.800300
C -12.417200 -21.393300 -5.676400
H -12.369900 -23.470400 -5.623300
N -11.579000 -18.649100 -6.087000
N -11.174300 -21.026500 -6.121600
N -10.841500 -17.549100 -6.387000
C -10.819600 -19.727700 -6.310500
H -10.588700 -21.653800 -6.345000
N -9.691900 -17.976900 -6.774200
N -9.631800 -19.339000 -6.745600
28
Fragment
N -14.389800 -15.489400 -8.370300
N -14.063700 -14.244400 -8.464800
N -13.363900 -16.296200 -8.751100
N -12.791500 -14.206100 -8.922200
H -12.456100 -18.286000 -9.204300
C -12.392300 -15.465200 -9.080400
H -12.345000 -13.388100 -9.027300
N -11.554100 -18.209400 -9.490900
N -11.149400 -15.832000 -9.525600
N -10.816600 -19.309400 -9.790900
C -10.794700 -17.130800 -9.714400
H -10.563700 -15.204700 -9.748900
N -9.667000 -18.881600 -10.178200
N -9.606900 -17.519500 -10.149600
N -14.414800 -21.369100 -4.966300
N -14.088700 -22.614100 -5.060800
N -13.388800 -20.562300 -5.347100
N -12.816500 -22.652400 -5.518200
H -12.481000 -18.572500 -5.800300
C -12.417200 -21.393300 -5.676400
H -12.369900 -23.470400 -5.623300
N -11.579000 -18.649100 -6.087000
N -11.174300 -21.026500 -6.121600
N -10.841500 -17.549100 -6.387000
C -10.819600 -19.727700 -6.310500
H -10.588700 -21.653800 -6.345000
N -9.691900 -17.976900 -6.774200
N -9.631800 -19.339000 -6.745600
