14
Fragment
N -14.389800 -15.489400 -8.370300
N -14.063700 -14.244400 -8.464800
N -13.363900 -16.296200 -8.751100
N -12.791500 -14.206100 -8.922200
H -12.456100 -18.286000 -9.204300
C -12.392300 -15.465200 -9.080400
H -12.345000 -13.388100 -9.027300
N -11.554100 -18.209400 -9.490900
N -11.149400 -15.832000 -9.525600
N -10.816600 -19.309400 -9.790900
C -10.794700 -17.130800 -9.714400
H -10.563700 -15.204700 -9.748900
N -9.667000 -18.881600 -10.178200
N -9.606900 -17.519500 -10.149600
14
Fragment
N -18.394000 -14.073500 -3.466300
N -18.333900 -12.711400 -3.437700
H -17.437200 -16.388300 -3.866900
C -17.206200 -14.462200 -3.901400
N -17.184300 -12.283600 -3.824900
N -16.851500 -15.761000 -4.090300
N -16.446800 -13.383600 -4.124900
H -15.655900 -18.204900 -4.588500
C -15.608600 -16.127800 -4.535400
H -15.544800 -13.307000 -4.411500
N -15.209400 -17.386900 -4.693700
N -14.637000 -15.296800 -4.864700
N -13.937200 -17.348600 -5.151100
N -13.611100 -16.103600 -5.245600
28
Fragment
N -14.389800 -15.489400 -8.370300
N -14.063700 -14.244400 -8.464800
N -13.363900 -16.296200 -8.751100
N -12.791500 -14.206100 -8.922200
H -12.456100 -18.286000 -9.204300
C -12.392300 -15.465200 -9.080400
H -12.345000 -13.388100 -9.027300
N -11.554100 -18.209400 -9.490900
N -11.149400 -15.832000 -9.525600
N -10.816600 -19.309400 -9.790900
C -10.794700 -17.130800 -9.714400
H -10.563700 -15.204700 -9.748900
N -9.667000 -18.881600 -10.178200
N -9.606900 -17.519500 -10.149600
N -18.394000 -14.073500 -3.466300
N -18.333900 -12.711400 -3.437700
H -17.437200 -16.388300 -3.866900
C -17.206200 -14.462200 -3.901400
N -17.184300 -12.283600 -3.824900
N -16.851500 -15.761000 -4.090300
N -16.446800 -13.383600 -4.124900
H -15.655900 -18.204900 -4.588500
C -15.608600 -16.127800 -4.535400
H -15.544800 -13.307000 -4.411500
N -15.209400 -17.386900 -4.693700
N -14.637000 -15.296800 -4.864700
N -13.937200 -17.348600 -5.151100
N -13.611100 -16.103600 -5.245600
