14
Fragment
N -14.389800 -15.489400 -8.370300
N -14.063700 -14.244400 -8.464800
N -13.363900 -16.296200 -8.751100
N -12.791500 -14.206100 -8.922200
H -12.456100 -18.286000 -9.204300
C -12.392300 -15.465200 -9.080400
H -12.345000 -13.388100 -9.027300
N -11.554100 -18.209400 -9.490900
N -11.149400 -15.832000 -9.525600
N -10.816600 -19.309400 -9.790900
C -10.794700 -17.130800 -9.714400
H -10.563700 -15.204700 -9.748900
N -9.667000 -18.881600 -10.178200
N -9.606900 -17.519500 -10.149600
3
Fragment
H -11.875300 -11.215500 -9.204300
O -11.460700 -11.966200 -9.226800
H -10.560900 -11.900000 -9.626400
17
Fragment
N -14.389800 -15.489400 -8.370300
N -14.063700 -14.244400 -8.464800
N -13.363900 -16.296200 -8.751100
N -12.791500 -14.206100 -8.922200
H -12.456100 -18.286000 -9.204300
C -12.392300 -15.465200 -9.080400
H -12.345000 -13.388100 -9.027300
N -11.554100 -18.209400 -9.490900
N -11.149400 -15.832000 -9.525600
N -10.816600 -19.309400 -9.790900
C -10.794700 -17.130800 -9.714400
H -10.563700 -15.204700 -9.748900
N -9.667000 -18.881600 -10.178200
N -9.606900 -17.519500 -10.149600
H -11.875300 -11.215500 -9.204300
O -11.460700 -11.966200 -9.226800
H -10.560900 -11.900000 -9.626400
