14
Fragment
N -14.389800 -15.489400 -8.370300
N -14.063700 -14.244400 -8.464800
N -13.363900 -16.296200 -8.751100
N -12.791500 -14.206100 -8.922200
H -12.456100 -18.286000 -9.204300
C -12.392300 -15.465200 -9.080400
H -12.345000 -13.388100 -9.027300
N -11.554100 -18.209400 -9.490900
N -11.149400 -15.832000 -9.525600
N -10.816600 -19.309400 -9.790900
C -10.794700 -17.130800 -9.714400
H -10.563700 -15.204700 -9.748900
N -9.667000 -18.881600 -10.178200
N -9.606900 -17.519500 -10.149600
14
Fragment
N -18.344100 -14.073500 -10.274200
N -18.284000 -12.711400 -10.245600
H -17.387300 -16.388300 -10.674800
C -17.156300 -14.462200 -10.709300
N -17.134400 -12.283600 -10.632800
N -16.801600 -15.761000 -10.898200
N -16.396900 -13.383600 -10.932800
H -15.606000 -18.204900 -11.396500
C -15.558700 -16.127800 -11.343400
H -15.494900 -13.307000 -11.219400
N -15.159500 -17.386900 -11.501600
N -14.587100 -15.296800 -11.672700
N -13.887300 -17.348600 -11.959000
N -13.561200 -16.103600 -12.053500
28
Fragment
N -14.389800 -15.489400 -8.370300
N -14.063700 -14.244400 -8.464800
N -13.363900 -16.296200 -8.751100
N -12.791500 -14.206100 -8.922200
H -12.456100 -18.286000 -9.204300
C -12.392300 -15.465200 -9.080400
H -12.345000 -13.388100 -9.027300
N -11.554100 -18.209400 -9.490900
N -11.149400 -15.832000 -9.525600
N -10.816600 -19.309400 -9.790900
C -10.794700 -17.130800 -9.714400
H -10.563700 -15.204700 -9.748900
N -9.667000 -18.881600 -10.178200
N -9.606900 -17.519500 -10.149600
N -18.344100 -14.073500 -10.274200
N -18.284000 -12.711400 -10.245600
H -17.387300 -16.388300 -10.674800
C -17.156300 -14.462200 -10.709300
N -17.134400 -12.283600 -10.632800
N -16.801600 -15.761000 -10.898200
N -16.396900 -13.383600 -10.932800
H -15.606000 -18.204900 -11.396500
C -15.558700 -16.127800 -11.343400
H -15.494900 -13.307000 -11.219400
N -15.159500 -17.386900 -11.501600
N -14.587100 -15.296800 -11.672700
N -13.887300 -17.348600 -11.959000
N -13.561200 -16.103600 -12.053500
