14
Fragment
N -14.389800 -15.489400 -8.370300
N -14.063700 -14.244400 -8.464800
N -13.363900 -16.296200 -8.751100
N -12.791500 -14.206100 -8.922200
H -12.456100 -18.286000 -9.204300
C -12.392300 -15.465200 -9.080400
H -12.345000 -13.388100 -9.027300
N -11.554100 -18.209400 -9.490900
N -11.149400 -15.832000 -9.525600
N -10.816600 -19.309400 -9.790900
C -10.794700 -17.130800 -9.714400
H -10.563700 -15.204700 -9.748900
N -9.667000 -18.881600 -10.178200
N -9.606900 -17.519500 -10.149600
14
Fragment
N -18.369100 -12.254000 -6.870200
N -18.309000 -13.616100 -6.841600
H -17.412200 -9.939200 -7.270900
C -17.181300 -11.865300 -7.305400
N -17.159300 -14.043900 -7.228900
N -16.826600 -10.566500 -7.494200
N -16.421800 -12.943900 -7.528900
H -15.631000 -8.122600 -7.992500
C -15.583700 -10.199700 -7.939400
H -15.519900 -13.020500 -7.815500
N -15.184400 -8.940600 -8.097600
N -14.612100 -11.030700 -8.268700
N -13.912200 -8.978900 -8.555000
N -13.586100 -10.223900 -8.649500
28
Fragment
N -14.389800 -15.489400 -8.370300
N -14.063700 -14.244400 -8.464800
N -13.363900 -16.296200 -8.751100
N -12.791500 -14.206100 -8.922200
H -12.456100 -18.286000 -9.204300
C -12.392300 -15.465200 -9.080400
H -12.345000 -13.388100 -9.027300
N -11.554100 -18.209400 -9.490900
N -11.149400 -15.832000 -9.525600
N -10.816600 -19.309400 -9.790900
C -10.794700 -17.130800 -9.714400
H -10.563700 -15.204700 -9.748900
N -9.667000 -18.881600 -10.178200
N -9.606900 -17.519500 -10.149600
N -18.369100 -12.254000 -6.870200
N -18.309000 -13.616100 -6.841600
H -17.412200 -9.939200 -7.270900
C -17.181300 -11.865300 -7.305400
N -17.159300 -14.043900 -7.228900
N -16.826600 -10.566500 -7.494200
N -16.421800 -12.943900 -7.528900
H -15.631000 -8.122600 -7.992500
C -15.583700 -10.199700 -7.939400
H -15.519900 -13.020500 -7.815500
N -15.184400 -8.940600 -8.097600
N -14.612100 -11.030700 -8.268700
N -13.912200 -8.978900 -8.555000
N -13.586100 -10.223900 -8.649500
