8
Fragment
O -14.959500 -19.847300 -15.426600
C -13.974900 -19.568000 -16.149200
H -13.873000 -17.698200 -15.760200
H -13.671600 -21.336800 -16.791900
N -13.502000 -18.325300 -16.217300
N -13.380700 -20.528300 -16.840900
H -12.825700 -18.149200 -16.718100
H -12.703600 -20.344100 -17.339600
8
Fragment
O -18.946900 -22.219500 -12.073100
H -18.944000 -20.740000 -13.974500
N -18.253300 -20.626600 -13.475500
C -18.097100 -21.360100 -12.385500
H -17.664200 -20.036500 -13.684400
N -17.000600 -21.169700 -11.670900
H -16.856900 -21.644400 -10.968200
H -16.431500 -20.570900 -11.908600
16
Fragment
O -14.959500 -19.847300 -15.426600
C -13.974900 -19.568000 -16.149200
H -13.873000 -17.698200 -15.760200
H -13.671600 -21.336800 -16.791900
N -13.502000 -18.325300 -16.217300
N -13.380700 -20.528300 -16.840900
H -12.825700 -18.149200 -16.718100
H -12.703600 -20.344100 -17.339600
O -18.946900 -22.219500 -12.073100
H -18.944000 -20.740000 -13.974500
N -18.253300 -20.626600 -13.475500
C -18.097100 -21.360100 -12.385500
H -17.664200 -20.036500 -13.684400
N -17.000600 -21.169700 -11.670900
H -16.856900 -21.644400 -10.968200
H -16.431500 -20.570900 -11.908600
