3
Fragment
H -12.916400 -28.774600 -8.171200
O -12.448000 -28.839500 -7.401800
H -12.179000 -29.618200 -7.453400
21
Fragment
H -11.059400 -30.383500 -10.470000
H -10.508300 -28.892900 -10.245000
C -10.263600 -29.826800 -10.258200
H -10.019900 -30.150600 -9.298900
H -9.411300 -29.669700 -12.171200
N -9.239800 -32.514500 -10.740500
C -9.141400 -30.037700 -11.251400
C -8.794900 -31.470800 -11.429200
N -8.699100 -33.669200 -11.284400
H -8.404000 -29.633400 -10.993000
N -7.971300 -31.924600 -12.404900
C -7.940800 -33.277700 -12.280900
N -7.294800 -31.144600 -13.331300
C -7.152900 -34.054300 -13.225400
O -7.053700 -35.263500 -13.233600
C -6.581800 -31.861800 -14.153900
N -6.506100 -33.249500 -14.138500
H -6.030700 -33.662300 -14.754800
N -5.888800 -31.248600 -15.124600
H -5.848800 -30.446500 -15.086200
H -5.413500 -31.698400 -15.655300
24
Fragment
H -12.916400 -28.774600 -8.171200
O -12.448000 -28.839500 -7.401800
H -12.179000 -29.618200 -7.453400
H -11.059400 -30.383500 -10.470000
H -10.508300 -28.892900 -10.245000
C -10.263600 -29.826800 -10.258200
H -10.019900 -30.150600 -9.298900
H -9.411300 -29.669700 -12.171200
N -9.239800 -32.514500 -10.740500
C -9.141400 -30.037700 -11.251400
C -8.794900 -31.470800 -11.429200
N -8.699100 -33.669200 -11.284400
H -8.404000 -29.633400 -10.993000
N -7.971300 -31.924600 -12.404900
C -7.940800 -33.277700 -12.280900
N -7.294800 -31.144600 -13.331300
C -7.152900 -34.054300 -13.225400
O -7.053700 -35.263500 -13.233600
C -6.581800 -31.861800 -14.153900
N -6.506100 -33.249500 -14.138500
H -6.030700 -33.662300 -14.754800
N -5.888800 -31.248600 -15.124600
H -5.848800 -30.446500 -15.086200
H -5.413500 -31.698400 -15.655300
