3
Fragment
H -12.916400 -28.774600 -8.171200
O -12.448000 -28.839500 -7.401800
H -12.179000 -29.618200 -7.453400
21
Fragment
H -19.765500 -30.383500 -4.982300
H -19.214400 -28.892900 -4.757300
C -18.969700 -29.826800 -4.770500
H -18.726000 -30.150600 -3.811200
H -18.117400 -29.669700 -6.683500
N -17.945900 -32.514500 -5.252800
C -17.847500 -30.037700 -5.763700
C -17.501000 -31.470800 -5.941500
N -17.405200 -33.669200 -5.796700
H -17.110100 -29.633400 -5.505300
N -16.677400 -31.924600 -6.917200
C -16.646900 -33.277700 -6.793200
N -16.000900 -31.144600 -7.843600
C -15.859000 -34.054300 -7.737700
O -15.759800 -35.263500 -7.745900
C -15.287900 -31.861800 -8.666200
N -15.212200 -33.249500 -8.650800
H -14.736800 -33.662300 -9.267100
N -14.594900 -31.248600 -9.636900
H -14.554900 -30.446500 -9.598500
H -14.119600 -31.698400 -10.167600
24
Fragment
H -12.916400 -28.774600 -8.171200
O -12.448000 -28.839500 -7.401800
H -12.179000 -29.618200 -7.453400
H -19.765500 -30.383500 -4.982300
H -19.214400 -28.892900 -4.757300
C -18.969700 -29.826800 -4.770500
H -18.726000 -30.150600 -3.811200
H -18.117400 -29.669700 -6.683500
N -17.945900 -32.514500 -5.252800
C -17.847500 -30.037700 -5.763700
C -17.501000 -31.470800 -5.941500
N -17.405200 -33.669200 -5.796700
H -17.110100 -29.633400 -5.505300
N -16.677400 -31.924600 -6.917200
C -16.646900 -33.277700 -6.793200
N -16.000900 -31.144600 -7.843600
C -15.859000 -34.054300 -7.737700
O -15.759800 -35.263500 -7.745900
C -15.287900 -31.861800 -8.666200
N -15.212200 -33.249500 -8.650800
H -14.736800 -33.662300 -9.267100
N -14.594900 -31.248600 -9.636900
H -14.554900 -30.446500 -9.598500
H -14.119600 -31.698400 -10.167600
