22
Fragment
N -14.604300 -3.551800 -31.305000
C -14.197500 -4.612300 -31.176400
C -13.661700 -5.930600 -31.057900
N -13.498500 -6.575200 -29.866200
C -13.209800 -6.726000 -32.097400
N -13.198100 -6.266700 -34.625400
C -13.195300 -6.478700 -33.499800
C -12.953100 -7.735500 -30.197300
N -12.758300 -7.873400 -31.529500
N -12.630800 -8.691300 -29.224200
H -12.409400 -8.566900 -31.943700
H -12.285600 -9.953000 -26.997700
N -12.024800 -9.680400 -29.731500
N -11.906100 -10.605400 -27.450300
C -11.692000 -10.656600 -28.788000
N -11.467000 -12.461100 -24.481600
C -11.447900 -12.130300 -25.576300
C -11.413900 -11.768100 -26.954200
N -11.097800 -11.775000 -29.183300
C -10.920300 -12.483100 -28.037700
C -10.322400 -13.779000 -28.011400
N -9.845400 -14.821000 -27.983300
22
Fragment
N -19.919400 0.085800 -31.364100
C -19.442500 -0.956200 -31.336000
C -18.844500 -2.252100 -31.309700
N -18.667000 -2.960200 -30.164100
C -18.350900 -2.967100 -32.393200
C -18.316900 -2.604900 -33.771000
N -18.297800 -2.274100 -34.865800
C -18.072900 -4.078600 -30.559300
N -17.858700 -4.129800 -31.897000
N -17.740000 -5.054800 -29.615900
H -17.479200 -4.782200 -32.349700
H -17.355400 -6.168300 -27.403700
N -17.134100 -6.043900 -30.123100
N -17.006600 -6.861800 -27.817900
C -16.811700 -6.999700 -29.150000
C -16.569500 -8.256500 -25.847600
N -16.566700 -8.468500 -24.721900
C -16.555100 -8.009200 -27.249900
N -16.266300 -8.160000 -29.481200
C -16.103100 -8.804600 -28.289500
C -15.567300 -10.122900 -28.171000
N -15.160500 -11.183400 -28.042400
44
Fragment
N -14.604300 -3.551800 -31.305000
C -14.197500 -4.612300 -31.176400
C -13.661700 -5.930600 -31.057900
N -13.498500 -6.575200 -29.866200
C -13.209800 -6.726000 -32.097400
N -13.198100 -6.266700 -34.625400
C -13.195300 -6.478700 -33.499800
C -12.953100 -7.735500 -30.197300
N -12.758300 -7.873400 -31.529500
N -12.630800 -8.691300 -29.224200
H -12.409400 -8.566900 -31.943700
H -12.285600 -9.953000 -26.997700
N -12.024800 -9.680400 -29.731500
N -11.906100 -10.605400 -27.450300
C -11.692000 -10.656600 -28.788000
N -11.467000 -12.461100 -24.481600
C -11.447900 -12.130300 -25.576300
C -11.413900 -11.768100 -26.954200
N -11.097800 -11.775000 -29.183300
C -10.920300 -12.483100 -28.037700
C -10.322400 -13.779000 -28.011400
N -9.845400 -14.821000 -27.983300
N -19.919400 0.085800 -31.364100
C -19.442500 -0.956200 -31.336000
C -18.844500 -2.252100 -31.309700
N -18.667000 -2.960200 -30.164100
C -18.350900 -2.967100 -32.393200
C -18.316900 -2.604900 -33.771000
N -18.297800 -2.274100 -34.865800
C -18.072900 -4.078600 -30.559300
N -17.858700 -4.129800 -31.897000
N -17.740000 -5.054800 -29.615900
H -17.479200 -4.782200 -32.349700
H -17.355400 -6.168300 -27.403700
N -17.134100 -6.043900 -30.123100
N -17.006600 -6.861800 -27.817900
C -16.811700 -6.999700 -29.150000
C -16.569500 -8.256500 -25.847600
N -16.566700 -8.468500 -24.721900
C -16.555100 -8.009200 -27.249900
N -16.266300 -8.160000 -29.481200
C -16.103100 -8.804600 -28.289500
C -15.567300 -10.122900 -28.171000
N -15.160500 -11.183400 -28.042400
