22
Fragment
N -14.604300 -3.551800 -31.305000
C -14.197500 -4.612300 -31.176400
C -13.661700 -5.930600 -31.057900
N -13.498500 -6.575200 -29.866200
C -13.209800 -6.726000 -32.097400
N -13.198100 -6.266700 -34.625400
C -13.195300 -6.478700 -33.499800
C -12.953100 -7.735500 -30.197300
N -12.758300 -7.873400 -31.529500
N -12.630800 -8.691300 -29.224200
H -12.409400 -8.566900 -31.943700
H -12.285600 -9.953000 -26.997700
N -12.024800 -9.680400 -29.731500
N -11.906100 -10.605400 -27.450300
C -11.692000 -10.656600 -28.788000
N -11.467000 -12.461100 -24.481600
C -11.447900 -12.130300 -25.576300
C -11.413900 -11.768100 -26.954200
N -11.097800 -11.775000 -29.183300
C -10.920300 -12.483100 -28.037700
C -10.322400 -13.779000 -28.011400
N -9.845400 -14.821000 -27.983300
22
Fragment
N -11.527500 -18.504800 -21.472900
C -11.050500 -17.462800 -21.444800
C -10.452600 -16.166900 -21.418500
N -10.275100 -15.458800 -20.272900
C -9.958900 -15.451900 -22.502000
C -9.924900 -15.814100 -23.879800
N -9.905800 -16.144900 -24.974600
C -9.680900 -14.340400 -20.668100
N -9.466800 -14.289200 -22.005800
N -9.348000 -13.364200 -19.724700
H -9.087200 -13.636800 -22.458400
H -8.963400 -12.250700 -17.512400
N -8.742100 -12.375100 -20.231900
N -8.614600 -11.557200 -17.926700
C -8.419800 -11.419300 -19.258800
C -8.177500 -10.162500 -15.956300
N -8.174800 -9.950500 -14.830700
C -8.163100 -10.409800 -17.358700
N -7.874400 -10.259000 -19.590000
C -7.711200 -9.614400 -18.398300
C -7.175300 -8.296100 -18.279800
N -6.768500 -7.235600 -18.151200
44
Fragment
N -14.604300 -3.551800 -31.305000
C -14.197500 -4.612300 -31.176400
C -13.661700 -5.930600 -31.057900
N -13.498500 -6.575200 -29.866200
C -13.209800 -6.726000 -32.097400
N -13.198100 -6.266700 -34.625400
C -13.195300 -6.478700 -33.499800
C -12.953100 -7.735500 -30.197300
N -12.758300 -7.873400 -31.529500
N -12.630800 -8.691300 -29.224200
H -12.409400 -8.566900 -31.943700
H -12.285600 -9.953000 -26.997700
N -12.024800 -9.680400 -29.731500
N -11.906100 -10.605400 -27.450300
C -11.692000 -10.656600 -28.788000
N -11.467000 -12.461100 -24.481600
C -11.447900 -12.130300 -25.576300
C -11.413900 -11.768100 -26.954200
N -11.097800 -11.775000 -29.183300
C -10.920300 -12.483100 -28.037700
C -10.322400 -13.779000 -28.011400
N -9.845400 -14.821000 -27.983300
N -11.527500 -18.504800 -21.472900
C -11.050500 -17.462800 -21.444800
C -10.452600 -16.166900 -21.418500
N -10.275100 -15.458800 -20.272900
C -9.958900 -15.451900 -22.502000
C -9.924900 -15.814100 -23.879800
N -9.905800 -16.144900 -24.974600
C -9.680900 -14.340400 -20.668100
N -9.466800 -14.289200 -22.005800
N -9.348000 -13.364200 -19.724700
H -9.087200 -13.636800 -22.458400
H -8.963400 -12.250700 -17.512400
N -8.742100 -12.375100 -20.231900
N -8.614600 -11.557200 -17.926700
C -8.419800 -11.419300 -19.258800
C -8.177500 -10.162500 -15.956300
N -8.174800 -9.950500 -14.830700
C -8.163100 -10.409800 -17.358700
N -7.874400 -10.259000 -19.590000
C -7.711200 -9.614400 -18.398300
C -7.175300 -8.296100 -18.279800
N -6.768500 -7.235600 -18.151200
