22
Fragment
N -14.604300 -3.551800 -31.305000
C -14.197500 -4.612300 -31.176400
C -13.661700 -5.930600 -31.057900
N -13.498500 -6.575200 -29.866200
C -13.209800 -6.726000 -32.097400
N -13.198100 -6.266700 -34.625400
C -13.195300 -6.478700 -33.499800
C -12.953100 -7.735500 -30.197300
N -12.758300 -7.873400 -31.529500
N -12.630800 -8.691300 -29.224200
H -12.409400 -8.566900 -31.943700
H -12.285600 -9.953000 -26.997700
N -12.024800 -9.680400 -29.731500
N -11.906100 -10.605400 -27.450300
C -11.692000 -10.656600 -28.788000
N -11.467000 -12.461100 -24.481600
C -11.447900 -12.130300 -25.576300
C -11.413900 -11.768100 -26.954200
N -11.097800 -11.775000 -29.183300
C -10.920300 -12.483100 -28.037700
C -10.322400 -13.779000 -28.011400
N -9.845400 -14.821000 -27.983300
22
Fragment
N -18.017900 -11.137200 -41.255300
C -17.541000 -10.095200 -41.227200
C -16.943000 -8.799300 -41.200900
N -16.765500 -8.091200 -40.055300
C -16.449400 -8.084300 -42.284400
C -16.415400 -8.446500 -43.662300
N -16.396300 -8.777300 -44.757000
C -16.171300 -6.972800 -40.450600
N -15.957200 -6.921600 -41.788300
N -15.838500 -5.996600 -39.507200
H -15.577700 -6.269200 -42.240900
H -15.453900 -4.883100 -37.294900
N -15.232500 -5.007500 -40.014400
N -15.105000 -4.189600 -37.709100
C -14.910200 -4.051700 -39.041300
C -14.668000 -2.794900 -35.738800
N -14.665200 -2.582900 -34.613200
C -14.653500 -3.042200 -37.141200
N -14.364800 -2.891400 -39.372400
C -14.201600 -2.246800 -38.180700
C -13.665800 -0.928500 -38.062200
N -13.259000 0.132000 -37.933700
44
Fragment
N -14.604300 -3.551800 -31.305000
C -14.197500 -4.612300 -31.176400
C -13.661700 -5.930600 -31.057900
N -13.498500 -6.575200 -29.866200
C -13.209800 -6.726000 -32.097400
N -13.198100 -6.266700 -34.625400
C -13.195300 -6.478700 -33.499800
C -12.953100 -7.735500 -30.197300
N -12.758300 -7.873400 -31.529500
N -12.630800 -8.691300 -29.224200
H -12.409400 -8.566900 -31.943700
H -12.285600 -9.953000 -26.997700
N -12.024800 -9.680400 -29.731500
N -11.906100 -10.605400 -27.450300
C -11.692000 -10.656600 -28.788000
N -11.467000 -12.461100 -24.481600
C -11.447900 -12.130300 -25.576300
C -11.413900 -11.768100 -26.954200
N -11.097800 -11.775000 -29.183300
C -10.920300 -12.483100 -28.037700
C -10.322400 -13.779000 -28.011400
N -9.845400 -14.821000 -27.983300
N -18.017900 -11.137200 -41.255300
C -17.541000 -10.095200 -41.227200
C -16.943000 -8.799300 -41.200900
N -16.765500 -8.091200 -40.055300
C -16.449400 -8.084300 -42.284400
C -16.415400 -8.446500 -43.662300
N -16.396300 -8.777300 -44.757000
C -16.171300 -6.972800 -40.450600
N -15.957200 -6.921600 -41.788300
N -15.838500 -5.996600 -39.507200
H -15.577700 -6.269200 -42.240900
H -15.453900 -4.883100 -37.294900
N -15.232500 -5.007500 -40.014400
N -15.105000 -4.189600 -37.709100
C -14.910200 -4.051700 -39.041300
C -14.668000 -2.794900 -35.738800
N -14.665200 -2.582900 -34.613200
C -14.653500 -3.042200 -37.141200
N -14.364800 -2.891400 -39.372400
C -14.201600 -2.246800 -38.180700
C -13.665800 -0.928500 -38.062200
N -13.259000 0.132000 -37.933700
