22
Fragment
N -14.604300 -3.551800 -31.305000
C -14.197500 -4.612300 -31.176400
C -13.661700 -5.930600 -31.057900
N -13.498500 -6.575200 -29.866200
C -13.209800 -6.726000 -32.097400
N -13.198100 -6.266700 -34.625400
C -13.195300 -6.478700 -33.499800
C -12.953100 -7.735500 -30.197300
N -12.758300 -7.873400 -31.529500
N -12.630800 -8.691300 -29.224200
H -12.409400 -8.566900 -31.943700
H -12.285600 -9.953000 -26.997700
N -12.024800 -9.680400 -29.731500
N -11.906100 -10.605400 -27.450300
C -11.692000 -10.656600 -28.788000
N -11.467000 -12.461100 -24.481600
C -11.447900 -12.130300 -25.576300
C -11.413900 -11.768100 -26.954200
N -11.097800 -11.775000 -29.183300
C -10.920300 -12.483100 -28.037700
C -10.322400 -13.779000 -28.011400
N -9.845400 -14.821000 -27.983300
22
Fragment
N -9.625900 -7.281800 -31.364100
C -9.149000 -8.323800 -31.336000
C -8.551000 -9.619700 -31.309700
N -8.373500 -10.327800 -30.164100
C -8.057400 -10.334700 -32.393200
C -8.023400 -9.972500 -33.771000
N -8.004300 -9.641700 -34.865800
C -7.779400 -11.446200 -30.559300
N -7.565200 -11.497400 -31.897000
N -7.446500 -12.422400 -29.615900
H -7.185700 -12.149800 -32.349700
H -7.061900 -13.535900 -27.403700
N -6.840600 -13.411500 -30.123100
N -6.713100 -14.229400 -27.817900
C -6.518200 -14.367300 -29.150000
C -6.276000 -15.624100 -25.847600
N -6.273200 -15.836100 -24.721900
C -6.261600 -15.376800 -27.249900
N -5.972800 -15.527600 -29.481200
C -5.809600 -16.172200 -28.289500
C -5.273800 -17.490500 -28.171000
N -4.867000 -18.551000 -28.042400
44
Fragment
N -14.604300 -3.551800 -31.305000
C -14.197500 -4.612300 -31.176400
C -13.661700 -5.930600 -31.057900
N -13.498500 -6.575200 -29.866200
C -13.209800 -6.726000 -32.097400
N -13.198100 -6.266700 -34.625400
C -13.195300 -6.478700 -33.499800
C -12.953100 -7.735500 -30.197300
N -12.758300 -7.873400 -31.529500
N -12.630800 -8.691300 -29.224200
H -12.409400 -8.566900 -31.943700
H -12.285600 -9.953000 -26.997700
N -12.024800 -9.680400 -29.731500
N -11.906100 -10.605400 -27.450300
C -11.692000 -10.656600 -28.788000
N -11.467000 -12.461100 -24.481600
C -11.447900 -12.130300 -25.576300
C -11.413900 -11.768100 -26.954200
N -11.097800 -11.775000 -29.183300
C -10.920300 -12.483100 -28.037700
C -10.322400 -13.779000 -28.011400
N -9.845400 -14.821000 -27.983300
N -9.625900 -7.281800 -31.364100
C -9.149000 -8.323800 -31.336000
C -8.551000 -9.619700 -31.309700
N -8.373500 -10.327800 -30.164100
C -8.057400 -10.334700 -32.393200
C -8.023400 -9.972500 -33.771000
N -8.004300 -9.641700 -34.865800
C -7.779400 -11.446200 -30.559300
N -7.565200 -11.497400 -31.897000
N -7.446500 -12.422400 -29.615900
H -7.185700 -12.149800 -32.349700
H -7.061900 -13.535900 -27.403700
N -6.840600 -13.411500 -30.123100
N -6.713100 -14.229400 -27.817900
C -6.518200 -14.367300 -29.150000
C -6.276000 -15.624100 -25.847600
N -6.273200 -15.836100 -24.721900
C -6.261600 -15.376800 -27.249900
N -5.972800 -15.527600 -29.481200
C -5.809600 -16.172200 -28.289500
C -5.273800 -17.490500 -28.171000
N -4.867000 -18.551000 -28.042400
