22
Fragment
N -14.604300 -3.551800 -31.305000
C -14.197500 -4.612300 -31.176400
C -13.661700 -5.930600 -31.057900
N -13.498500 -6.575200 -29.866200
C -13.209800 -6.726000 -32.097400
N -13.198100 -6.266700 -34.625400
C -13.195300 -6.478700 -33.499800
C -12.953100 -7.735500 -30.197300
N -12.758300 -7.873400 -31.529500
N -12.630800 -8.691300 -29.224200
H -12.409400 -8.566900 -31.943700
H -12.285600 -9.953000 -26.997700
N -12.024800 -9.680400 -29.731500
N -11.906100 -10.605400 -27.450300
C -11.692000 -10.656600 -28.788000
N -11.467000 -12.461100 -24.481600
C -11.447900 -12.130300 -25.576300
C -11.413900 -11.768100 -26.954200
N -11.097800 -11.775000 -29.183300
C -10.920300 -12.483100 -28.037700
C -10.322400 -13.779000 -28.011400
N -9.845400 -14.821000 -27.983300
22
Fragment
N -14.604300 -10.919400 -31.305000
C -14.197500 -11.979900 -31.176400
C -13.661700 -13.298200 -31.057900
N -13.498500 -13.942800 -29.866200
C -13.209800 -14.093600 -32.097400
N -13.198100 -13.634300 -34.625400
C -13.195300 -13.846300 -33.499800
C -12.953100 -15.103100 -30.197300
N -12.758300 -15.241000 -31.529500
N -12.630800 -16.058900 -29.224200
H -12.409400 -15.934500 -31.943700
H -12.285600 -17.320600 -26.997700
N -12.024800 -17.048000 -29.731500
N -11.906100 -17.973000 -27.450300
C -11.692000 -18.024200 -28.788000
N -11.467000 -19.828700 -24.481600
C -11.447900 -19.497900 -25.576300
C -11.413900 -19.135700 -26.954200
N -11.097800 -19.142600 -29.183300
C -10.920300 -19.850700 -28.037700
C -10.322400 -21.146600 -28.011400
N -9.845400 -22.188600 -27.983300
44
Fragment
N -14.604300 -3.551800 -31.305000
C -14.197500 -4.612300 -31.176400
C -13.661700 -5.930600 -31.057900
N -13.498500 -6.575200 -29.866200
C -13.209800 -6.726000 -32.097400
N -13.198100 -6.266700 -34.625400
C -13.195300 -6.478700 -33.499800
C -12.953100 -7.735500 -30.197300
N -12.758300 -7.873400 -31.529500
N -12.630800 -8.691300 -29.224200
H -12.409400 -8.566900 -31.943700
H -12.285600 -9.953000 -26.997700
N -12.024800 -9.680400 -29.731500
N -11.906100 -10.605400 -27.450300
C -11.692000 -10.656600 -28.788000
N -11.467000 -12.461100 -24.481600
C -11.447900 -12.130300 -25.576300
C -11.413900 -11.768100 -26.954200
N -11.097800 -11.775000 -29.183300
C -10.920300 -12.483100 -28.037700
C -10.322400 -13.779000 -28.011400
N -9.845400 -14.821000 -27.983300
N -14.604300 -10.919400 -31.305000
C -14.197500 -11.979900 -31.176400
C -13.661700 -13.298200 -31.057900
N -13.498500 -13.942800 -29.866200
C -13.209800 -14.093600 -32.097400
N -13.198100 -13.634300 -34.625400
C -13.195300 -13.846300 -33.499800
C -12.953100 -15.103100 -30.197300
N -12.758300 -15.241000 -31.529500
N -12.630800 -16.058900 -29.224200
H -12.409400 -15.934500 -31.943700
H -12.285600 -17.320600 -26.997700
N -12.024800 -17.048000 -29.731500
N -11.906100 -17.973000 -27.450300
C -11.692000 -18.024200 -28.788000
N -11.467000 -19.828700 -24.481600
C -11.447900 -19.497900 -25.576300
C -11.413900 -19.135700 -26.954200
N -11.097800 -19.142600 -29.183300
C -10.920300 -19.850700 -28.037700
C -10.322400 -21.146600 -28.011400
N -9.845400 -22.188600 -27.983300
