6
Fragment
H -18.465000 -12.957100 -31.521400
N -17.909100 -10.040700 -32.270800
C -17.763400 -11.145000 -32.010400
C -17.588700 -12.546100 -31.674200
H -17.136800 -13.005300 -32.412800
H -17.046200 -12.621800 -30.861600
6
Fragment
H -14.968300 -9.049300 -31.678400
H -14.877700 -8.665700 -30.127200
C -14.425800 -9.125000 -30.865800
C -14.251100 -10.526000 -30.529500
N -14.105400 -11.630400 -30.269100
H -13.549400 -8.714000 -31.018600
12
Fragment
H -18.465000 -12.957100 -31.521400
N -17.909100 -10.040700 -32.270800
C -17.763400 -11.145000 -32.010400
C -17.588700 -12.546100 -31.674200
H -17.136800 -13.005300 -32.412800
H -17.046200 -12.621800 -30.861600
H -14.968300 -9.049300 -31.678400
H -14.877700 -8.665700 -30.127200
C -14.425800 -9.125000 -30.865800
C -14.251100 -10.526000 -30.529500
N -14.105400 -11.630400 -30.269100
H -13.549400 -8.714000 -31.018600
