6
Fragment
H -18.465000 -12.957100 -31.521400
N -17.909100 -10.040700 -32.270800
C -17.763400 -11.145000 -32.010400
C -17.588700 -12.546100 -31.674200
H -17.136800 -13.005300 -32.412800
H -17.046200 -12.621800 -30.861600
40
Fragment
H -15.786900 -17.575400 -41.956000
H -15.524700 -17.357100 -39.600700
C -14.847000 -17.536800 -41.534900
C -14.726500 -17.382800 -40.152700
H -14.478000 -10.825500 -34.102600
H -14.307300 -11.117500 -36.583200
C -14.254700 -11.722100 -34.582700
C -14.220600 -11.892300 -35.934400
H -14.153600 -12.776300 -32.794900
H -14.089700 -12.544700 -38.515200
C -14.068200 -12.830600 -33.722200
C -14.000400 -13.176000 -36.510600
C -13.958900 -13.372500 -37.903800
C -13.853100 -14.087700 -34.236700
C -13.810100 -14.295000 -35.640300
H -13.775200 -17.623900 -43.261200
H -13.760300 -14.866600 -33.580800
C -13.740800 -14.609700 -38.446000
C -13.727600 -17.487200 -42.340600
H -13.721200 -14.706300 -39.406200
C -13.588800 -15.575700 -36.230600
C -13.564900 -15.731900 -37.607600
C -13.469800 -17.201700 -39.602200
H -13.422100 -16.632400 -34.537700
N -13.391700 -16.702200 -35.427000
N -13.361800 -17.019700 -38.171300
C -13.183200 -17.941300 -35.935900
C -13.146400 -18.114700 -37.373900
N -13.031800 -18.954700 -35.109700
N -12.927000 -19.295000 -37.925100
C -12.834300 -20.168100 -35.694900
C -12.781400 -20.332700 -37.058000
C -12.714200 -21.292000 -34.806400
N -12.634600 -22.196200 -34.108500
C -12.572200 -21.650200 -37.612800
C -12.478300 -17.286100 -41.772900
N -12.413500 -22.720500 -38.000500
C -12.343300 -17.140300 -40.395800
H -11.633000 -17.343700 -42.327000
H -11.463900 -17.074600 -39.954700
46
Fragment
H -18.465000 -12.957100 -31.521400
N -17.909100 -10.040700 -32.270800
C -17.763400 -11.145000 -32.010400
C -17.588700 -12.546100 -31.674200
H -17.136800 -13.005300 -32.412800
H -17.046200 -12.621800 -30.861600
H -15.786900 -17.575400 -41.956000
H -15.524700 -17.357100 -39.600700
C -14.847000 -17.536800 -41.534900
C -14.726500 -17.382800 -40.152700
H -14.478000 -10.825500 -34.102600
H -14.307300 -11.117500 -36.583200
C -14.254700 -11.722100 -34.582700
C -14.220600 -11.892300 -35.934400
H -14.153600 -12.776300 -32.794900
H -14.089700 -12.544700 -38.515200
C -14.068200 -12.830600 -33.722200
C -14.000400 -13.176000 -36.510600
C -13.958900 -13.372500 -37.903800
C -13.853100 -14.087700 -34.236700
C -13.810100 -14.295000 -35.640300
H -13.775200 -17.623900 -43.261200
H -13.760300 -14.866600 -33.580800
C -13.740800 -14.609700 -38.446000
C -13.727600 -17.487200 -42.340600
H -13.721200 -14.706300 -39.406200
C -13.588800 -15.575700 -36.230600
C -13.564900 -15.731900 -37.607600
C -13.469800 -17.201700 -39.602200
H -13.422100 -16.632400 -34.537700
N -13.391700 -16.702200 -35.427000
N -13.361800 -17.019700 -38.171300
C -13.183200 -17.941300 -35.935900
C -13.146400 -18.114700 -37.373900
N -13.031800 -18.954700 -35.109700
N -12.927000 -19.295000 -37.925100
C -12.834300 -20.168100 -35.694900
C -12.781400 -20.332700 -37.058000
C -12.714200 -21.292000 -34.806400
N -12.634600 -22.196200 -34.108500
C -12.572200 -21.650200 -37.612800
C -12.478300 -17.286100 -41.772900
N -12.413500 -22.720500 -38.000500
C -12.343300 -17.140300 -40.395800
H -11.633000 -17.343700 -42.327000
H -11.463900 -17.074600 -39.954700
