6
Fragment
H -18.465000 -12.957100 -31.521400
N -17.909100 -10.040700 -32.270800
C -17.763400 -11.145000 -32.010400
C -17.588700 -12.546100 -31.674200
H -17.136800 -13.005300 -32.412800
H -17.046200 -12.621800 -30.861600
40
Fragment
H -20.550600 -4.596400 -22.585300
H -20.381500 -4.327300 -20.212900
C -19.671200 -4.530700 -22.144100
N -19.601000 1.049500 -24.539400
C -19.536200 -4.384900 -20.767000
C -19.442300 -0.020800 -24.927200
N -19.379900 0.525200 -28.431500
C -19.300300 -0.379000 -27.733600
C -19.233100 -1.338300 -25.481900
C -19.180100 -1.502900 -26.845100
N -19.087500 -2.376000 -24.614900
N -18.982700 -2.716300 -27.430200
C -18.868100 -3.556300 -25.166100
C -18.831300 -3.729700 -26.604100
N -18.652700 -4.651300 -24.368700
N -18.622800 -4.968800 -27.112900
H -18.592400 -5.038600 -28.002300
C -18.544600 -4.469400 -22.937800
C -18.449500 -5.939100 -24.932400
C -18.425600 -6.095400 -26.309300
H -18.293300 -6.964800 -23.133700
C -18.286900 -4.183800 -20.199400
C -18.273700 -7.061400 -24.093900
H -18.254200 -6.804400 -28.959100
H -18.239200 -4.047100 -19.278800
C -18.204400 -7.376100 -26.899700
C -18.161300 -7.583300 -28.303300
C -18.055600 -8.298500 -24.636200
C -18.014100 -8.495000 -26.029300
C -17.946300 -8.840500 -28.817800
H -17.924800 -9.126300 -24.024700
H -17.860900 -8.894800 -29.745000
C -17.793900 -9.778700 -26.605500
C -17.759800 -9.948900 -27.957200
H -17.707100 -10.553500 -25.956800
H -17.536500 -10.845500 -28.437300
C -17.288000 -4.288200 -22.387200
C -17.167500 -4.134300 -21.005100
H -16.489800 -4.313900 -22.939200
H -16.227600 -4.095600 -20.584000
46
Fragment
H -18.465000 -12.957100 -31.521400
N -17.909100 -10.040700 -32.270800
C -17.763400 -11.145000 -32.010400
C -17.588700 -12.546100 -31.674200
H -17.136800 -13.005300 -32.412800
H -17.046200 -12.621800 -30.861600
H -20.550600 -4.596400 -22.585300
H -20.381500 -4.327300 -20.212900
C -19.671200 -4.530700 -22.144100
N -19.601000 1.049500 -24.539400
C -19.536200 -4.384900 -20.767000
C -19.442300 -0.020800 -24.927200
N -19.379900 0.525200 -28.431500
C -19.300300 -0.379000 -27.733600
C -19.233100 -1.338300 -25.481900
C -19.180100 -1.502900 -26.845100
N -19.087500 -2.376000 -24.614900
N -18.982700 -2.716300 -27.430200
C -18.868100 -3.556300 -25.166100
C -18.831300 -3.729700 -26.604100
N -18.652700 -4.651300 -24.368700
N -18.622800 -4.968800 -27.112900
H -18.592400 -5.038600 -28.002300
C -18.544600 -4.469400 -22.937800
C -18.449500 -5.939100 -24.932400
C -18.425600 -6.095400 -26.309300
H -18.293300 -6.964800 -23.133700
C -18.286900 -4.183800 -20.199400
C -18.273700 -7.061400 -24.093900
H -18.254200 -6.804400 -28.959100
H -18.239200 -4.047100 -19.278800
C -18.204400 -7.376100 -26.899700
C -18.161300 -7.583300 -28.303300
C -18.055600 -8.298500 -24.636200
C -18.014100 -8.495000 -26.029300
C -17.946300 -8.840500 -28.817800
H -17.924800 -9.126300 -24.024700
H -17.860900 -8.894800 -29.745000
C -17.793900 -9.778700 -26.605500
C -17.759800 -9.948900 -27.957200
H -17.707100 -10.553500 -25.956800
H -17.536500 -10.845500 -28.437300
C -17.288000 -4.288200 -22.387200
C -17.167500 -4.134300 -21.005100
H -16.489800 -4.313900 -22.939200
H -16.227600 -4.095600 -20.584000
