6
Fragment
H -18.465000 -12.957100 -31.521400
N -17.909100 -10.040700 -32.270800
C -17.763400 -11.145000 -32.010400
C -17.588700 -12.546100 -31.674200
H -17.136800 -13.005300 -32.412800
H -17.046200 -12.621800 -30.861600
40
Fragment
H -20.350000 -10.702800 -41.956000
H -20.087900 -10.484500 -39.600700
C -19.410100 -10.664100 -41.534900
C -19.289600 -10.510200 -40.152700
H -19.041100 -3.952900 -34.102600
H -18.870500 -4.244900 -36.583200
C -18.817800 -4.849500 -34.582700
C -18.783800 -5.019700 -35.934400
H -18.716700 -5.903600 -32.794900
H -18.652800 -5.672100 -38.515200
C -18.631300 -5.957900 -33.722200
C -18.563500 -6.303400 -36.510600
C -18.522000 -6.499900 -37.903800
C -18.416300 -7.215100 -34.236700
C -18.373300 -7.422400 -35.640300
H -18.338400 -10.751300 -43.261200
H -18.323400 -7.994000 -33.580800
C -18.303900 -7.737000 -38.446000
C -18.290800 -10.614600 -42.340600
H -18.284300 -7.833600 -39.406200
C -18.152000 -8.703000 -36.230600
C -18.128100 -8.859300 -37.607600
C -18.033000 -10.329000 -39.602200
H -17.985200 -9.759800 -34.537700
N -17.954900 -9.829600 -35.427000
N -17.924900 -10.147100 -38.171300
C -17.746300 -11.068700 -35.935900
C -17.709600 -11.242100 -37.373900
N -17.594900 -12.082100 -35.109700
N -17.490200 -12.422400 -37.925100
C -17.397500 -13.295500 -35.694900
C -17.344500 -13.460100 -37.058000
C -17.277400 -14.419400 -34.806400
N -17.197700 -15.323600 -34.108500
C -17.135400 -14.777600 -37.612800
C -17.041400 -10.413500 -41.772900
N -16.976600 -15.847900 -38.000500
C -16.906500 -10.267700 -40.395800
H -16.196100 -10.471100 -42.327000
H -16.027100 -10.202000 -39.954700
46
Fragment
H -18.465000 -12.957100 -31.521400
N -17.909100 -10.040700 -32.270800
C -17.763400 -11.145000 -32.010400
C -17.588700 -12.546100 -31.674200
H -17.136800 -13.005300 -32.412800
H -17.046200 -12.621800 -30.861600
H -20.350000 -10.702800 -41.956000
H -20.087900 -10.484500 -39.600700
C -19.410100 -10.664100 -41.534900
C -19.289600 -10.510200 -40.152700
H -19.041100 -3.952900 -34.102600
H -18.870500 -4.244900 -36.583200
C -18.817800 -4.849500 -34.582700
C -18.783800 -5.019700 -35.934400
H -18.716700 -5.903600 -32.794900
H -18.652800 -5.672100 -38.515200
C -18.631300 -5.957900 -33.722200
C -18.563500 -6.303400 -36.510600
C -18.522000 -6.499900 -37.903800
C -18.416300 -7.215100 -34.236700
C -18.373300 -7.422400 -35.640300
H -18.338400 -10.751300 -43.261200
H -18.323400 -7.994000 -33.580800
C -18.303900 -7.737000 -38.446000
C -18.290800 -10.614600 -42.340600
H -18.284300 -7.833600 -39.406200
C -18.152000 -8.703000 -36.230600
C -18.128100 -8.859300 -37.607600
C -18.033000 -10.329000 -39.602200
H -17.985200 -9.759800 -34.537700
N -17.954900 -9.829600 -35.427000
N -17.924900 -10.147100 -38.171300
C -17.746300 -11.068700 -35.935900
C -17.709600 -11.242100 -37.373900
N -17.594900 -12.082100 -35.109700
N -17.490200 -12.422400 -37.925100
C -17.397500 -13.295500 -35.694900
C -17.344500 -13.460100 -37.058000
C -17.277400 -14.419400 -34.806400
N -17.197700 -15.323600 -34.108500
C -17.135400 -14.777600 -37.612800
C -17.041400 -10.413500 -41.772900
N -16.976600 -15.847900 -38.000500
C -16.906500 -10.267700 -40.395800
H -16.196100 -10.471100 -42.327000
H -16.027100 -10.202000 -39.954700
