21
Fragment
H -9.947900 -23.231300 -29.778300
H -9.570200 -22.892700 -32.013500
C -9.531700 -22.389200 -30.077800
H -9.359900 -21.498500 -28.314100
C -9.314600 -22.222900 -31.440900
C -9.193800 -21.379900 -29.211800
H -8.862900 -19.020800 -24.912300
C -8.748500 -21.071600 -31.910000
C -8.625900 -20.182500 -29.654100
H -8.557100 -20.937600 -32.817700
N -8.493500 -19.286900 -27.475100
C -8.477500 -18.270000 -25.284900
C -8.399400 -20.058700 -31.030700
C -8.306900 -19.100300 -28.717300
N -8.215300 -18.220100 -26.621500
N -8.203600 -17.150400 -24.711900
H -7.983000 -18.284700 -29.085000
C -7.746800 -16.960500 -26.827100
N -7.724100 -16.300800 -25.710300
Cl -7.632700 -18.642200 -31.677800
H -7.489900 -16.638800 -27.626300
3
Fragment
H -9.504400 -13.706200 -25.106400
O -9.126800 -13.684000 -25.812500
H -8.481300 -14.177300 -25.716500
24
Fragment
H -9.947900 -23.231300 -29.778300
H -9.570200 -22.892700 -32.013500
C -9.531700 -22.389200 -30.077800
H -9.359900 -21.498500 -28.314100
C -9.314600 -22.222900 -31.440900
C -9.193800 -21.379900 -29.211800
H -8.862900 -19.020800 -24.912300
C -8.748500 -21.071600 -31.910000
C -8.625900 -20.182500 -29.654100
H -8.557100 -20.937600 -32.817700
N -8.493500 -19.286900 -27.475100
C -8.477500 -18.270000 -25.284900
C -8.399400 -20.058700 -31.030700
C -8.306900 -19.100300 -28.717300
N -8.215300 -18.220100 -26.621500
N -8.203600 -17.150400 -24.711900
H -7.983000 -18.284700 -29.085000
C -7.746800 -16.960500 -26.827100
N -7.724100 -16.300800 -25.710300
Cl -7.632700 -18.642200 -31.677800
H -7.489900 -16.638800 -27.626300
H -9.504400 -13.706200 -25.106400
O -9.126800 -13.684000 -25.812500
H -8.481300 -14.177300 -25.716500
