35
Fragment
H -8.508700 -19.042700 -18.258300
H -8.487000 -20.282100 -19.284400
C -7.945000 -19.759100 -18.642500
N -7.406800 -20.641000 -17.565500
H -7.287500 -21.339000 -13.820600
H -6.872300 -18.242900 -19.654800
H -6.806000 -19.992800 -14.569600
C -6.705900 -19.164900 -19.333800
H -6.590100 -19.262500 -12.391200
C -6.537900 -20.701500 -13.932000
H -6.402500 -19.728200 -20.089600
H -6.251700 -20.744100 -11.842500
C -6.185400 -20.253700 -17.444100
C -6.110100 -20.106000 -12.586300
H -5.970200 -22.392200 -15.979800
N -5.751800 -19.187800 -18.222400
N -5.313200 -21.390800 -14.383200
C -5.195400 -21.815800 -15.760700
N -5.134300 -20.738200 -16.726000
N -4.687500 -19.872200 -12.833100
H -4.378000 -22.367300 -15.852200
C -4.299000 -19.331200 -18.379700
C -4.242300 -20.831700 -13.715900
H -4.071400 -19.918200 -19.144500
C -3.924700 -19.976900 -17.042400
H -3.857100 -18.452700 -18.497000
H -3.800200 -20.339300 -11.053700
H -3.737400 -19.293500 -16.351500
C -3.631900 -19.755700 -11.835800
H -3.517600 -18.820400 -11.531100
H -3.138300 -20.571500 -17.136200
N -2.986700 -21.101300 -13.740800
C -2.421900 -20.239800 -12.661900
H -1.934600 -19.469900 -13.049700
H -1.797300 -20.757800 -12.093500
35
Fragment
H -15.126400 -24.425200 -25.117200
H -15.104700 -23.185800 -26.143200
C -14.562700 -23.708800 -25.501400
N -14.024500 -22.826900 -24.424400
H -13.905200 -22.128900 -20.679500
H -13.490000 -25.225000 -26.513600
H -13.423600 -23.475100 -21.428500
C -13.323600 -24.303000 -26.192600
H -13.207800 -24.205400 -19.250100
C -13.155500 -22.766400 -20.790900
H -13.020200 -23.739700 -26.948500
H -12.869400 -22.723800 -18.701400
C -12.803000 -23.214200 -24.303000
C -12.727700 -23.361900 -19.445100
H -12.587900 -21.075700 -22.838600
N -12.369500 -24.280100 -25.081200
N -11.930900 -22.077100 -21.242000
C -11.813000 -21.652100 -22.619600
N -11.751900 -22.729700 -23.584900
N -11.305100 -23.595700 -19.691900
H -10.995700 -21.100600 -22.711100
C -10.916600 -24.136700 -25.238600
C -10.860000 -22.636200 -20.574800
H -10.689100 -23.549700 -26.003300
C -10.542300 -23.491000 -23.901200
H -10.474700 -25.015200 -25.355800
H -10.417900 -23.128600 -17.912600
H -10.355000 -24.174400 -23.210400
C -10.249600 -23.712200 -18.694700
H -10.135200 -24.647500 -18.390000
H -9.755900 -22.896400 -23.995000
N -9.604300 -22.366600 -20.599600
C -9.039500 -23.228100 -19.520700
H -8.552200 -23.998000 -19.908500
H -8.414900 -22.710100 -18.952400
70
Fragment
H -8.508700 -19.042700 -18.258300
H -8.487000 -20.282100 -19.284400
C -7.945000 -19.759100 -18.642500
N -7.406800 -20.641000 -17.565500
H -7.287500 -21.339000 -13.820600
H -6.872300 -18.242900 -19.654800
H -6.806000 -19.992800 -14.569600
C -6.705900 -19.164900 -19.333800
H -6.590100 -19.262500 -12.391200
C -6.537900 -20.701500 -13.932000
H -6.402500 -19.728200 -20.089600
H -6.251700 -20.744100 -11.842500
C -6.185400 -20.253700 -17.444100
C -6.110100 -20.106000 -12.586300
H -5.970200 -22.392200 -15.979800
N -5.751800 -19.187800 -18.222400
N -5.313200 -21.390800 -14.383200
C -5.195400 -21.815800 -15.760700
N -5.134300 -20.738200 -16.726000
N -4.687500 -19.872200 -12.833100
H -4.378000 -22.367300 -15.852200
C -4.299000 -19.331200 -18.379700
C -4.242300 -20.831700 -13.715900
H -4.071400 -19.918200 -19.144500
C -3.924700 -19.976900 -17.042400
H -3.857100 -18.452700 -18.497000
H -3.800200 -20.339300 -11.053700
H -3.737400 -19.293500 -16.351500
C -3.631900 -19.755700 -11.835800
H -3.517600 -18.820400 -11.531100
H -3.138300 -20.571500 -17.136200
N -2.986700 -21.101300 -13.740800
C -2.421900 -20.239800 -12.661900
H -1.934600 -19.469900 -13.049700
H -1.797300 -20.757800 -12.093500
H -15.126400 -24.425200 -25.117200
H -15.104700 -23.185800 -26.143200
C -14.562700 -23.708800 -25.501400
N -14.024500 -22.826900 -24.424400
H -13.905200 -22.128900 -20.679500
H -13.490000 -25.225000 -26.513600
H -13.423600 -23.475100 -21.428500
C -13.323600 -24.303000 -26.192600
H -13.207800 -24.205400 -19.250100
C -13.155500 -22.766400 -20.790900
H -13.020200 -23.739700 -26.948500
H -12.869400 -22.723800 -18.701400
C -12.803000 -23.214200 -24.303000
C -12.727700 -23.361900 -19.445100
H -12.587900 -21.075700 -22.838600
N -12.369500 -24.280100 -25.081200
N -11.930900 -22.077100 -21.242000
C -11.813000 -21.652100 -22.619600
N -11.751900 -22.729700 -23.584900
N -11.305100 -23.595700 -19.691900
H -10.995700 -21.100600 -22.711100
C -10.916600 -24.136700 -25.238600
C -10.860000 -22.636200 -20.574800
H -10.689100 -23.549700 -26.003300
C -10.542300 -23.491000 -23.901200
H -10.474700 -25.015200 -25.355800
H -10.417900 -23.128600 -17.912600
H -10.355000 -24.174400 -23.210400
C -10.249600 -23.712200 -18.694700
H -10.135200 -24.647500 -18.390000
H -9.755900 -22.896400 -23.995000
N -9.604300 -22.366600 -20.599600
C -9.039500 -23.228100 -19.520700
H -8.552200 -23.998000 -19.908500
H -8.414900 -22.710100 -18.952400
