35
Fragment
H -8.508700 -19.042700 -18.258300
H -8.487000 -20.282100 -19.284400
C -7.945000 -19.759100 -18.642500
N -7.406800 -20.641000 -17.565500
H -7.287500 -21.339000 -13.820600
H -6.872300 -18.242900 -19.654800
H -6.806000 -19.992800 -14.569600
C -6.705900 -19.164900 -19.333800
H -6.590100 -19.262500 -12.391200
C -6.537900 -20.701500 -13.932000
H -6.402500 -19.728200 -20.089600
H -6.251700 -20.744100 -11.842500
C -6.185400 -20.253700 -17.444100
C -6.110100 -20.106000 -12.586300
H -5.970200 -22.392200 -15.979800
N -5.751800 -19.187800 -18.222400
N -5.313200 -21.390800 -14.383200
C -5.195400 -21.815800 -15.760700
N -5.134300 -20.738200 -16.726000
N -4.687500 -19.872200 -12.833100
H -4.378000 -22.367300 -15.852200
C -4.299000 -19.331200 -18.379700
C -4.242300 -20.831700 -13.715900
H -4.071400 -19.918200 -19.144500
C -3.924700 -19.976900 -17.042400
H -3.857100 -18.452700 -18.497000
H -3.800200 -20.339300 -11.053700
H -3.737400 -19.293500 -16.351500
C -3.631900 -19.755700 -11.835800
H -3.517600 -18.820400 -11.531100
H -3.138300 -20.571500 -17.136200
N -2.986700 -21.101300 -13.740800
C -2.421900 -20.239800 -12.661900
H -1.934600 -19.469900 -13.049700
H -1.797300 -20.757800 -12.093500
35
Fragment
H -15.745500 -19.042700 -18.258300
H -15.723800 -20.282100 -19.284400
C -15.181800 -19.759100 -18.642500
N -14.643600 -20.641000 -17.565500
H -14.524300 -21.339000 -13.820600
H -14.109100 -18.242900 -19.654800
H -14.042800 -19.992800 -14.569600
C -13.942700 -19.164900 -19.333800
H -13.826900 -19.262500 -12.391200
C -13.774700 -20.701500 -13.932000
H -13.639300 -19.728200 -20.089600
H -13.488500 -20.744100 -11.842500
C -13.422200 -20.253700 -17.444100
C -13.346900 -20.106000 -12.586300
H -13.207000 -22.392200 -15.979800
N -12.988600 -19.187800 -18.222400
N -12.550000 -21.390800 -14.383200
C -12.432200 -21.815800 -15.760700
N -12.371100 -20.738200 -16.726000
N -11.924300 -19.872200 -12.833100
H -11.614800 -22.367300 -15.852200
C -11.535800 -19.331200 -18.379700
C -11.479100 -20.831700 -13.715900
H -11.308200 -19.918200 -19.144500
C -11.161500 -19.976900 -17.042400
H -11.093900 -18.452700 -18.497000
H -11.037000 -20.339300 -11.053700
H -10.974200 -19.293500 -16.351500
C -10.868700 -19.755700 -11.835800
H -10.754400 -18.820400 -11.531100
H -10.375100 -20.571500 -17.136200
N -10.223500 -21.101300 -13.740800
C -9.658700 -20.239800 -12.661900
H -9.171400 -19.469900 -13.049700
H -9.034100 -20.757800 -12.093500
70
Fragment
H -8.508700 -19.042700 -18.258300
H -8.487000 -20.282100 -19.284400
C -7.945000 -19.759100 -18.642500
N -7.406800 -20.641000 -17.565500
H -7.287500 -21.339000 -13.820600
H -6.872300 -18.242900 -19.654800
H -6.806000 -19.992800 -14.569600
C -6.705900 -19.164900 -19.333800
H -6.590100 -19.262500 -12.391200
C -6.537900 -20.701500 -13.932000
H -6.402500 -19.728200 -20.089600
H -6.251700 -20.744100 -11.842500
C -6.185400 -20.253700 -17.444100
C -6.110100 -20.106000 -12.586300
H -5.970200 -22.392200 -15.979800
N -5.751800 -19.187800 -18.222400
N -5.313200 -21.390800 -14.383200
C -5.195400 -21.815800 -15.760700
N -5.134300 -20.738200 -16.726000
N -4.687500 -19.872200 -12.833100
H -4.378000 -22.367300 -15.852200
C -4.299000 -19.331200 -18.379700
C -4.242300 -20.831700 -13.715900
H -4.071400 -19.918200 -19.144500
C -3.924700 -19.976900 -17.042400
H -3.857100 -18.452700 -18.497000
H -3.800200 -20.339300 -11.053700
H -3.737400 -19.293500 -16.351500
C -3.631900 -19.755700 -11.835800
H -3.517600 -18.820400 -11.531100
H -3.138300 -20.571500 -17.136200
N -2.986700 -21.101300 -13.740800
C -2.421900 -20.239800 -12.661900
H -1.934600 -19.469900 -13.049700
H -1.797300 -20.757800 -12.093500
H -15.745500 -19.042700 -18.258300
H -15.723800 -20.282100 -19.284400
C -15.181800 -19.759100 -18.642500
N -14.643600 -20.641000 -17.565500
H -14.524300 -21.339000 -13.820600
H -14.109100 -18.242900 -19.654800
H -14.042800 -19.992800 -14.569600
C -13.942700 -19.164900 -19.333800
H -13.826900 -19.262500 -12.391200
C -13.774700 -20.701500 -13.932000
H -13.639300 -19.728200 -20.089600
H -13.488500 -20.744100 -11.842500
C -13.422200 -20.253700 -17.444100
C -13.346900 -20.106000 -12.586300
H -13.207000 -22.392200 -15.979800
N -12.988600 -19.187800 -18.222400
N -12.550000 -21.390800 -14.383200
C -12.432200 -21.815800 -15.760700
N -12.371100 -20.738200 -16.726000
N -11.924300 -19.872200 -12.833100
H -11.614800 -22.367300 -15.852200
C -11.535800 -19.331200 -18.379700
C -11.479100 -20.831700 -13.715900
H -11.308200 -19.918200 -19.144500
C -11.161500 -19.976900 -17.042400
H -11.093900 -18.452700 -18.497000
H -11.037000 -20.339300 -11.053700
H -10.974200 -19.293500 -16.351500
C -10.868700 -19.755700 -11.835800
H -10.754400 -18.820400 -11.531100
H -10.375100 -20.571500 -17.136200
N -10.223500 -21.101300 -13.740800
C -9.658700 -20.239800 -12.661900
H -9.171400 -19.469900 -13.049700
H -9.034100 -20.757800 -12.093500
