34
Fragment
H -11.086700 -11.585200 -40.432100
H -10.261900 -11.803500 -42.563200
C -10.168000 -11.652500 -40.563500
H -9.865500 -11.623900 -35.157100
C -9.668100 -11.799400 -41.846800
H -9.657800 -11.496100 -38.615300
H -9.527300 -12.927900 -34.355700
C -9.321000 -11.604200 -39.473400
C -9.159200 -12.138800 -34.760200
H -8.717800 -11.611700 -34.090200
H -8.598600 -13.097300 -36.489400
C -8.328900 -11.937500 -42.096800
H -8.294300 -10.807000 -36.945500
C -8.160100 -12.538100 -35.829700
H -8.011500 -12.049100 -42.965200
C -7.951900 -11.720500 -39.692500
C -7.574900 -11.295400 -36.515100
C -7.456200 -11.906900 -41.009300
H -7.443500 -13.053700 -35.427700
H -7.188200 -10.717200 -35.837400
C -6.772100 -11.760000 -38.860100
C -6.527100 -11.612400 -37.538200
N -6.071300 -12.066700 -41.066000
C -5.673000 -11.990600 -39.795600
H -5.455700 -11.590600 -35.133900
N -5.197600 -11.791300 -37.133600
C -4.812700 -11.725300 -35.793600
N -4.401700 -12.120500 -39.378100
C -4.198600 -12.025900 -38.084500
C -3.521900 -11.855200 -35.448300
H -3.305000 -11.783800 -34.546400
C -2.868100 -12.169500 -37.571700
N -2.505600 -12.085800 -36.332200
H -2.196900 -12.340900 -38.192700
34
Fragment
H -9.044700 -14.867100 -39.115300
N -8.736000 -15.122200 -40.975800
C -8.373500 -15.038500 -39.736300
H -7.936600 -15.424200 -42.761600
C -7.719700 -15.352800 -41.859700
C -7.043000 -15.182100 -39.223500
N -6.839900 -15.087500 -37.929900
C -6.428900 -15.482700 -41.514400
N -6.044000 -15.416700 -40.174400
H -5.785800 -15.617400 -42.174100
C -5.568500 -15.217400 -37.512400
N -5.170300 -15.141300 -36.242000
C -4.714500 -15.595600 -39.769800
C -4.469500 -15.448000 -38.447800
H -4.053400 -16.490800 -41.470600
H -3.798100 -14.154300 -41.880300
C -3.785400 -15.301100 -36.298700
C -3.666700 -15.912600 -40.792800
C -3.289700 -15.487500 -37.615500
H -3.230100 -15.158900 -34.342800
C -3.081500 -14.669900 -41.478300
H -2.947300 -16.401000 -40.362500
C -2.912700 -15.270500 -35.211200
H -2.643000 -14.110700 -40.818600
H -2.523700 -15.596300 -43.217700
C -2.082400 -15.069200 -42.547700
C -1.920600 -15.603800 -37.834500
H -1.714200 -14.280100 -42.952300
H -1.583800 -15.711900 -38.692600
C -1.573500 -15.408600 -35.461200
H -1.376000 -15.584100 -42.150900
C -1.073600 -15.555500 -36.744500
H -0.979700 -15.404500 -34.744800
H -0.154900 -15.622800 -36.875900
68
Fragment
H -11.086700 -11.585200 -40.432100
H -10.261900 -11.803500 -42.563200
C -10.168000 -11.652500 -40.563500
H -9.865500 -11.623900 -35.157100
C -9.668100 -11.799400 -41.846800
H -9.657800 -11.496100 -38.615300
H -9.527300 -12.927900 -34.355700
C -9.321000 -11.604200 -39.473400
C -9.159200 -12.138800 -34.760200
H -8.717800 -11.611700 -34.090200
H -8.598600 -13.097300 -36.489400
C -8.328900 -11.937500 -42.096800
H -8.294300 -10.807000 -36.945500
C -8.160100 -12.538100 -35.829700
H -8.011500 -12.049100 -42.965200
C -7.951900 -11.720500 -39.692500
C -7.574900 -11.295400 -36.515100
C -7.456200 -11.906900 -41.009300
H -7.443500 -13.053700 -35.427700
H -7.188200 -10.717200 -35.837400
C -6.772100 -11.760000 -38.860100
C -6.527100 -11.612400 -37.538200
N -6.071300 -12.066700 -41.066000
C -5.673000 -11.990600 -39.795600
H -5.455700 -11.590600 -35.133900
N -5.197600 -11.791300 -37.133600
C -4.812700 -11.725300 -35.793600
N -4.401700 -12.120500 -39.378100
C -4.198600 -12.025900 -38.084500
C -3.521900 -11.855200 -35.448300
H -3.305000 -11.783800 -34.546400
C -2.868100 -12.169500 -37.571700
N -2.505600 -12.085800 -36.332200
H -2.196900 -12.340900 -38.192700
H -9.044700 -14.867100 -39.115300
N -8.736000 -15.122200 -40.975800
C -8.373500 -15.038500 -39.736300
H -7.936600 -15.424200 -42.761600
C -7.719700 -15.352800 -41.859700
C -7.043000 -15.182100 -39.223500
N -6.839900 -15.087500 -37.929900
C -6.428900 -15.482700 -41.514400
N -6.044000 -15.416700 -40.174400
H -5.785800 -15.617400 -42.174100
C -5.568500 -15.217400 -37.512400
N -5.170300 -15.141300 -36.242000
C -4.714500 -15.595600 -39.769800
C -4.469500 -15.448000 -38.447800
H -4.053400 -16.490800 -41.470600
H -3.798100 -14.154300 -41.880300
C -3.785400 -15.301100 -36.298700
C -3.666700 -15.912600 -40.792800
C -3.289700 -15.487500 -37.615500
H -3.230100 -15.158900 -34.342800
C -3.081500 -14.669900 -41.478300
H -2.947300 -16.401000 -40.362500
C -2.912700 -15.270500 -35.211200
H -2.643000 -14.110700 -40.818600
H -2.523700 -15.596300 -43.217700
C -2.082400 -15.069200 -42.547700
C -1.920600 -15.603800 -37.834500
H -1.714200 -14.280100 -42.952300
H -1.583800 -15.711900 -38.692600
C -1.573500 -15.408600 -35.461200
H -1.376000 -15.584100 -42.150900
C -1.073600 -15.555500 -36.744500
H -0.979700 -15.404500 -34.744800
H -0.154900 -15.622800 -36.875900
