35
Fragment
H -31.244800 -22.302700 -26.884600
C -30.327800 -22.040400 -26.659400
O -30.249800 -21.735000 -25.275200
H -30.075500 -21.250500 -27.182200
H -29.716000 -22.778600 -26.866100
H -29.700000 -21.648900 -22.851400
H -29.218200 -20.901600 -20.755400
H -29.017500 -22.489800 -20.799700
C -28.989000 -21.555100 -24.766700
C -28.916300 -21.560800 -23.379900
C -28.583400 -21.633300 -20.601600
H -28.294200 -21.623500 -19.664800
H -27.930800 -21.392200 -26.490900
C -27.857200 -21.408700 -25.544700
C -27.669000 -21.434500 -22.786400
O -27.457600 -21.467800 -21.445000
C -26.598500 -21.284100 -24.939000
C -26.518500 -21.297600 -23.557900
H -25.673200 -21.213100 -23.132400
H -25.555200 -21.189000 -26.736700
C -25.414000 -21.207300 -25.797700
C -24.151900 -21.160800 -25.364300
H -24.033900 -21.087400 -24.424400
H -23.724900 -21.745200 -27.965900
C -22.931800 -21.208700 -26.166300
C -22.908500 -21.559900 -27.518600
H -21.722700 -21.893600 -29.134000
C -21.716800 -21.642500 -28.216900
C -21.706900 -20.913700 -25.559700
H -21.693300 -20.662300 -24.644300
C -20.517600 -20.977600 -26.257200
C -20.515300 -21.361300 -27.584700
H -19.701500 -20.758500 -25.825500
H -19.453700 -21.675600 -29.128500
O -19.311000 -21.464400 -28.204700
24
Fragment
H -21.175900 -22.584800 -33.385300
H -21.029700 -21.358800 -32.366800
H -20.909900 -21.107500 -33.943500
C -20.715600 -21.735800 -33.215800
O -19.406900 -21.945000 -30.871100
N -19.272600 -21.968200 -33.143500
O -19.191900 -21.922300 -35.427700
C -18.698500 -22.043400 -31.879800
C -18.603500 -22.043600 -34.367700
C -17.296900 -22.231100 -31.941200
N -17.252500 -22.253500 -34.328000
H -17.175000 -22.945700 -29.244900
H -16.954800 -22.872200 -36.220700
H -16.821200 -21.385500 -29.278200
C -16.615700 -22.329700 -33.130600
C -16.511200 -22.281700 -29.525000
C -16.508800 -22.272100 -35.586300
H -16.476500 -21.366800 -35.960100
N -16.332700 -22.351500 -30.962400
H -15.657900 -22.467100 -29.080400
H -15.596500 -22.590100 -35.422200
N -15.286800 -22.511000 -32.947400
C -15.174900 -22.512700 -31.622900
H -14.342500 -22.619500 -31.178300
59
Fragment
H -31.244800 -22.302700 -26.884600
C -30.327800 -22.040400 -26.659400
O -30.249800 -21.735000 -25.275200
H -30.075500 -21.250500 -27.182200
H -29.716000 -22.778600 -26.866100
H -29.700000 -21.648900 -22.851400
H -29.218200 -20.901600 -20.755400
H -29.017500 -22.489800 -20.799700
C -28.989000 -21.555100 -24.766700
C -28.916300 -21.560800 -23.379900
C -28.583400 -21.633300 -20.601600
H -28.294200 -21.623500 -19.664800
H -27.930800 -21.392200 -26.490900
C -27.857200 -21.408700 -25.544700
C -27.669000 -21.434500 -22.786400
O -27.457600 -21.467800 -21.445000
C -26.598500 -21.284100 -24.939000
C -26.518500 -21.297600 -23.557900
H -25.673200 -21.213100 -23.132400
H -25.555200 -21.189000 -26.736700
C -25.414000 -21.207300 -25.797700
C -24.151900 -21.160800 -25.364300
H -24.033900 -21.087400 -24.424400
H -23.724900 -21.745200 -27.965900
C -22.931800 -21.208700 -26.166300
C -22.908500 -21.559900 -27.518600
H -21.722700 -21.893600 -29.134000
C -21.716800 -21.642500 -28.216900
C -21.706900 -20.913700 -25.559700
H -21.693300 -20.662300 -24.644300
C -20.517600 -20.977600 -26.257200
C -20.515300 -21.361300 -27.584700
H -19.701500 -20.758500 -25.825500
H -19.453700 -21.675600 -29.128500
O -19.311000 -21.464400 -28.204700
H -21.175900 -22.584800 -33.385300
H -21.029700 -21.358800 -32.366800
H -20.909900 -21.107500 -33.943500
C -20.715600 -21.735800 -33.215800
O -19.406900 -21.945000 -30.871100
N -19.272600 -21.968200 -33.143500
O -19.191900 -21.922300 -35.427700
C -18.698500 -22.043400 -31.879800
C -18.603500 -22.043600 -34.367700
C -17.296900 -22.231100 -31.941200
N -17.252500 -22.253500 -34.328000
H -17.175000 -22.945700 -29.244900
H -16.954800 -22.872200 -36.220700
H -16.821200 -21.385500 -29.278200
C -16.615700 -22.329700 -33.130600
C -16.511200 -22.281700 -29.525000
C -16.508800 -22.272100 -35.586300
H -16.476500 -21.366800 -35.960100
N -16.332700 -22.351500 -30.962400
H -15.657900 -22.467100 -29.080400
H -15.596500 -22.590100 -35.422200
N -15.286800 -22.511000 -32.947400
C -15.174900 -22.512700 -31.622900
H -14.342500 -22.619500 -31.178300
