41
Fragment
H -5.893600 -14.274700 -24.293200
H -5.261200 -15.522300 -25.070000
H -5.256700 -15.489600 -23.470300
C -5.180200 -14.945900 -24.281400
H -4.398200 -12.788700 -25.647700
O -4.114500 -15.008400 -21.469800
H -3.943500 -13.189200 -19.839500
C -3.893300 -13.827800 -21.724800
N -3.826900 -12.881500 -20.717200
C -3.822200 -14.247300 -24.299300
H -3.761400 -14.073900 -26.358600
C -3.687100 -13.461000 -25.596900
C -3.685400 -13.314600 -23.094800
N -3.518700 -10.302000 -17.649400
C -3.470900 -11.593200 -20.990700
C -3.436100 -10.379700 -18.801400
N -3.363000 -12.083800 -23.355700
C -3.302800 -10.456600 -20.197500
N -3.217600 -11.253300 -22.287800
C -2.935600 -9.391700 -21.090300
C -2.884800 -9.899400 -22.384600
H -2.814400 -13.015900 -25.620000
H -2.775500 -15.789500 -23.380600
H -2.762800 -15.901400 -24.976400
C -2.695500 -15.285500 -24.217300
N -2.691100 -8.083400 -20.778200
H -2.580300 -10.430200 -25.047600
C -2.520400 -9.096600 -23.480800
C -2.401200 -9.524100 -24.825700
C -2.371900 -7.284100 -21.783900
H -2.268200 -5.741400 -20.521300
C -2.257300 -7.725900 -23.171600
N -2.124100 -5.978800 -21.472000
C -2.033400 -8.654300 -25.803500
H -1.986900 -5.355500 -22.103900
H -1.947400 -8.960700 -26.698800
C -1.890400 -6.865700 -24.206200
H -1.828200 -14.829500 -24.241800
C -1.779200 -7.306100 -25.501600
H -1.712600 -5.953600 -24.009700
H -1.531700 -6.701400 -26.191100
11
Fragment
H -3.650300 -13.251200 -28.575500
H -3.426700 -14.178000 -30.716000
C -3.377200 -12.707400 -29.304200
C -3.249400 -13.257600 -30.556300
H -3.204900 -11.005900 -28.234000
C -3.114600 -11.386500 -29.099900
C -2.841100 -12.387900 -31.598900
H -2.743200 -12.738800 -32.475400
C -2.721900 -10.618700 -30.153900
N -2.591300 -11.096900 -31.393700
H -2.532100 -9.700300 -29.999900
52
Fragment
H -5.893600 -14.274700 -24.293200
H -5.261200 -15.522300 -25.070000
H -5.256700 -15.489600 -23.470300
C -5.180200 -14.945900 -24.281400
H -4.398200 -12.788700 -25.647700
O -4.114500 -15.008400 -21.469800
H -3.943500 -13.189200 -19.839500
C -3.893300 -13.827800 -21.724800
N -3.826900 -12.881500 -20.717200
C -3.822200 -14.247300 -24.299300
H -3.761400 -14.073900 -26.358600
C -3.687100 -13.461000 -25.596900
C -3.685400 -13.314600 -23.094800
N -3.518700 -10.302000 -17.649400
C -3.470900 -11.593200 -20.990700
C -3.436100 -10.379700 -18.801400
N -3.363000 -12.083800 -23.355700
C -3.302800 -10.456600 -20.197500
N -3.217600 -11.253300 -22.287800
C -2.935600 -9.391700 -21.090300
C -2.884800 -9.899400 -22.384600
H -2.814400 -13.015900 -25.620000
H -2.775500 -15.789500 -23.380600
H -2.762800 -15.901400 -24.976400
C -2.695500 -15.285500 -24.217300
N -2.691100 -8.083400 -20.778200
H -2.580300 -10.430200 -25.047600
C -2.520400 -9.096600 -23.480800
C -2.401200 -9.524100 -24.825700
C -2.371900 -7.284100 -21.783900
H -2.268200 -5.741400 -20.521300
C -2.257300 -7.725900 -23.171600
N -2.124100 -5.978800 -21.472000
C -2.033400 -8.654300 -25.803500
H -1.986900 -5.355500 -22.103900
H -1.947400 -8.960700 -26.698800
C -1.890400 -6.865700 -24.206200
H -1.828200 -14.829500 -24.241800
C -1.779200 -7.306100 -25.501600
H -1.712600 -5.953600 -24.009700
H -1.531700 -6.701400 -26.191100
H -3.650300 -13.251200 -28.575500
H -3.426700 -14.178000 -30.716000
C -3.377200 -12.707400 -29.304200
C -3.249400 -13.257600 -30.556300
H -3.204900 -11.005900 -28.234000
C -3.114600 -11.386500 -29.099900
C -2.841100 -12.387900 -31.598900
H -2.743200 -12.738800 -32.475400
C -2.721900 -10.618700 -30.153900
N -2.591300 -11.096900 -31.393700
H -2.532100 -9.700300 -29.999900
