41
Fragment
H -5.893600 -14.274700 -24.293200
H -5.261200 -15.522300 -25.070000
H -5.256700 -15.489600 -23.470300
C -5.180200 -14.945900 -24.281400
H -4.398200 -12.788700 -25.647700
O -4.114500 -15.008400 -21.469800
H -3.943500 -13.189200 -19.839500
C -3.893300 -13.827800 -21.724800
N -3.826900 -12.881500 -20.717200
C -3.822200 -14.247300 -24.299300
H -3.761400 -14.073900 -26.358600
C -3.687100 -13.461000 -25.596900
C -3.685400 -13.314600 -23.094800
N -3.518700 -10.302000 -17.649400
C -3.470900 -11.593200 -20.990700
C -3.436100 -10.379700 -18.801400
N -3.363000 -12.083800 -23.355700
C -3.302800 -10.456600 -20.197500
N -3.217600 -11.253300 -22.287800
C -2.935600 -9.391700 -21.090300
C -2.884800 -9.899400 -22.384600
H -2.814400 -13.015900 -25.620000
H -2.775500 -15.789500 -23.380600
H -2.762800 -15.901400 -24.976400
C -2.695500 -15.285500 -24.217300
N -2.691100 -8.083400 -20.778200
H -2.580300 -10.430200 -25.047600
C -2.520400 -9.096600 -23.480800
C -2.401200 -9.524100 -24.825700
C -2.371900 -7.284100 -21.783900
H -2.268200 -5.741400 -20.521300
C -2.257300 -7.725900 -23.171600
N -2.124100 -5.978800 -21.472000
C -2.033400 -8.654300 -25.803500
H -1.986900 -5.355500 -22.103900
H -1.947400 -8.960700 -26.698800
C -1.890400 -6.865700 -24.206200
H -1.828200 -14.829500 -24.241800
C -1.779200 -7.306100 -25.501600
H -1.712600 -5.953600 -24.009700
H -1.531700 -6.701400 -26.191100
41
Fragment
H -11.406200 -25.163600 -24.293200
H -10.773800 -26.411100 -25.070000
H -10.769300 -26.378500 -23.470300
C -10.692800 -25.834800 -24.281400
H -9.910800 -23.677600 -25.647700
O -9.627000 -25.897300 -21.469800
H -9.456100 -24.078000 -19.839500
C -9.405900 -24.716700 -21.724800
N -9.339500 -23.770400 -20.717200
C -9.334800 -25.136200 -24.299300
H -9.274000 -24.962700 -26.358600
C -9.199700 -24.349900 -25.596900
C -9.198000 -24.203500 -23.094800
N -9.031300 -21.190900 -17.649400
C -8.983500 -22.482000 -20.990700
C -8.948700 -21.268500 -18.801400
N -8.875600 -22.972600 -23.355700
C -8.815400 -21.345500 -20.197500
N -8.730200 -22.142200 -22.287800
C -8.448200 -20.280500 -21.090300
C -8.397300 -20.788300 -22.384600
H -8.326900 -23.904800 -25.620000
H -8.288100 -26.678300 -23.380600
H -8.275400 -26.790300 -24.976400
C -8.208100 -26.174300 -24.217300
N -8.203600 -18.972300 -20.778200
H -8.092900 -21.319100 -25.047600
C -8.033000 -19.985400 -23.480800
C -7.913700 -20.413000 -24.825700
C -7.884400 -18.173000 -21.783900
H -7.780800 -16.630300 -20.521300
C -7.769900 -18.614700 -23.171600
N -7.636700 -16.867700 -21.472000
C -7.546000 -19.543100 -25.803500
H -7.499500 -16.244300 -22.103900
H -7.460000 -19.849600 -26.698800
C -7.403000 -17.754600 -24.206200
H -7.340700 -25.718400 -24.241800
C -7.291800 -18.195000 -25.501600
H -7.225200 -16.842400 -24.009700
H -7.044300 -17.590300 -26.191100
82
Fragment
H -5.893600 -14.274700 -24.293200
H -5.261200 -15.522300 -25.070000
H -5.256700 -15.489600 -23.470300
C -5.180200 -14.945900 -24.281400
H -4.398200 -12.788700 -25.647700
O -4.114500 -15.008400 -21.469800
H -3.943500 -13.189200 -19.839500
C -3.893300 -13.827800 -21.724800
N -3.826900 -12.881500 -20.717200
C -3.822200 -14.247300 -24.299300
H -3.761400 -14.073900 -26.358600
C -3.687100 -13.461000 -25.596900
C -3.685400 -13.314600 -23.094800
N -3.518700 -10.302000 -17.649400
C -3.470900 -11.593200 -20.990700
C -3.436100 -10.379700 -18.801400
N -3.363000 -12.083800 -23.355700
C -3.302800 -10.456600 -20.197500
N -3.217600 -11.253300 -22.287800
C -2.935600 -9.391700 -21.090300
C -2.884800 -9.899400 -22.384600
H -2.814400 -13.015900 -25.620000
H -2.775500 -15.789500 -23.380600
H -2.762800 -15.901400 -24.976400
C -2.695500 -15.285500 -24.217300
N -2.691100 -8.083400 -20.778200
H -2.580300 -10.430200 -25.047600
C -2.520400 -9.096600 -23.480800
C -2.401200 -9.524100 -24.825700
C -2.371900 -7.284100 -21.783900
H -2.268200 -5.741400 -20.521300
C -2.257300 -7.725900 -23.171600
N -2.124100 -5.978800 -21.472000
C -2.033400 -8.654300 -25.803500
H -1.986900 -5.355500 -22.103900
H -1.947400 -8.960700 -26.698800
C -1.890400 -6.865700 -24.206200
H -1.828200 -14.829500 -24.241800
C -1.779200 -7.306100 -25.501600
H -1.712600 -5.953600 -24.009700
H -1.531700 -6.701400 -26.191100
H -11.406200 -25.163600 -24.293200
H -10.773800 -26.411100 -25.070000
H -10.769300 -26.378500 -23.470300
C -10.692800 -25.834800 -24.281400
H -9.910800 -23.677600 -25.647700
O -9.627000 -25.897300 -21.469800
H -9.456100 -24.078000 -19.839500
C -9.405900 -24.716700 -21.724800
N -9.339500 -23.770400 -20.717200
C -9.334800 -25.136200 -24.299300
H -9.274000 -24.962700 -26.358600
C -9.199700 -24.349900 -25.596900
C -9.198000 -24.203500 -23.094800
N -9.031300 -21.190900 -17.649400
C -8.983500 -22.482000 -20.990700
C -8.948700 -21.268500 -18.801400
N -8.875600 -22.972600 -23.355700
C -8.815400 -21.345500 -20.197500
N -8.730200 -22.142200 -22.287800
C -8.448200 -20.280500 -21.090300
C -8.397300 -20.788300 -22.384600
H -8.326900 -23.904800 -25.620000
H -8.288100 -26.678300 -23.380600
H -8.275400 -26.790300 -24.976400
C -8.208100 -26.174300 -24.217300
N -8.203600 -18.972300 -20.778200
H -8.092900 -21.319100 -25.047600
C -8.033000 -19.985400 -23.480800
C -7.913700 -20.413000 -24.825700
C -7.884400 -18.173000 -21.783900
H -7.780800 -16.630300 -20.521300
C -7.769900 -18.614700 -23.171600
N -7.636700 -16.867700 -21.472000
C -7.546000 -19.543100 -25.803500
H -7.499500 -16.244300 -22.103900
H -7.460000 -19.849600 -26.698800
C -7.403000 -17.754600 -24.206200
H -7.340700 -25.718400 -24.241800
C -7.291800 -18.195000 -25.501600
H -7.225200 -16.842400 -24.009700
H -7.044300 -17.590300 -26.191100
