35
Fragment
H -31.244800 -22.302700 -26.884600
C -30.327800 -22.040400 -26.659400
O -30.249800 -21.735000 -25.275200
H -30.075500 -21.250500 -27.182200
H -29.716000 -22.778600 -26.866100
H -29.700000 -21.648900 -22.851400
H -29.218200 -20.901600 -20.755400
H -29.017500 -22.489800 -20.799700
C -28.989000 -21.555100 -24.766700
C -28.916300 -21.560800 -23.379900
C -28.583400 -21.633300 -20.601600
H -28.294200 -21.623500 -19.664800
H -27.930800 -21.392200 -26.490900
C -27.857200 -21.408700 -25.544700
C -27.669000 -21.434500 -22.786400
O -27.457600 -21.467800 -21.445000
C -26.598500 -21.284100 -24.939000
C -26.518500 -21.297600 -23.557900
H -25.673200 -21.213100 -23.132400
H -25.555200 -21.189000 -26.736700
C -25.414000 -21.207300 -25.797700
C -24.151900 -21.160800 -25.364300
H -24.033900 -21.087400 -24.424400
H -23.724900 -21.745200 -27.965900
C -22.931800 -21.208700 -26.166300
C -22.908500 -21.559900 -27.518600
H -21.722700 -21.893600 -29.134000
C -21.716800 -21.642500 -28.216900
C -21.706900 -20.913700 -25.559700
H -21.693300 -20.662300 -24.644300
C -20.517600 -20.977600 -26.257200
C -20.515300 -21.361300 -27.584700
H -19.701500 -20.758500 -25.825500
H -19.453700 -21.675600 -29.128500
O -19.311000 -21.464400 -28.204700
35
Fragment
O -25.589100 -21.628200 -18.218700
H -25.411500 -21.785300 -17.302600
H -25.260900 -21.079400 -20.653700
C -24.428900 -21.162400 -20.201800
C -24.402500 -21.430100 -18.849700
H -23.281200 -20.841400 -21.831100
C -23.246900 -21.014300 -20.897500
C -23.181200 -21.513100 -18.195000
H -23.156800 -21.681000 -17.260100
C -22.000800 -21.353000 -18.895200
C -22.000600 -21.110100 -20.271500
H -21.173700 -21.409600 -18.432000
H -20.911400 -20.862800 -22.006700
C -20.788300 -21.006500 -21.076400
C -19.523900 -21.091000 -20.653900
H -19.384800 -21.131500 -19.714700
H -19.247500 -21.036600 -23.326500
C -18.406000 -21.111700 -22.893000
C -18.335700 -21.126700 -21.504700
O -17.429100 -21.189800 -24.998500
C -17.243400 -21.207700 -23.645100
C -17.084800 -21.246000 -20.888300
H -17.023300 -21.261200 -19.940200
H -16.581500 -21.453700 -26.766300
C -16.305800 -21.464100 -25.825600
C -16.000000 -21.321100 -23.044800
H -15.943700 -22.346800 -25.601800
C -15.938600 -21.341000 -21.657400
H -15.617400 -20.781200 -25.679400
H -15.210700 -21.384200 -23.568600
H -15.173000 -22.369500 -19.441200
H -14.886900 -20.802600 -19.291500
O -14.679300 -21.479700 -21.137200
C -14.595300 -21.631000 -19.725800
H -13.668100 -21.824000 -19.472600
70
Fragment
H -31.244800 -22.302700 -26.884600
C -30.327800 -22.040400 -26.659400
O -30.249800 -21.735000 -25.275200
H -30.075500 -21.250500 -27.182200
H -29.716000 -22.778600 -26.866100
H -29.700000 -21.648900 -22.851400
H -29.218200 -20.901600 -20.755400
H -29.017500 -22.489800 -20.799700
C -28.989000 -21.555100 -24.766700
C -28.916300 -21.560800 -23.379900
C -28.583400 -21.633300 -20.601600
H -28.294200 -21.623500 -19.664800
H -27.930800 -21.392200 -26.490900
C -27.857200 -21.408700 -25.544700
C -27.669000 -21.434500 -22.786400
O -27.457600 -21.467800 -21.445000
C -26.598500 -21.284100 -24.939000
C -26.518500 -21.297600 -23.557900
H -25.673200 -21.213100 -23.132400
H -25.555200 -21.189000 -26.736700
C -25.414000 -21.207300 -25.797700
C -24.151900 -21.160800 -25.364300
H -24.033900 -21.087400 -24.424400
H -23.724900 -21.745200 -27.965900
C -22.931800 -21.208700 -26.166300
C -22.908500 -21.559900 -27.518600
H -21.722700 -21.893600 -29.134000
C -21.716800 -21.642500 -28.216900
C -21.706900 -20.913700 -25.559700
H -21.693300 -20.662300 -24.644300
C -20.517600 -20.977600 -26.257200
C -20.515300 -21.361300 -27.584700
H -19.701500 -20.758500 -25.825500
H -19.453700 -21.675600 -29.128500
O -19.311000 -21.464400 -28.204700
O -25.589100 -21.628200 -18.218700
H -25.411500 -21.785300 -17.302600
H -25.260900 -21.079400 -20.653700
C -24.428900 -21.162400 -20.201800
C -24.402500 -21.430100 -18.849700
H -23.281200 -20.841400 -21.831100
C -23.246900 -21.014300 -20.897500
C -23.181200 -21.513100 -18.195000
H -23.156800 -21.681000 -17.260100
C -22.000800 -21.353000 -18.895200
C -22.000600 -21.110100 -20.271500
H -21.173700 -21.409600 -18.432000
H -20.911400 -20.862800 -22.006700
C -20.788300 -21.006500 -21.076400
C -19.523900 -21.091000 -20.653900
H -19.384800 -21.131500 -19.714700
H -19.247500 -21.036600 -23.326500
C -18.406000 -21.111700 -22.893000
C -18.335700 -21.126700 -21.504700
O -17.429100 -21.189800 -24.998500
C -17.243400 -21.207700 -23.645100
C -17.084800 -21.246000 -20.888300
H -17.023300 -21.261200 -19.940200
H -16.581500 -21.453700 -26.766300
C -16.305800 -21.464100 -25.825600
C -16.000000 -21.321100 -23.044800
H -15.943700 -22.346800 -25.601800
C -15.938600 -21.341000 -21.657400
H -15.617400 -20.781200 -25.679400
H -15.210700 -21.384200 -23.568600
H -15.173000 -22.369500 -19.441200
H -14.886900 -20.802600 -19.291500
O -14.679300 -21.479700 -21.137200
C -14.595300 -21.631000 -19.725800
H -13.668100 -21.824000 -19.472600
