35
Fragment
H -31.244800 -22.302700 -26.884600
C -30.327800 -22.040400 -26.659400
O -30.249800 -21.735000 -25.275200
H -30.075500 -21.250500 -27.182200
H -29.716000 -22.778600 -26.866100
H -29.700000 -21.648900 -22.851400
H -29.218200 -20.901600 -20.755400
H -29.017500 -22.489800 -20.799700
C -28.989000 -21.555100 -24.766700
C -28.916300 -21.560800 -23.379900
C -28.583400 -21.633300 -20.601600
H -28.294200 -21.623500 -19.664800
H -27.930800 -21.392200 -26.490900
C -27.857200 -21.408700 -25.544700
C -27.669000 -21.434500 -22.786400
O -27.457600 -21.467800 -21.445000
C -26.598500 -21.284100 -24.939000
C -26.518500 -21.297600 -23.557900
H -25.673200 -21.213100 -23.132400
H -25.555200 -21.189000 -26.736700
C -25.414000 -21.207300 -25.797700
C -24.151900 -21.160800 -25.364300
H -24.033900 -21.087400 -24.424400
H -23.724900 -21.745200 -27.965900
C -22.931800 -21.208700 -26.166300
C -22.908500 -21.559900 -27.518600
H -21.722700 -21.893600 -29.134000
C -21.716800 -21.642500 -28.216900
C -21.706900 -20.913700 -25.559700
H -21.693300 -20.662300 -24.644300
C -20.517600 -20.977600 -26.257200
C -20.515300 -21.361300 -27.584700
H -19.701500 -20.758500 -25.825500
H -19.453700 -21.675600 -29.128500
O -19.311000 -21.464400 -28.204700
35
Fragment
O -32.454500 -18.643500 -27.246500
H -32.311800 -18.432300 -26.322700
H -32.064100 -19.349400 -29.625700
C -31.250300 -18.746600 -27.866400
C -31.247900 -19.130300 -29.193900
H -30.072200 -19.445600 -30.806800
C -30.058700 -19.194200 -29.891500
C -30.048700 -18.465400 -27.234300
H -30.042800 -18.214300 -26.317100
C -28.857000 -18.548000 -27.932600
C -28.833700 -18.899200 -29.284900
H -28.040700 -18.362700 -27.485300
H -27.731600 -19.020500 -31.026800
C -27.613600 -18.947100 -30.086900
C -26.351500 -18.900600 -29.653400
H -26.210400 -18.918900 -28.714500
H -26.092300 -18.894800 -32.318800
C -25.247100 -18.810300 -31.893300
C -25.167000 -18.823800 -30.512200
O -24.307900 -18.640100 -34.006200
C -24.096500 -18.673400 -32.664800
C -23.908300 -18.699200 -29.906500
H -23.834700 -18.715700 -28.960300
H -23.471400 -18.484400 -35.786300
C -23.182200 -18.474600 -34.849600
C -22.849200 -18.547100 -32.071300
C -22.776500 -18.552800 -30.684500
H -22.748000 -17.618100 -34.651400
H -22.547400 -19.206300 -34.695800
H -22.065600 -18.459000 -32.599700
H -22.049500 -17.329300 -28.585100
H -21.690100 -18.857400 -28.269000
O -21.515700 -18.372900 -30.176000
C -21.437800 -18.067500 -28.791700
H -20.520800 -17.805200 -28.566600
70
Fragment
H -31.244800 -22.302700 -26.884600
C -30.327800 -22.040400 -26.659400
O -30.249800 -21.735000 -25.275200
H -30.075500 -21.250500 -27.182200
H -29.716000 -22.778600 -26.866100
H -29.700000 -21.648900 -22.851400
H -29.218200 -20.901600 -20.755400
H -29.017500 -22.489800 -20.799700
C -28.989000 -21.555100 -24.766700
C -28.916300 -21.560800 -23.379900
C -28.583400 -21.633300 -20.601600
H -28.294200 -21.623500 -19.664800
H -27.930800 -21.392200 -26.490900
C -27.857200 -21.408700 -25.544700
C -27.669000 -21.434500 -22.786400
O -27.457600 -21.467800 -21.445000
C -26.598500 -21.284100 -24.939000
C -26.518500 -21.297600 -23.557900
H -25.673200 -21.213100 -23.132400
H -25.555200 -21.189000 -26.736700
C -25.414000 -21.207300 -25.797700
C -24.151900 -21.160800 -25.364300
H -24.033900 -21.087400 -24.424400
H -23.724900 -21.745200 -27.965900
C -22.931800 -21.208700 -26.166300
C -22.908500 -21.559900 -27.518600
H -21.722700 -21.893600 -29.134000
C -21.716800 -21.642500 -28.216900
C -21.706900 -20.913700 -25.559700
H -21.693300 -20.662300 -24.644300
C -20.517600 -20.977600 -26.257200
C -20.515300 -21.361300 -27.584700
H -19.701500 -20.758500 -25.825500
H -19.453700 -21.675600 -29.128500
O -19.311000 -21.464400 -28.204700
O -32.454500 -18.643500 -27.246500
H -32.311800 -18.432300 -26.322700
H -32.064100 -19.349400 -29.625700
C -31.250300 -18.746600 -27.866400
C -31.247900 -19.130300 -29.193900
H -30.072200 -19.445600 -30.806800
C -30.058700 -19.194200 -29.891500
C -30.048700 -18.465400 -27.234300
H -30.042800 -18.214300 -26.317100
C -28.857000 -18.548000 -27.932600
C -28.833700 -18.899200 -29.284900
H -28.040700 -18.362700 -27.485300
H -27.731600 -19.020500 -31.026800
C -27.613600 -18.947100 -30.086900
C -26.351500 -18.900600 -29.653400
H -26.210400 -18.918900 -28.714500
H -26.092300 -18.894800 -32.318800
C -25.247100 -18.810300 -31.893300
C -25.167000 -18.823800 -30.512200
O -24.307900 -18.640100 -34.006200
C -24.096500 -18.673400 -32.664800
C -23.908300 -18.699200 -29.906500
H -23.834700 -18.715700 -28.960300
H -23.471400 -18.484400 -35.786300
C -23.182200 -18.474600 -34.849600
C -22.849200 -18.547100 -32.071300
C -22.776500 -18.552800 -30.684500
H -22.748000 -17.618100 -34.651400
H -22.547400 -19.206300 -34.695800
H -22.065600 -18.459000 -32.599700
H -22.049500 -17.329300 -28.585100
H -21.690100 -18.857400 -28.269000
O -21.515700 -18.372900 -30.176000
C -21.437800 -18.067500 -28.791700
H -20.520800 -17.805200 -28.566600
