41
Fragment
H -5.893600 -14.274700 -24.293200
H -5.261200 -15.522300 -25.070000
H -5.256700 -15.489600 -23.470300
C -5.180200 -14.945900 -24.281400
H -4.398200 -12.788700 -25.647700
O -4.114500 -15.008400 -21.469800
H -3.943500 -13.189200 -19.839500
C -3.893300 -13.827800 -21.724800
N -3.826900 -12.881500 -20.717200
C -3.822200 -14.247300 -24.299300
H -3.761400 -14.073900 -26.358600
C -3.687100 -13.461000 -25.596900
C -3.685400 -13.314600 -23.094800
N -3.518700 -10.302000 -17.649400
C -3.470900 -11.593200 -20.990700
C -3.436100 -10.379700 -18.801400
N -3.363000 -12.083800 -23.355700
C -3.302800 -10.456600 -20.197500
N -3.217600 -11.253300 -22.287800
C -2.935600 -9.391700 -21.090300
C -2.884800 -9.899400 -22.384600
H -2.814400 -13.015900 -25.620000
H -2.775500 -15.789500 -23.380600
H -2.762800 -15.901400 -24.976400
C -2.695500 -15.285500 -24.217300
N -2.691100 -8.083400 -20.778200
H -2.580300 -10.430200 -25.047600
C -2.520400 -9.096600 -23.480800
C -2.401200 -9.524100 -24.825700
C -2.371900 -7.284100 -21.783900
H -2.268200 -5.741400 -20.521300
C -2.257300 -7.725900 -23.171600
N -2.124100 -5.978800 -21.472000
C -2.033400 -8.654300 -25.803500
H -1.986900 -5.355500 -22.103900
H -1.947400 -8.960700 -26.698800
C -1.890400 -6.865700 -24.206200
H -1.828200 -14.829500 -24.241800
C -1.779200 -7.306100 -25.501600
H -1.712600 -5.953600 -24.009700
H -1.531700 -6.701400 -26.191100
41
Fragment
H -4.406100 -25.163600 -24.293200
H -3.773700 -26.411100 -25.070000
H -3.769200 -26.378500 -23.470300
C -3.692700 -25.834800 -24.281400
H -2.910700 -23.677600 -25.647700
O -2.626900 -25.897300 -21.469800
H -2.456000 -24.078000 -19.839500
C -2.405800 -24.716700 -21.724800
N -2.339400 -23.770400 -20.717200
C -2.334700 -25.136200 -24.299300
H -2.273900 -24.962700 -26.358600
C -2.199600 -24.349900 -25.596900
C -2.197900 -24.203500 -23.094800
N -2.031200 -21.190900 -17.649400
C -1.983400 -22.482000 -20.990700
C -1.948600 -21.268500 -18.801400
N -1.875500 -22.972600 -23.355700
C -1.815300 -21.345500 -20.197500
N -1.730100 -22.142200 -22.287800
C -1.448100 -20.280500 -21.090300
C -1.397200 -20.788300 -22.384600
H -1.326800 -23.904800 -25.620000
H -1.288000 -26.678300 -23.380600
H -1.275300 -26.790300 -24.976400
C -1.208000 -26.174300 -24.217300
N -1.203500 -18.972300 -20.778200
H -1.092800 -21.319100 -25.047600
C -1.032900 -19.985400 -23.480800
C -0.913600 -20.413000 -24.825700
C -0.884300 -18.173000 -21.783900
H -0.780700 -16.630300 -20.521300
C -0.769800 -18.614700 -23.171600
N -0.636600 -16.867700 -21.472000
C -0.545900 -19.543100 -25.803500
H -0.499400 -16.244300 -22.103900
H -0.459900 -19.849600 -26.698800
C -0.402900 -17.754600 -24.206200
H -0.340600 -25.718400 -24.241800
C -0.291700 -18.195000 -25.501600
H -0.225100 -16.842400 -24.009700
H -0.044200 -17.590300 -26.191100
82
Fragment
H -5.893600 -14.274700 -24.293200
H -5.261200 -15.522300 -25.070000
H -5.256700 -15.489600 -23.470300
C -5.180200 -14.945900 -24.281400
H -4.398200 -12.788700 -25.647700
O -4.114500 -15.008400 -21.469800
H -3.943500 -13.189200 -19.839500
C -3.893300 -13.827800 -21.724800
N -3.826900 -12.881500 -20.717200
C -3.822200 -14.247300 -24.299300
H -3.761400 -14.073900 -26.358600
C -3.687100 -13.461000 -25.596900
C -3.685400 -13.314600 -23.094800
N -3.518700 -10.302000 -17.649400
C -3.470900 -11.593200 -20.990700
C -3.436100 -10.379700 -18.801400
N -3.363000 -12.083800 -23.355700
C -3.302800 -10.456600 -20.197500
N -3.217600 -11.253300 -22.287800
C -2.935600 -9.391700 -21.090300
C -2.884800 -9.899400 -22.384600
H -2.814400 -13.015900 -25.620000
H -2.775500 -15.789500 -23.380600
H -2.762800 -15.901400 -24.976400
C -2.695500 -15.285500 -24.217300
N -2.691100 -8.083400 -20.778200
H -2.580300 -10.430200 -25.047600
C -2.520400 -9.096600 -23.480800
C -2.401200 -9.524100 -24.825700
C -2.371900 -7.284100 -21.783900
H -2.268200 -5.741400 -20.521300
C -2.257300 -7.725900 -23.171600
N -2.124100 -5.978800 -21.472000
C -2.033400 -8.654300 -25.803500
H -1.986900 -5.355500 -22.103900
H -1.947400 -8.960700 -26.698800
C -1.890400 -6.865700 -24.206200
H -1.828200 -14.829500 -24.241800
C -1.779200 -7.306100 -25.501600
H -1.712600 -5.953600 -24.009700
H -1.531700 -6.701400 -26.191100
H -4.406100 -25.163600 -24.293200
H -3.773700 -26.411100 -25.070000
H -3.769200 -26.378500 -23.470300
C -3.692700 -25.834800 -24.281400
H -2.910700 -23.677600 -25.647700
O -2.626900 -25.897300 -21.469800
H -2.456000 -24.078000 -19.839500
C -2.405800 -24.716700 -21.724800
N -2.339400 -23.770400 -20.717200
C -2.334700 -25.136200 -24.299300
H -2.273900 -24.962700 -26.358600
C -2.199600 -24.349900 -25.596900
C -2.197900 -24.203500 -23.094800
N -2.031200 -21.190900 -17.649400
C -1.983400 -22.482000 -20.990700
C -1.948600 -21.268500 -18.801400
N -1.875500 -22.972600 -23.355700
C -1.815300 -21.345500 -20.197500
N -1.730100 -22.142200 -22.287800
C -1.448100 -20.280500 -21.090300
C -1.397200 -20.788300 -22.384600
H -1.326800 -23.904800 -25.620000
H -1.288000 -26.678300 -23.380600
H -1.275300 -26.790300 -24.976400
C -1.208000 -26.174300 -24.217300
N -1.203500 -18.972300 -20.778200
H -1.092800 -21.319100 -25.047600
C -1.032900 -19.985400 -23.480800
C -0.913600 -20.413000 -24.825700
C -0.884300 -18.173000 -21.783900
H -0.780700 -16.630300 -20.521300
C -0.769800 -18.614700 -23.171600
N -0.636600 -16.867700 -21.472000
C -0.545900 -19.543100 -25.803500
H -0.499400 -16.244300 -22.103900
H -0.459900 -19.849600 -26.698800
C -0.402900 -17.754600 -24.206200
H -0.340600 -25.718400 -24.241800
C -0.291700 -18.195000 -25.501600
H -0.225100 -16.842400 -24.009700
H -0.044200 -17.590300 -26.191100
