41
Fragment
H -5.893600 -14.274700 -24.293200
H -5.261200 -15.522300 -25.070000
H -5.256700 -15.489600 -23.470300
C -5.180200 -14.945900 -24.281400
H -4.398200 -12.788700 -25.647700
O -4.114500 -15.008400 -21.469800
H -3.943500 -13.189200 -19.839500
C -3.893300 -13.827800 -21.724800
N -3.826900 -12.881500 -20.717200
C -3.822200 -14.247300 -24.299300
H -3.761400 -14.073900 -26.358600
C -3.687100 -13.461000 -25.596900
C -3.685400 -13.314600 -23.094800
N -3.518700 -10.302000 -17.649400
C -3.470900 -11.593200 -20.990700
C -3.436100 -10.379700 -18.801400
N -3.363000 -12.083800 -23.355700
C -3.302800 -10.456600 -20.197500
N -3.217600 -11.253300 -22.287800
C -2.935600 -9.391700 -21.090300
C -2.884800 -9.899400 -22.384600
H -2.814400 -13.015900 -25.620000
H -2.775500 -15.789500 -23.380600
H -2.762800 -15.901400 -24.976400
C -2.695500 -15.285500 -24.217300
N -2.691100 -8.083400 -20.778200
H -2.580300 -10.430200 -25.047600
C -2.520400 -9.096600 -23.480800
C -2.401200 -9.524100 -24.825700
C -2.371900 -7.284100 -21.783900
H -2.268200 -5.741400 -20.521300
C -2.257300 -7.725900 -23.171600
N -2.124100 -5.978800 -21.472000
C -2.033400 -8.654300 -25.803500
H -1.986900 -5.355500 -22.103900
H -1.947400 -8.960700 -26.698800
C -1.890400 -6.865700 -24.206200
H -1.828200 -14.829500 -24.241800
C -1.779200 -7.306100 -25.501600
H -1.712600 -5.953600 -24.009700
H -1.531700 -6.701400 -26.191100
41
Fragment
H -7.582500 -14.188300 -26.563000
H -7.401600 -14.936100 -28.744400
C -7.335000 -13.583600 -27.252500
H -7.286100 -6.060200 -28.512200
C -7.223800 -14.023900 -28.547900
H -7.166800 -11.929000 -26.055200
H -7.127300 -15.534200 -30.650100
C -7.080800 -12.235400 -26.950600
N -6.990100 -14.910900 -31.282100
C -6.856900 -13.163800 -29.582500
H -6.846000 -15.148300 -32.232700
C -6.742300 -13.605600 -30.970200
C -6.713100 -11.365500 -27.928400
C -6.593800 -11.793100 -29.273200
H -6.533900 -10.459500 -27.706400
N -6.423200 -12.806300 -31.975800
C -6.418700 -5.604200 -28.536800
H -6.351400 -4.988300 -27.777600
H -6.338700 -5.100200 -29.373500
H -6.299900 -7.873800 -27.134000
C -6.229500 -10.990200 -30.369500
C -6.178600 -11.498000 -31.663800
N -5.896600 -9.636400 -30.466300
C -5.811400 -10.433100 -32.556500
N -5.751200 -8.805900 -29.398400
C -5.678100 -10.510000 -33.952600
C -5.643300 -9.296500 -31.763300
N -5.595500 -10.587700 -35.104700
C -5.428800 -7.575100 -29.659200
C -5.427100 -7.428700 -27.157100
H -5.352800 -6.815800 -26.395500
C -5.292000 -6.642400 -28.454700
N -5.287300 -8.008200 -32.036900
C -5.220900 -7.061900 -31.029300
H -5.170700 -7.700500 -32.914600
O -4.999800 -5.881300 -31.284200
H -4.716000 -8.101000 -27.106300
C -3.934000 -5.943800 -28.472700
H -3.857500 -5.400100 -29.283800
H -3.853000 -5.367400 -27.684000
H -3.220600 -6.615000 -28.460800
82
Fragment
H -5.893600 -14.274700 -24.293200
H -5.261200 -15.522300 -25.070000
H -5.256700 -15.489600 -23.470300
C -5.180200 -14.945900 -24.281400
H -4.398200 -12.788700 -25.647700
O -4.114500 -15.008400 -21.469800
H -3.943500 -13.189200 -19.839500
C -3.893300 -13.827800 -21.724800
N -3.826900 -12.881500 -20.717200
C -3.822200 -14.247300 -24.299300
H -3.761400 -14.073900 -26.358600
C -3.687100 -13.461000 -25.596900
C -3.685400 -13.314600 -23.094800
N -3.518700 -10.302000 -17.649400
C -3.470900 -11.593200 -20.990700
C -3.436100 -10.379700 -18.801400
N -3.363000 -12.083800 -23.355700
C -3.302800 -10.456600 -20.197500
N -3.217600 -11.253300 -22.287800
C -2.935600 -9.391700 -21.090300
C -2.884800 -9.899400 -22.384600
H -2.814400 -13.015900 -25.620000
H -2.775500 -15.789500 -23.380600
H -2.762800 -15.901400 -24.976400
C -2.695500 -15.285500 -24.217300
N -2.691100 -8.083400 -20.778200
H -2.580300 -10.430200 -25.047600
C -2.520400 -9.096600 -23.480800
C -2.401200 -9.524100 -24.825700
C -2.371900 -7.284100 -21.783900
H -2.268200 -5.741400 -20.521300
C -2.257300 -7.725900 -23.171600
N -2.124100 -5.978800 -21.472000
C -2.033400 -8.654300 -25.803500
H -1.986900 -5.355500 -22.103900
H -1.947400 -8.960700 -26.698800
C -1.890400 -6.865700 -24.206200
H -1.828200 -14.829500 -24.241800
C -1.779200 -7.306100 -25.501600
H -1.712600 -5.953600 -24.009700
H -1.531700 -6.701400 -26.191100
H -7.582500 -14.188300 -26.563000
H -7.401600 -14.936100 -28.744400
C -7.335000 -13.583600 -27.252500
H -7.286100 -6.060200 -28.512200
C -7.223800 -14.023900 -28.547900
H -7.166800 -11.929000 -26.055200
H -7.127300 -15.534200 -30.650100
C -7.080800 -12.235400 -26.950600
N -6.990100 -14.910900 -31.282100
C -6.856900 -13.163800 -29.582500
H -6.846000 -15.148300 -32.232700
C -6.742300 -13.605600 -30.970200
C -6.713100 -11.365500 -27.928400
C -6.593800 -11.793100 -29.273200
H -6.533900 -10.459500 -27.706400
N -6.423200 -12.806300 -31.975800
C -6.418700 -5.604200 -28.536800
H -6.351400 -4.988300 -27.777600
H -6.338700 -5.100200 -29.373500
H -6.299900 -7.873800 -27.134000
C -6.229500 -10.990200 -30.369500
C -6.178600 -11.498000 -31.663800
N -5.896600 -9.636400 -30.466300
C -5.811400 -10.433100 -32.556500
N -5.751200 -8.805900 -29.398400
C -5.678100 -10.510000 -33.952600
C -5.643300 -9.296500 -31.763300
N -5.595500 -10.587700 -35.104700
C -5.428800 -7.575100 -29.659200
C -5.427100 -7.428700 -27.157100
H -5.352800 -6.815800 -26.395500
C -5.292000 -6.642400 -28.454700
N -5.287300 -8.008200 -32.036900
C -5.220900 -7.061900 -31.029300
H -5.170700 -7.700500 -32.914600
O -4.999800 -5.881300 -31.284200
H -4.716000 -8.101000 -27.106300
C -3.934000 -5.943800 -28.472700
H -3.857500 -5.400100 -29.283800
H -3.853000 -5.367400 -27.684000
H -3.220600 -6.615000 -28.460800
