35
Fragment
H -31.244800 -22.302700 -26.884600
C -30.327800 -22.040400 -26.659400
O -30.249800 -21.735000 -25.275200
H -30.075500 -21.250500 -27.182200
H -29.716000 -22.778600 -26.866100
H -29.700000 -21.648900 -22.851400
H -29.218200 -20.901600 -20.755400
H -29.017500 -22.489800 -20.799700
C -28.989000 -21.555100 -24.766700
C -28.916300 -21.560800 -23.379900
C -28.583400 -21.633300 -20.601600
H -28.294200 -21.623500 -19.664800
H -27.930800 -21.392200 -26.490900
C -27.857200 -21.408700 -25.544700
C -27.669000 -21.434500 -22.786400
O -27.457600 -21.467800 -21.445000
C -26.598500 -21.284100 -24.939000
C -26.518500 -21.297600 -23.557900
H -25.673200 -21.213100 -23.132400
H -25.555200 -21.189000 -26.736700
C -25.414000 -21.207300 -25.797700
C -24.151900 -21.160800 -25.364300
H -24.033900 -21.087400 -24.424400
H -23.724900 -21.745200 -27.965900
C -22.931800 -21.208700 -26.166300
C -22.908500 -21.559900 -27.518600
H -21.722700 -21.893600 -29.134000
C -21.716800 -21.642500 -28.216900
C -21.706900 -20.913700 -25.559700
H -21.693300 -20.662300 -24.644300
C -20.517600 -20.977600 -26.257200
C -20.515300 -21.361300 -27.584700
H -19.701500 -20.758500 -25.825500
H -19.453700 -21.675600 -29.128500
O -19.311000 -21.464400 -28.204700
24
Fragment
H -20.009100 -17.488400 -24.272800
C -19.176700 -17.595200 -23.828300
N -19.064800 -17.596900 -22.503700
H -18.755200 -17.517800 -20.029000
H -18.693800 -17.640800 -26.370700
N -18.018900 -17.756400 -24.488700
H -17.875200 -18.741100 -19.491100
C -17.842900 -17.835800 -19.864800
C -17.840500 -17.826200 -25.926200
C -17.735900 -17.778200 -22.320600
H -17.530500 -18.722400 -26.172900
H -17.396800 -17.235700 -19.230500
H -17.176700 -17.162200 -26.206200
N -17.099100 -17.854400 -21.123200
C -17.054800 -17.876800 -23.510000
C -15.748100 -18.064300 -21.083500
C -15.653100 -18.064500 -23.571400
O -15.159800 -18.185600 -20.023400
N -15.079000 -18.139700 -22.307600
O -14.944800 -18.162900 -24.580000
C -13.636000 -18.372100 -22.235400
H -13.441700 -19.000400 -21.507700
H -13.321900 -18.749100 -23.084300
H -13.175700 -17.523100 -22.065900
59
Fragment
H -31.244800 -22.302700 -26.884600
C -30.327800 -22.040400 -26.659400
O -30.249800 -21.735000 -25.275200
H -30.075500 -21.250500 -27.182200
H -29.716000 -22.778600 -26.866100
H -29.700000 -21.648900 -22.851400
H -29.218200 -20.901600 -20.755400
H -29.017500 -22.489800 -20.799700
C -28.989000 -21.555100 -24.766700
C -28.916300 -21.560800 -23.379900
C -28.583400 -21.633300 -20.601600
H -28.294200 -21.623500 -19.664800
H -27.930800 -21.392200 -26.490900
C -27.857200 -21.408700 -25.544700
C -27.669000 -21.434500 -22.786400
O -27.457600 -21.467800 -21.445000
C -26.598500 -21.284100 -24.939000
C -26.518500 -21.297600 -23.557900
H -25.673200 -21.213100 -23.132400
H -25.555200 -21.189000 -26.736700
C -25.414000 -21.207300 -25.797700
C -24.151900 -21.160800 -25.364300
H -24.033900 -21.087400 -24.424400
H -23.724900 -21.745200 -27.965900
C -22.931800 -21.208700 -26.166300
C -22.908500 -21.559900 -27.518600
H -21.722700 -21.893600 -29.134000
C -21.716800 -21.642500 -28.216900
C -21.706900 -20.913700 -25.559700
H -21.693300 -20.662300 -24.644300
C -20.517600 -20.977600 -26.257200
C -20.515300 -21.361300 -27.584700
H -19.701500 -20.758500 -25.825500
H -19.453700 -21.675600 -29.128500
O -19.311000 -21.464400 -28.204700
H -20.009100 -17.488400 -24.272800
C -19.176700 -17.595200 -23.828300
N -19.064800 -17.596900 -22.503700
H -18.755200 -17.517800 -20.029000
H -18.693800 -17.640800 -26.370700
N -18.018900 -17.756400 -24.488700
H -17.875200 -18.741100 -19.491100
C -17.842900 -17.835800 -19.864800
C -17.840500 -17.826200 -25.926200
C -17.735900 -17.778200 -22.320600
H -17.530500 -18.722400 -26.172900
H -17.396800 -17.235700 -19.230500
H -17.176700 -17.162200 -26.206200
N -17.099100 -17.854400 -21.123200
C -17.054800 -17.876800 -23.510000
C -15.748100 -18.064300 -21.083500
C -15.653100 -18.064500 -23.571400
O -15.159800 -18.185600 -20.023400
N -15.079000 -18.139700 -22.307600
O -14.944800 -18.162900 -24.580000
C -13.636000 -18.372100 -22.235400
H -13.441700 -19.000400 -21.507700
H -13.321900 -18.749100 -23.084300
H -13.175700 -17.523100 -22.065900
