35
Fragment
H -31.244800 -22.302700 -26.884600
C -30.327800 -22.040400 -26.659400
O -30.249800 -21.735000 -25.275200
H -30.075500 -21.250500 -27.182200
H -29.716000 -22.778600 -26.866100
H -29.700000 -21.648900 -22.851400
H -29.218200 -20.901600 -20.755400
H -29.017500 -22.489800 -20.799700
C -28.989000 -21.555100 -24.766700
C -28.916300 -21.560800 -23.379900
C -28.583400 -21.633300 -20.601600
H -28.294200 -21.623500 -19.664800
H -27.930800 -21.392200 -26.490900
C -27.857200 -21.408700 -25.544700
C -27.669000 -21.434500 -22.786400
O -27.457600 -21.467800 -21.445000
C -26.598500 -21.284100 -24.939000
C -26.518500 -21.297600 -23.557900
H -25.673200 -21.213100 -23.132400
H -25.555200 -21.189000 -26.736700
C -25.414000 -21.207300 -25.797700
C -24.151900 -21.160800 -25.364300
H -24.033900 -21.087400 -24.424400
H -23.724900 -21.745200 -27.965900
C -22.931800 -21.208700 -26.166300
C -22.908500 -21.559900 -27.518600
H -21.722700 -21.893600 -29.134000
C -21.716800 -21.642500 -28.216900
C -21.706900 -20.913700 -25.559700
H -21.693300 -20.662300 -24.644300
C -20.517600 -20.977600 -26.257200
C -20.515300 -21.361300 -27.584700
H -19.701500 -20.758500 -25.825500
H -19.453700 -21.675600 -29.128500
O -19.311000 -21.464400 -28.204700
35
Fragment
H -38.256100 -18.283900 -17.494800
C -37.328900 -18.476900 -17.241600
O -37.244900 -18.628200 -15.830200
H -37.037300 -19.305300 -17.676000
H -36.751300 -17.738400 -17.526300
H -36.713600 -18.723700 -13.398800
H -36.306800 -19.326700 -11.288000
C -35.985700 -18.766900 -15.310100
H -35.980500 -17.761100 -11.365600
C -35.924300 -18.786800 -13.922700
C -35.618500 -18.643800 -11.141800
H -35.342700 -18.654200 -10.201200
H -34.901000 -18.846700 -17.027200
C -34.839500 -18.861900 -16.079200
C -34.680800 -18.900200 -13.322300
O -34.495200 -18.918100 -11.968900
C -33.588500 -18.981200 -15.462700
C -33.518300 -18.996200 -14.074400
H -32.676700 -19.071300 -13.641000
H -32.539500 -18.976400 -17.252700
C -32.400400 -19.016900 -16.313500
C -31.135900 -19.101400 -15.891000
H -31.012800 -19.245100 -14.960700
H -30.750500 -18.698300 -18.535500
C -29.923600 -18.997800 -16.696000
C -29.923500 -18.754900 -18.072300
H -28.767400 -18.426900 -19.707300
C -28.743100 -18.594800 -18.772400
C -28.677300 -19.093600 -16.069900
H -28.643000 -19.266500 -15.136300
C -27.521700 -18.677800 -18.117700
C -27.495400 -18.945500 -16.765700
H -26.663400 -19.028500 -16.313700
H -26.512700 -18.322600 -19.664800
O -26.335100 -18.479700 -18.748800
70
Fragment
H -31.244800 -22.302700 -26.884600
C -30.327800 -22.040400 -26.659400
O -30.249800 -21.735000 -25.275200
H -30.075500 -21.250500 -27.182200
H -29.716000 -22.778600 -26.866100
H -29.700000 -21.648900 -22.851400
H -29.218200 -20.901600 -20.755400
H -29.017500 -22.489800 -20.799700
C -28.989000 -21.555100 -24.766700
C -28.916300 -21.560800 -23.379900
C -28.583400 -21.633300 -20.601600
H -28.294200 -21.623500 -19.664800
H -27.930800 -21.392200 -26.490900
C -27.857200 -21.408700 -25.544700
C -27.669000 -21.434500 -22.786400
O -27.457600 -21.467800 -21.445000
C -26.598500 -21.284100 -24.939000
C -26.518500 -21.297600 -23.557900
H -25.673200 -21.213100 -23.132400
H -25.555200 -21.189000 -26.736700
C -25.414000 -21.207300 -25.797700
C -24.151900 -21.160800 -25.364300
H -24.033900 -21.087400 -24.424400
H -23.724900 -21.745200 -27.965900
C -22.931800 -21.208700 -26.166300
C -22.908500 -21.559900 -27.518600
H -21.722700 -21.893600 -29.134000
C -21.716800 -21.642500 -28.216900
C -21.706900 -20.913700 -25.559700
H -21.693300 -20.662300 -24.644300
C -20.517600 -20.977600 -26.257200
C -20.515300 -21.361300 -27.584700
H -19.701500 -20.758500 -25.825500
H -19.453700 -21.675600 -29.128500
O -19.311000 -21.464400 -28.204700
H -38.256100 -18.283900 -17.494800
C -37.328900 -18.476900 -17.241600
O -37.244900 -18.628200 -15.830200
H -37.037300 -19.305300 -17.676000
H -36.751300 -17.738400 -17.526300
H -36.713600 -18.723700 -13.398800
H -36.306800 -19.326700 -11.288000
C -35.985700 -18.766900 -15.310100
H -35.980500 -17.761100 -11.365600
C -35.924300 -18.786800 -13.922700
C -35.618500 -18.643800 -11.141800
H -35.342700 -18.654200 -10.201200
H -34.901000 -18.846700 -17.027200
C -34.839500 -18.861900 -16.079200
C -34.680800 -18.900200 -13.322300
O -34.495200 -18.918100 -11.968900
C -33.588500 -18.981200 -15.462700
C -33.518300 -18.996200 -14.074400
H -32.676700 -19.071300 -13.641000
H -32.539500 -18.976400 -17.252700
C -32.400400 -19.016900 -16.313500
C -31.135900 -19.101400 -15.891000
H -31.012800 -19.245100 -14.960700
H -30.750500 -18.698300 -18.535500
C -29.923600 -18.997800 -16.696000
C -29.923500 -18.754900 -18.072300
H -28.767400 -18.426900 -19.707300
C -28.743100 -18.594800 -18.772400
C -28.677300 -19.093600 -16.069900
H -28.643000 -19.266500 -15.136300
C -27.521700 -18.677800 -18.117700
C -27.495400 -18.945500 -16.765700
H -26.663400 -19.028500 -16.313700
H -26.512700 -18.322600 -19.664800
O -26.335100 -18.479700 -18.748800
