35
Fragment
H -31.244800 -22.302700 -26.884600
C -30.327800 -22.040400 -26.659400
O -30.249800 -21.735000 -25.275200
H -30.075500 -21.250500 -27.182200
H -29.716000 -22.778600 -26.866100
H -29.700000 -21.648900 -22.851400
H -29.218200 -20.901600 -20.755400
H -29.017500 -22.489800 -20.799700
C -28.989000 -21.555100 -24.766700
C -28.916300 -21.560800 -23.379900
C -28.583400 -21.633300 -20.601600
H -28.294200 -21.623500 -19.664800
H -27.930800 -21.392200 -26.490900
C -27.857200 -21.408700 -25.544700
C -27.669000 -21.434500 -22.786400
O -27.457600 -21.467800 -21.445000
C -26.598500 -21.284100 -24.939000
C -26.518500 -21.297600 -23.557900
H -25.673200 -21.213100 -23.132400
H -25.555200 -21.189000 -26.736700
C -25.414000 -21.207300 -25.797700
C -24.151900 -21.160800 -25.364300
H -24.033900 -21.087400 -24.424400
H -23.724900 -21.745200 -27.965900
C -22.931800 -21.208700 -26.166300
C -22.908500 -21.559900 -27.518600
H -21.722700 -21.893600 -29.134000
C -21.716800 -21.642500 -28.216900
C -21.706900 -20.913700 -25.559700
H -21.693300 -20.662300 -24.644300
C -20.517600 -20.977600 -26.257200
C -20.515300 -21.361300 -27.584700
H -19.701500 -20.758500 -25.825500
H -19.453700 -21.675600 -29.128500
O -19.311000 -21.464400 -28.204700
24
Fragment
H -28.219200 -17.207600 -24.134200
H -28.205500 -18.214300 -22.890200
H -28.076000 -18.782500 -24.380000
C -27.841900 -18.041200 -23.783400
O -26.506100 -17.966600 -21.428000
N -26.385600 -17.922100 -23.703500
O -26.331300 -17.852200 -25.983300
C -25.804500 -17.896900 -22.441500
C -25.723900 -17.843900 -24.934000
C -24.393700 -17.786800 -22.513200
N -24.357700 -17.760600 -24.903700
H -24.228000 -16.917500 -19.866300
H -24.038300 -17.033800 -26.751500
H -23.967400 -18.495100 -19.799800
C -23.710500 -17.731200 -23.699100
H -23.663400 -18.582000 -26.601800
C -23.628900 -17.704700 -26.166800
C -23.604800 -17.636900 -20.101400
N -23.422400 -17.668200 -21.534300
H -22.742600 -17.476300 -19.664800
H -22.695200 -17.461600 -25.995500
N -22.375100 -17.609500 -23.521300
C -22.255700 -17.573300 -22.199100
H -21.418600 -17.487000 -21.759000
59
Fragment
H -31.244800 -22.302700 -26.884600
C -30.327800 -22.040400 -26.659400
O -30.249800 -21.735000 -25.275200
H -30.075500 -21.250500 -27.182200
H -29.716000 -22.778600 -26.866100
H -29.700000 -21.648900 -22.851400
H -29.218200 -20.901600 -20.755400
H -29.017500 -22.489800 -20.799700
C -28.989000 -21.555100 -24.766700
C -28.916300 -21.560800 -23.379900
C -28.583400 -21.633300 -20.601600
H -28.294200 -21.623500 -19.664800
H -27.930800 -21.392200 -26.490900
C -27.857200 -21.408700 -25.544700
C -27.669000 -21.434500 -22.786400
O -27.457600 -21.467800 -21.445000
C -26.598500 -21.284100 -24.939000
C -26.518500 -21.297600 -23.557900
H -25.673200 -21.213100 -23.132400
H -25.555200 -21.189000 -26.736700
C -25.414000 -21.207300 -25.797700
C -24.151900 -21.160800 -25.364300
H -24.033900 -21.087400 -24.424400
H -23.724900 -21.745200 -27.965900
C -22.931800 -21.208700 -26.166300
C -22.908500 -21.559900 -27.518600
H -21.722700 -21.893600 -29.134000
C -21.716800 -21.642500 -28.216900
C -21.706900 -20.913700 -25.559700
H -21.693300 -20.662300 -24.644300
C -20.517600 -20.977600 -26.257200
C -20.515300 -21.361300 -27.584700
H -19.701500 -20.758500 -25.825500
H -19.453700 -21.675600 -29.128500
O -19.311000 -21.464400 -28.204700
H -28.219200 -17.207600 -24.134200
H -28.205500 -18.214300 -22.890200
H -28.076000 -18.782500 -24.380000
C -27.841900 -18.041200 -23.783400
O -26.506100 -17.966600 -21.428000
N -26.385600 -17.922100 -23.703500
O -26.331300 -17.852200 -25.983300
C -25.804500 -17.896900 -22.441500
C -25.723900 -17.843900 -24.934000
C -24.393700 -17.786800 -22.513200
N -24.357700 -17.760600 -24.903700
H -24.228000 -16.917500 -19.866300
H -24.038300 -17.033800 -26.751500
H -23.967400 -18.495100 -19.799800
C -23.710500 -17.731200 -23.699100
H -23.663400 -18.582000 -26.601800
C -23.628900 -17.704700 -26.166800
C -23.604800 -17.636900 -20.101400
N -23.422400 -17.668200 -21.534300
H -22.742600 -17.476300 -19.664800
H -22.695200 -17.461600 -25.995500
N -22.375100 -17.609500 -23.521300
C -22.255700 -17.573300 -22.199100
H -21.418600 -17.487000 -21.759000
