19
Fragment
H -10.421100 -7.319000 -34.868900
H -10.241500 -7.703000 -36.296400
N -9.956000 -7.696200 -35.485500
C -8.812300 -8.261300 -35.189600
N -8.217000 -8.350800 -34.012200
O -8.098300 -8.850500 -36.180100
C -7.086800 -9.039900 -34.320200
N -6.912500 -9.387100 -35.569300
N -6.393100 -9.106000 -32.008000
C -6.138000 -9.399100 -33.252000
N -5.299200 -9.596000 -31.327800
H -5.196000 -9.531400 -30.477500
N -4.942200 -10.058200 -33.399600
H -4.595200 -10.337000 -34.135200
C -4.413200 -10.184500 -32.142900
O -3.342300 -10.350500 -29.756900
N -3.245400 -10.818000 -31.976800
N -2.777400 -10.887100 -30.726800
O -1.711800 -11.522900 -30.602700
19
Fragment
O -10.740600 -11.022400 -36.102300
N -9.675000 -11.658200 -35.978200
N -9.207000 -11.727300 -34.728200
O -9.110100 -12.194800 -36.948100
C -8.039200 -12.360800 -34.562100
H -7.857200 -12.208300 -32.569800
N -7.510200 -12.487100 -33.305400
H -7.256400 -13.013900 -36.227500
N -7.153200 -12.949300 -35.377200
C -6.314400 -13.146200 -33.453000
N -6.059300 -13.439300 -34.697100
N -5.539900 -13.158200 -31.135700
C -5.365500 -13.505400 -32.384800
O -4.354100 -13.694800 -30.524900
N -4.235400 -14.194500 -32.692800
C -3.640100 -14.284000 -31.515400
N -2.496400 -14.849100 -31.219500
H -2.210900 -14.842300 -30.408600
H -2.031300 -15.226300 -31.836100
38
Fragment
H -10.421100 -7.319000 -34.868900
H -10.241500 -7.703000 -36.296400
N -9.956000 -7.696200 -35.485500
C -8.812300 -8.261300 -35.189600
N -8.217000 -8.350800 -34.012200
O -8.098300 -8.850500 -36.180100
C -7.086800 -9.039900 -34.320200
N -6.912500 -9.387100 -35.569300
N -6.393100 -9.106000 -32.008000
C -6.138000 -9.399100 -33.252000
N -5.299200 -9.596000 -31.327800
H -5.196000 -9.531400 -30.477500
N -4.942200 -10.058200 -33.399600
H -4.595200 -10.337000 -34.135200
C -4.413200 -10.184500 -32.142900
O -3.342300 -10.350500 -29.756900
N -3.245400 -10.818000 -31.976800
N -2.777400 -10.887100 -30.726800
O -1.711800 -11.522900 -30.602700
O -10.740600 -11.022400 -36.102300
N -9.675000 -11.658200 -35.978200
N -9.207000 -11.727300 -34.728200
O -9.110100 -12.194800 -36.948100
C -8.039200 -12.360800 -34.562100
H -7.857200 -12.208300 -32.569800
N -7.510200 -12.487100 -33.305400
H -7.256400 -13.013900 -36.227500
N -7.153200 -12.949300 -35.377200
C -6.314400 -13.146200 -33.453000
N -6.059300 -13.439300 -34.697100
N -5.539900 -13.158200 -31.135700
C -5.365500 -13.505400 -32.384800
O -4.354100 -13.694800 -30.524900
N -4.235400 -14.194500 -32.692800
C -3.640100 -14.284000 -31.515400
N -2.496400 -14.849100 -31.219500
H -2.210900 -14.842300 -30.408600
H -2.031300 -15.226300 -31.836100
