15
Fragment
H -8.449700 -11.173900 -7.081600
H -8.128300 -10.837200 -8.561200
N -7.861600 -11.039100 -7.732100
C -6.591200 -10.755300 -7.387700
N -6.212700 -11.062800 -6.135400
N -5.800900 -10.198000 -8.321600
H -4.983900 -11.601400 -4.115400
C -4.929000 -10.758900 -5.837100
C -4.554500 -9.890600 -7.898200
N -4.493800 -11.071800 -4.612400
H -4.110300 -8.930200 -9.487700
N -4.063900 -10.149600 -6.673800
N -3.733500 -9.286100 -8.778100
H -3.659300 -10.937900 -4.431400
H -3.031600 -8.899500 -8.439100
15
Fragment
H -9.217400 -8.902700 -5.925300
H -8.589600 -6.864300 -9.933000
N -8.515400 -8.516100 -5.586200
N -8.185100 -7.652600 -7.690600
H -8.138600 -8.872000 -4.876700
N -7.755100 -6.730400 -9.752000
C -7.694400 -7.911700 -6.466200
C -7.320000 -7.043300 -8.527300
H -7.265000 -6.200900 -10.249000
N -6.448000 -7.604300 -6.042700
N -6.036200 -6.739500 -8.228900
C -5.657800 -7.047000 -6.976600
N -4.387300 -6.763200 -6.632200
H -4.120700 -6.965100 -5.803200
H -3.799200 -6.628300 -7.282700
30
Fragment
H -8.449700 -11.173900 -7.081600
H -8.128300 -10.837200 -8.561200
N -7.861600 -11.039100 -7.732100
C -6.591200 -10.755300 -7.387700
N -6.212700 -11.062800 -6.135400
N -5.800900 -10.198000 -8.321600
H -4.983900 -11.601400 -4.115400
C -4.929000 -10.758900 -5.837100
C -4.554500 -9.890600 -7.898200
N -4.493800 -11.071800 -4.612400
H -4.110300 -8.930200 -9.487700
N -4.063900 -10.149600 -6.673800
N -3.733500 -9.286100 -8.778100
H -3.659300 -10.937900 -4.431400
H -3.031600 -8.899500 -8.439100
H -9.217400 -8.902700 -5.925300
H -8.589600 -6.864300 -9.933000
N -8.515400 -8.516100 -5.586200
N -8.185100 -7.652600 -7.690600
H -8.138600 -8.872000 -4.876700
N -7.755100 -6.730400 -9.752000
C -7.694400 -7.911700 -6.466200
C -7.320000 -7.043300 -8.527300
H -7.265000 -6.200900 -10.249000
N -6.448000 -7.604300 -6.042700
N -6.036200 -6.739500 -8.228900
C -5.657800 -7.047000 -6.976600
N -4.387300 -6.763200 -6.632200
H -4.120700 -6.965100 -5.803200
H -3.799200 -6.628300 -7.282700
