15
Fragment
H -8.449700 -11.173900 -7.081600
H -8.128300 -10.837200 -8.561200
N -7.861600 -11.039100 -7.732100
C -6.591200 -10.755300 -7.387700
N -6.212700 -11.062800 -6.135400
N -5.800900 -10.198000 -8.321600
H -4.983900 -11.601400 -4.115400
C -4.929000 -10.758900 -5.837100
C -4.554500 -9.890600 -7.898200
N -4.493800 -11.071800 -4.612400
H -4.110300 -8.930200 -9.487700
N -4.063900 -10.149600 -6.673800
N -3.733500 -9.286100 -8.778100
H -3.659300 -10.937900 -4.431400
H -3.031600 -8.899500 -8.439100
15
Fragment
H -15.227000 -11.173900 -7.081600
H -14.905600 -10.837200 -8.561200
N -14.638900 -11.039100 -7.732100
C -13.368500 -10.755300 -7.387700
N -12.990000 -11.062800 -6.135400
N -12.578200 -10.198000 -8.321600
H -11.761200 -11.601400 -4.115400
C -11.706300 -10.758900 -5.837100
C -11.331800 -9.890600 -7.898200
N -11.271100 -11.071800 -4.612400
H -10.887600 -8.930200 -9.487700
N -10.841200 -10.149600 -6.673800
N -10.510800 -9.286100 -8.778100
H -10.436600 -10.937900 -4.431400
H -9.808900 -8.899500 -8.439100
30
Fragment
H -8.449700 -11.173900 -7.081600
H -8.128300 -10.837200 -8.561200
N -7.861600 -11.039100 -7.732100
C -6.591200 -10.755300 -7.387700
N -6.212700 -11.062800 -6.135400
N -5.800900 -10.198000 -8.321600
H -4.983900 -11.601400 -4.115400
C -4.929000 -10.758900 -5.837100
C -4.554500 -9.890600 -7.898200
N -4.493800 -11.071800 -4.612400
H -4.110300 -8.930200 -9.487700
N -4.063900 -10.149600 -6.673800
N -3.733500 -9.286100 -8.778100
H -3.659300 -10.937900 -4.431400
H -3.031600 -8.899500 -8.439100
H -15.227000 -11.173900 -7.081600
H -14.905600 -10.837200 -8.561200
N -14.638900 -11.039100 -7.732100
C -13.368500 -10.755300 -7.387700
N -12.990000 -11.062800 -6.135400
N -12.578200 -10.198000 -8.321600
H -11.761200 -11.601400 -4.115400
C -11.706300 -10.758900 -5.837100
C -11.331800 -9.890600 -7.898200
N -11.271100 -11.071800 -4.612400
H -10.887600 -8.930200 -9.487700
N -10.841200 -10.149600 -6.673800
N -10.510800 -9.286100 -8.778100
H -10.436600 -10.937900 -4.431400
H -9.808900 -8.899500 -8.439100
