15
Fragment
H -8.870800 -12.775300 -17.182800
N -8.751700 -12.647800 -13.758700
H -8.708800 -12.713900 -19.425600
C -8.157200 -12.458900 -14.711600
C -7.999000 -12.454400 -17.139000
N -7.847200 -12.482300 -19.537000
H -7.432600 -12.099300 -20.257400
C -7.419600 -12.217800 -15.915500
C -7.291800 -12.218800 -18.311000
C -6.126300 -11.752300 -15.828100
C -5.997500 -11.756600 -18.197800
H -5.733200 -11.593900 -15.000600
H -5.502000 -11.598300 -18.968900
C -5.432600 -11.527100 -16.986900
H -4.533000 -11.200500 -16.967100
38
Fragment
O -15.017100 -11.443100 -10.535700
O -14.721800 -11.703600 -8.455400
N -14.331200 -11.380500 -9.546600
H -12.996000 -10.812600 -11.690600
C -12.953500 -10.903000 -9.681200
H -12.544500 -10.896400 -7.705400
C -12.467900 -10.661000 -10.939800
C -12.205600 -10.707900 -8.549800
O -11.313800 -10.276500 -13.406200
C -11.180400 -10.189200 -11.068000
C -10.936200 -10.222100 -8.718300
H -10.831300 -9.991200 -14.449400
C -10.610200 -9.929600 -12.406300
O -10.595700 -9.912800 -20.526500
O -10.460200 -10.471000 -6.490100
C -10.417800 -9.940500 -9.949900
O -10.210000 -9.825900 -15.705400
H -10.141200 -9.630900 -18.162600
N -10.110300 -9.970500 -7.533600
N -9.592900 -9.246600 -20.660400
H -9.562000 -9.586300 -10.031400
O -9.493200 -9.391300 -12.488500
C -9.285400 -9.276700 -18.244000
O -9.243000 -8.746200 -21.703900
O -9.107500 -9.304300 -7.667500
C -9.093000 -9.287600 -15.787600
H -8.872000 -9.226000 -13.744600
C -8.767000 -8.995000 -19.475700
C -8.522800 -9.028000 -17.126000
O -8.389400 -8.940700 -14.787700
C -7.497600 -8.509300 -19.644100
C -7.235300 -8.556100 -17.254100
H -7.158700 -8.320800 -20.488600
C -6.749700 -8.314200 -18.512700
H -6.707200 -8.404600 -16.503300
N -5.372000 -7.836700 -18.647300
O -4.981500 -7.513500 -19.738600
O -4.686100 -7.774100 -17.658300
53
Fragment
H -8.870800 -12.775300 -17.182800
N -8.751700 -12.647800 -13.758700
H -8.708800 -12.713900 -19.425600
C -8.157200 -12.458900 -14.711600
C -7.999000 -12.454400 -17.139000
N -7.847200 -12.482300 -19.537000
H -7.432600 -12.099300 -20.257400
C -7.419600 -12.217800 -15.915500
C -7.291800 -12.218800 -18.311000
C -6.126300 -11.752300 -15.828100
C -5.997500 -11.756600 -18.197800
H -5.733200 -11.593900 -15.000600
H -5.502000 -11.598300 -18.968900
C -5.432600 -11.527100 -16.986900
H -4.533000 -11.200500 -16.967100
O -15.017100 -11.443100 -10.535700
O -14.721800 -11.703600 -8.455400
N -14.331200 -11.380500 -9.546600
H -12.996000 -10.812600 -11.690600
C -12.953500 -10.903000 -9.681200
H -12.544500 -10.896400 -7.705400
C -12.467900 -10.661000 -10.939800
C -12.205600 -10.707900 -8.549800
O -11.313800 -10.276500 -13.406200
C -11.180400 -10.189200 -11.068000
C -10.936200 -10.222100 -8.718300
H -10.831300 -9.991200 -14.449400
C -10.610200 -9.929600 -12.406300
O -10.595700 -9.912800 -20.526500
O -10.460200 -10.471000 -6.490100
C -10.417800 -9.940500 -9.949900
O -10.210000 -9.825900 -15.705400
H -10.141200 -9.630900 -18.162600
N -10.110300 -9.970500 -7.533600
N -9.592900 -9.246600 -20.660400
H -9.562000 -9.586300 -10.031400
O -9.493200 -9.391300 -12.488500
C -9.285400 -9.276700 -18.244000
O -9.243000 -8.746200 -21.703900
O -9.107500 -9.304300 -7.667500
C -9.093000 -9.287600 -15.787600
H -8.872000 -9.226000 -13.744600
C -8.767000 -8.995000 -19.475700
C -8.522800 -9.028000 -17.126000
O -8.389400 -8.940700 -14.787700
C -7.497600 -8.509300 -19.644100
C -7.235300 -8.556100 -17.254100
H -7.158700 -8.320800 -20.488600
C -6.749700 -8.314200 -18.512700
H -6.707200 -8.404600 -16.503300
N -5.372000 -7.836700 -18.647300
O -4.981500 -7.513500 -19.738600
O -4.686100 -7.774100 -17.658300
