15
Fragment
H -8.870800 -12.775300 -17.182800
N -8.751700 -12.647800 -13.758700
H -8.708800 -12.713900 -19.425600
C -8.157200 -12.458900 -14.711600
C -7.999000 -12.454400 -17.139000
N -7.847200 -12.482300 -19.537000
H -7.432600 -12.099300 -20.257400
C -7.419600 -12.217800 -15.915500
C -7.291800 -12.218800 -18.311000
C -6.126300 -11.752300 -15.828100
C -5.997500 -11.756600 -18.197800
H -5.733200 -11.593900 -15.000600
H -5.502000 -11.598300 -18.968900
C -5.432600 -11.527100 -16.986900
H -4.533000 -11.200500 -16.967100
15
Fragment
H -6.929000 -10.320800 -25.507100
N -6.721300 -10.830500 -22.075900
C -6.186100 -10.460200 -23.013300
C -6.046300 -10.047600 -25.407000
H -5.704600 -9.648500 -27.329800
C -5.449900 -10.025200 -24.167300
C -5.310000 -9.655700 -26.488200
C -4.139600 -9.627000 -24.017000
C -4.003000 -9.272300 -26.357000
H -3.753500 -9.621200 -23.171200
H -3.516900 -9.033600 -27.112700
C -3.393500 -9.234800 -25.114800
N -2.091800 -8.847200 -24.974200
H -1.771100 -8.787000 -24.190400
H -1.649800 -8.557800 -25.712900
30
Fragment
H -8.870800 -12.775300 -17.182800
N -8.751700 -12.647800 -13.758700
H -8.708800 -12.713900 -19.425600
C -8.157200 -12.458900 -14.711600
C -7.999000 -12.454400 -17.139000
N -7.847200 -12.482300 -19.537000
H -7.432600 -12.099300 -20.257400
C -7.419600 -12.217800 -15.915500
C -7.291800 -12.218800 -18.311000
C -6.126300 -11.752300 -15.828100
C -5.997500 -11.756600 -18.197800
H -5.733200 -11.593900 -15.000600
H -5.502000 -11.598300 -18.968900
C -5.432600 -11.527100 -16.986900
H -4.533000 -11.200500 -16.967100
H -6.929000 -10.320800 -25.507100
N -6.721300 -10.830500 -22.075900
C -6.186100 -10.460200 -23.013300
C -6.046300 -10.047600 -25.407000
H -5.704600 -9.648500 -27.329800
C -5.449900 -10.025200 -24.167300
C -5.310000 -9.655700 -26.488200
C -4.139600 -9.627000 -24.017000
C -4.003000 -9.272300 -26.357000
H -3.753500 -9.621200 -23.171200
H -3.516900 -9.033600 -27.112700
C -3.393500 -9.234800 -25.114800
N -2.091800 -8.847200 -24.974200
H -1.771100 -8.787000 -24.190400
H -1.649800 -8.557800 -25.712900
