22
Fragment
H -15.131400 -10.992900 -23.692900
O -14.858300 -10.319200 -23.264400
N -13.850100 -9.104000 -25.800500
C -13.522300 -9.862600 -23.437900
H -13.431200 -8.949300 -23.066000
N -13.342700 -9.271900 -26.996500
C -13.169100 -9.852900 -24.903400
H -12.932000 -9.882400 -29.373000
H -12.900000 -10.457500 -22.950000
N -12.312100 -10.140800 -26.860900
C -12.183500 -10.518200 -25.570700
C -12.072400 -10.273200 -29.269200
Cl -11.972800 -10.344800 -31.950000
C -11.544500 -10.508800 -28.011400
H -11.543900 -11.118600 -25.205500
C -11.312400 -10.621700 -30.373300
C -10.300100 -11.076400 -27.849200
C -10.056200 -11.190900 -30.246800
H -9.947700 -11.226900 -26.979100
C -9.568800 -11.424700 -28.979200
H -9.543900 -11.415000 -31.015000
H -8.716100 -11.831100 -28.875500
22
Fragment
H -17.866400 -3.863100 -15.744000
H -17.038600 -4.279200 -13.604500
C -17.013600 -4.269500 -15.640200
H -16.634700 -4.467300 -17.640300
C -16.526300 -4.503300 -14.372600
C -16.282300 -4.617800 -16.770200
C -15.270000 -5.072400 -14.246100
H -15.038500 -4.575600 -19.413900
C -15.038000 -5.185400 -16.608000
Cl -14.609600 -5.349400 -12.669500
C -14.510000 -5.421000 -15.350200
C -14.398900 -5.176000 -19.048700
N -14.270300 -5.553400 -17.758500
H -13.682400 -5.236700 -21.669400
H -13.650500 -5.811800 -15.246500
C -13.413400 -5.841200 -19.716000
N -13.239700 -6.422300 -17.622900
H -13.151200 -6.744900 -21.553400
C -13.060200 -5.831600 -21.181500
N -12.732300 -6.590200 -18.818900
O -11.724200 -5.375000 -21.355100
H -11.451100 -4.701300 -20.926500
44
Fragment
H -15.131400 -10.992900 -23.692900
O -14.858300 -10.319200 -23.264400
N -13.850100 -9.104000 -25.800500
C -13.522300 -9.862600 -23.437900
H -13.431200 -8.949300 -23.066000
N -13.342700 -9.271900 -26.996500
C -13.169100 -9.852900 -24.903400
H -12.932000 -9.882400 -29.373000
H -12.900000 -10.457500 -22.950000
N -12.312100 -10.140800 -26.860900
C -12.183500 -10.518200 -25.570700
C -12.072400 -10.273200 -29.269200
Cl -11.972800 -10.344800 -31.950000
C -11.544500 -10.508800 -28.011400
H -11.543900 -11.118600 -25.205500
C -11.312400 -10.621700 -30.373300
C -10.300100 -11.076400 -27.849200
C -10.056200 -11.190900 -30.246800
H -9.947700 -11.226900 -26.979100
C -9.568800 -11.424700 -28.979200
H -9.543900 -11.415000 -31.015000
H -8.716100 -11.831100 -28.875500
H -17.866400 -3.863100 -15.744000
H -17.038600 -4.279200 -13.604500
C -17.013600 -4.269500 -15.640200
H -16.634700 -4.467300 -17.640300
C -16.526300 -4.503300 -14.372600
C -16.282300 -4.617800 -16.770200
C -15.270000 -5.072400 -14.246100
H -15.038500 -4.575600 -19.413900
C -15.038000 -5.185400 -16.608000
Cl -14.609600 -5.349400 -12.669500
C -14.510000 -5.421000 -15.350200
C -14.398900 -5.176000 -19.048700
N -14.270300 -5.553400 -17.758500
H -13.682400 -5.236700 -21.669400
H -13.650500 -5.811800 -15.246500
C -13.413400 -5.841200 -19.716000
N -13.239700 -6.422300 -17.622900
H -13.151200 -6.744900 -21.553400
C -13.060200 -5.831600 -21.181500
N -12.732300 -6.590200 -18.818900
O -11.724200 -5.375000 -21.355100
H -11.451100 -4.701300 -20.926500
