22
Fragment
H -15.131400 -10.992900 -23.692900
O -14.858300 -10.319200 -23.264400
N -13.850100 -9.104000 -25.800500
C -13.522300 -9.862600 -23.437900
H -13.431200 -8.949300 -23.066000
N -13.342700 -9.271900 -26.996500
C -13.169100 -9.852900 -24.903400
H -12.932000 -9.882400 -29.373000
H -12.900000 -10.457500 -22.950000
N -12.312100 -10.140800 -26.860900
C -12.183500 -10.518200 -25.570700
C -12.072400 -10.273200 -29.269200
Cl -11.972800 -10.344800 -31.950000
C -11.544500 -10.508800 -28.011400
H -11.543900 -11.118600 -25.205500
C -11.312400 -10.621700 -30.373300
C -10.300100 -11.076400 -27.849200
C -10.056200 -11.190900 -30.246800
H -9.947700 -11.226900 -26.979100
C -9.568800 -11.424700 -28.979200
H -9.543900 -11.415000 -31.015000
H -8.716100 -11.831100 -28.875500
22
Fragment
H -19.103400 -11.249900 -15.744000
H -18.275600 -11.666000 -13.604500
C -18.250600 -11.656300 -15.640200
H -17.871800 -11.854100 -17.640300
C -17.763300 -11.890100 -14.372600
C -17.519400 -12.004600 -16.770200
C -16.507100 -12.459300 -14.246100
H -16.275600 -11.962400 -19.413900
C -16.275000 -12.572300 -16.608000
Cl -15.846700 -12.736300 -12.669500
C -15.747100 -12.807800 -15.350200
C -15.636000 -12.562800 -19.048700
N -15.507400 -12.940200 -17.758500
H -14.919500 -12.623500 -21.669400
H -14.887500 -13.198700 -15.246500
C -14.650400 -13.228100 -19.716000
N -14.476800 -13.809100 -17.622900
H -14.388300 -14.131700 -21.553400
C -14.297200 -13.218400 -21.181500
N -13.969400 -13.977100 -18.818900
O -12.961200 -12.761800 -21.355100
H -12.688100 -12.088100 -20.926500
44
Fragment
H -15.131400 -10.992900 -23.692900
O -14.858300 -10.319200 -23.264400
N -13.850100 -9.104000 -25.800500
C -13.522300 -9.862600 -23.437900
H -13.431200 -8.949300 -23.066000
N -13.342700 -9.271900 -26.996500
C -13.169100 -9.852900 -24.903400
H -12.932000 -9.882400 -29.373000
H -12.900000 -10.457500 -22.950000
N -12.312100 -10.140800 -26.860900
C -12.183500 -10.518200 -25.570700
C -12.072400 -10.273200 -29.269200
Cl -11.972800 -10.344800 -31.950000
C -11.544500 -10.508800 -28.011400
H -11.543900 -11.118600 -25.205500
C -11.312400 -10.621700 -30.373300
C -10.300100 -11.076400 -27.849200
C -10.056200 -11.190900 -30.246800
H -9.947700 -11.226900 -26.979100
C -9.568800 -11.424700 -28.979200
H -9.543900 -11.415000 -31.015000
H -8.716100 -11.831100 -28.875500
H -19.103400 -11.249900 -15.744000
H -18.275600 -11.666000 -13.604500
C -18.250600 -11.656300 -15.640200
H -17.871800 -11.854100 -17.640300
C -17.763300 -11.890100 -14.372600
C -17.519400 -12.004600 -16.770200
C -16.507100 -12.459300 -14.246100
H -16.275600 -11.962400 -19.413900
C -16.275000 -12.572300 -16.608000
Cl -15.846700 -12.736300 -12.669500
C -15.747100 -12.807800 -15.350200
C -15.636000 -12.562800 -19.048700
N -15.507400 -12.940200 -17.758500
H -14.919500 -12.623500 -21.669400
H -14.887500 -13.198700 -15.246500
C -14.650400 -13.228100 -19.716000
N -14.476800 -13.809100 -17.622900
H -14.388300 -14.131700 -21.553400
C -14.297200 -13.218400 -21.181500
N -13.969400 -13.977100 -18.818900
O -12.961200 -12.761800 -21.355100
H -12.688100 -12.088100 -20.926500
