22
Fragment
H -15.131400 -10.992900 -23.692900
O -14.858300 -10.319200 -23.264400
N -13.850100 -9.104000 -25.800500
C -13.522300 -9.862600 -23.437900
H -13.431200 -8.949300 -23.066000
N -13.342700 -9.271900 -26.996500
C -13.169100 -9.852900 -24.903400
H -12.932000 -9.882400 -29.373000
H -12.900000 -10.457500 -22.950000
N -12.312100 -10.140800 -26.860900
C -12.183500 -10.518200 -25.570700
C -12.072400 -10.273200 -29.269200
Cl -11.972800 -10.344800 -31.950000
C -11.544500 -10.508800 -28.011400
H -11.543900 -11.118600 -25.205500
C -11.312400 -10.621700 -30.373300
C -10.300100 -11.076400 -27.849200
C -10.056200 -11.190900 -30.246800
H -9.947700 -11.226900 -26.979100
C -9.568800 -11.424700 -28.979200
H -9.543900 -11.415000 -31.015000
H -8.716100 -11.831100 -28.875500
22
Fragment
H -18.479600 -7.664400 -13.633500
H -17.864500 -7.918000 -15.864400
C -17.631700 -8.035200 -13.848500
C -17.267700 -8.178500 -15.173500
H -17.035700 -8.330800 -11.920100
H -16.967500 -7.763700 -17.981600
C -16.778200 -8.424200 -12.830800
C -16.190600 -8.308000 -17.942100
O -16.189100 -9.494300 -21.125700
H -16.070700 -7.597500 -20.560600
C -16.025300 -8.705700 -15.485600
H -15.832300 -9.706600 -21.854600
N -15.623100 -8.840000 -16.838700
C -15.547500 -8.429000 -20.437500
C -15.546600 -8.951100 -13.161800
C -15.415400 -8.715900 -18.986900
C -15.147800 -9.095000 -14.480100
H -14.648300 -8.283300 -20.826100
N -14.529600 -9.567200 -17.176000
Cl -14.453100 -9.419800 -11.894000
N -14.405000 -9.486100 -18.474000
H -14.293600 -9.452500 -14.693200
44
Fragment
H -15.131400 -10.992900 -23.692900
O -14.858300 -10.319200 -23.264400
N -13.850100 -9.104000 -25.800500
C -13.522300 -9.862600 -23.437900
H -13.431200 -8.949300 -23.066000
N -13.342700 -9.271900 -26.996500
C -13.169100 -9.852900 -24.903400
H -12.932000 -9.882400 -29.373000
H -12.900000 -10.457500 -22.950000
N -12.312100 -10.140800 -26.860900
C -12.183500 -10.518200 -25.570700
C -12.072400 -10.273200 -29.269200
Cl -11.972800 -10.344800 -31.950000
C -11.544500 -10.508800 -28.011400
H -11.543900 -11.118600 -25.205500
C -11.312400 -10.621700 -30.373300
C -10.300100 -11.076400 -27.849200
C -10.056200 -11.190900 -30.246800
H -9.947700 -11.226900 -26.979100
C -9.568800 -11.424700 -28.979200
H -9.543900 -11.415000 -31.015000
H -8.716100 -11.831100 -28.875500
H -18.479600 -7.664400 -13.633500
H -17.864500 -7.918000 -15.864400
C -17.631700 -8.035200 -13.848500
C -17.267700 -8.178500 -15.173500
H -17.035700 -8.330800 -11.920100
H -16.967500 -7.763700 -17.981600
C -16.778200 -8.424200 -12.830800
C -16.190600 -8.308000 -17.942100
O -16.189100 -9.494300 -21.125700
H -16.070700 -7.597500 -20.560600
C -16.025300 -8.705700 -15.485600
H -15.832300 -9.706600 -21.854600
N -15.623100 -8.840000 -16.838700
C -15.547500 -8.429000 -20.437500
C -15.546600 -8.951100 -13.161800
C -15.415400 -8.715900 -18.986900
C -15.147800 -9.095000 -14.480100
H -14.648300 -8.283300 -20.826100
N -14.529600 -9.567200 -17.176000
Cl -14.453100 -9.419800 -11.894000
N -14.405000 -9.486100 -18.474000
H -14.293600 -9.452500 -14.693200
