41
Fragment
H -3.984500 -11.727400 -13.818600
H -3.285900 -12.898700 -12.965500
C -3.106700 -12.251500 -13.657900
H -2.869600 -10.394500 -15.370700
O -2.746900 -13.007600 -14.814600
H -2.557500 -8.393600 -16.692900
C -2.531400 -10.941100 -16.083800
C -2.442200 -12.301500 -15.942100
H -2.387800 -11.669400 -13.367100
C -2.233600 -8.908800 -17.462400
C -2.155100 -10.326700 -17.306200
H -2.141800 -15.239300 -18.653800
C -2.001600 -13.102300 -17.040400
O -1.983100 -14.440000 -16.786300
N -1.908800 -8.231800 -18.550800
C -1.700300 -11.119500 -18.385700
C -1.643300 -12.524400 -18.233000
H -1.607200 -16.204400 -17.493900
C -1.540900 -15.292100 -17.846500
C -1.476000 -9.018800 -19.566600
H -1.386800 -13.087800 -18.972500
C -1.349300 -10.409400 -19.566700
H -1.219400 -12.727400 -21.395500
H -1.104800 -7.954200 -23.330300
N -1.086800 -8.583200 -20.816000
C -1.057400 -7.279700 -21.373100
C -1.041500 -7.145900 -22.761300
H -1.026600 -6.249700 -19.598100
C -1.019500 -6.151200 -20.560700
C -0.959600 -4.897900 -21.143600
C -0.959200 -5.879900 -23.323700
H -0.950700 -4.117400 -20.542400
H -0.944200 -5.811500 -24.277000
C -0.919300 -4.752200 -22.523400
H -0.883500 -3.872700 -22.926300
C -0.854300 -10.735200 -20.860400
N -0.707800 -9.646200 -21.605300
H -0.590600 -15.067000 -18.099300
C -0.457200 -12.061100 -21.426200
H -0.188600 -11.978400 -22.399000
H 0.297800 -12.435300 -20.926300
41
Fragment
H -0.470600 -8.206700 -25.666800
H 0.228000 -9.378000 -24.813700
C 0.407200 -8.730900 -25.506100
H 0.644300 -6.873900 -27.218900
O 0.767100 -9.486900 -26.662800
H 0.956500 -4.872900 -28.541100
C 0.982500 -7.420500 -27.932000
C 1.071700 -8.780800 -27.790300
H 1.126100 -8.148700 -25.215300
C 1.280300 -5.388100 -29.310600
C 1.358800 -6.806100 -29.154400
H 1.372100 -11.718600 -30.502000
C 1.512300 -9.581700 -28.888600
O 1.530800 -10.919400 -28.634500
N 1.605100 -4.711200 -30.399100
C 1.813600 -7.598800 -30.233900
C 1.870600 -9.003700 -30.081200
H 1.906700 -12.683700 -29.342100
C 1.973000 -11.771400 -29.694700
C 2.037900 -5.498100 -31.414800
H 2.127200 -9.567200 -30.820700
C 2.164700 -6.888800 -31.414900
H 2.294500 -9.206800 -33.243700
H 2.409100 -4.433600 -35.178500
N 2.427100 -5.062500 -32.664200
C 2.456500 -3.759100 -33.221300
C 2.472400 -3.625200 -34.609500
H 2.487300 -2.729000 -31.446300
C 2.494400 -2.630500 -32.408900
C 2.554300 -1.377200 -32.991800
C 2.554700 -2.359200 -35.171900
H 2.563200 -0.596700 -32.390600
H 2.569700 -2.290900 -36.125200
C 2.594600 -1.231600 -34.371600
H 2.630400 -0.352100 -34.774500
C 2.659600 -7.214600 -32.708600
N 2.806100 -6.125500 -33.453500
H 2.923300 -11.546300 -29.947500
C 3.056700 -8.540400 -33.274400
H 3.325300 -8.457700 -34.247200
H 3.811700 -8.914700 -32.774500
82
Fragment
H -3.984500 -11.727400 -13.818600
H -3.285900 -12.898700 -12.965500
C -3.106700 -12.251500 -13.657900
H -2.869600 -10.394500 -15.370700
O -2.746900 -13.007600 -14.814600
H -2.557500 -8.393600 -16.692900
C -2.531400 -10.941100 -16.083800
C -2.442200 -12.301500 -15.942100
H -2.387800 -11.669400 -13.367100
C -2.233600 -8.908800 -17.462400
C -2.155100 -10.326700 -17.306200
H -2.141800 -15.239300 -18.653800
C -2.001600 -13.102300 -17.040400
O -1.983100 -14.440000 -16.786300
N -1.908800 -8.231800 -18.550800
C -1.700300 -11.119500 -18.385700
C -1.643300 -12.524400 -18.233000
H -1.607200 -16.204400 -17.493900
C -1.540900 -15.292100 -17.846500
C -1.476000 -9.018800 -19.566600
H -1.386800 -13.087800 -18.972500
C -1.349300 -10.409400 -19.566700
H -1.219400 -12.727400 -21.395500
H -1.104800 -7.954200 -23.330300
N -1.086800 -8.583200 -20.816000
C -1.057400 -7.279700 -21.373100
C -1.041500 -7.145900 -22.761300
H -1.026600 -6.249700 -19.598100
C -1.019500 -6.151200 -20.560700
C -0.959600 -4.897900 -21.143600
C -0.959200 -5.879900 -23.323700
H -0.950700 -4.117400 -20.542400
H -0.944200 -5.811500 -24.277000
C -0.919300 -4.752200 -22.523400
H -0.883500 -3.872700 -22.926300
C -0.854300 -10.735200 -20.860400
N -0.707800 -9.646200 -21.605300
H -0.590600 -15.067000 -18.099300
C -0.457200 -12.061100 -21.426200
H -0.188600 -11.978400 -22.399000
H 0.297800 -12.435300 -20.926300
H -0.470600 -8.206700 -25.666800
H 0.228000 -9.378000 -24.813700
C 0.407200 -8.730900 -25.506100
H 0.644300 -6.873900 -27.218900
O 0.767100 -9.486900 -26.662800
H 0.956500 -4.872900 -28.541100
C 0.982500 -7.420500 -27.932000
C 1.071700 -8.780800 -27.790300
H 1.126100 -8.148700 -25.215300
C 1.280300 -5.388100 -29.310600
C 1.358800 -6.806100 -29.154400
H 1.372100 -11.718600 -30.502000
C 1.512300 -9.581700 -28.888600
O 1.530800 -10.919400 -28.634500
N 1.605100 -4.711200 -30.399100
C 1.813600 -7.598800 -30.233900
C 1.870600 -9.003700 -30.081200
H 1.906700 -12.683700 -29.342100
C 1.973000 -11.771400 -29.694700
C 2.037900 -5.498100 -31.414800
H 2.127200 -9.567200 -30.820700
C 2.164700 -6.888800 -31.414900
H 2.294500 -9.206800 -33.243700
H 2.409100 -4.433600 -35.178500
N 2.427100 -5.062500 -32.664200
C 2.456500 -3.759100 -33.221300
C 2.472400 -3.625200 -34.609500
H 2.487300 -2.729000 -31.446300
C 2.494400 -2.630500 -32.408900
C 2.554300 -1.377200 -32.991800
C 2.554700 -2.359200 -35.171900
H 2.563200 -0.596700 -32.390600
H 2.569700 -2.290900 -36.125200
C 2.594600 -1.231600 -34.371600
H 2.630400 -0.352100 -34.774500
C 2.659600 -7.214600 -32.708600
N 2.806100 -6.125500 -33.453500
H 2.923300 -11.546300 -29.947500
C 3.056700 -8.540400 -33.274400
H 3.325300 -8.457700 -34.247200
H 3.811700 -8.914700 -32.774500
