41
Fragment
H -3.984500 -11.727400 -13.818600
H -3.285900 -12.898700 -12.965500
C -3.106700 -12.251500 -13.657900
H -2.869600 -10.394500 -15.370700
O -2.746900 -13.007600 -14.814600
H -2.557500 -8.393600 -16.692900
C -2.531400 -10.941100 -16.083800
C -2.442200 -12.301500 -15.942100
H -2.387800 -11.669400 -13.367100
C -2.233600 -8.908800 -17.462400
C -2.155100 -10.326700 -17.306200
H -2.141800 -15.239300 -18.653800
C -2.001600 -13.102300 -17.040400
O -1.983100 -14.440000 -16.786300
N -1.908800 -8.231800 -18.550800
C -1.700300 -11.119500 -18.385700
C -1.643300 -12.524400 -18.233000
H -1.607200 -16.204400 -17.493900
C -1.540900 -15.292100 -17.846500
C -1.476000 -9.018800 -19.566600
H -1.386800 -13.087800 -18.972500
C -1.349300 -10.409400 -19.566700
H -1.219400 -12.727400 -21.395500
H -1.104800 -7.954200 -23.330300
N -1.086800 -8.583200 -20.816000
C -1.057400 -7.279700 -21.373100
C -1.041500 -7.145900 -22.761300
H -1.026600 -6.249700 -19.598100
C -1.019500 -6.151200 -20.560700
C -0.959600 -4.897900 -21.143600
C -0.959200 -5.879900 -23.323700
H -0.950700 -4.117400 -20.542400
H -0.944200 -5.811500 -24.277000
C -0.919300 -4.752200 -22.523400
H -0.883500 -3.872700 -22.926300
C -0.854300 -10.735200 -20.860400
N -0.707800 -9.646200 -21.605300
H -0.590600 -15.067000 -18.099300
C -0.457200 -12.061100 -21.426200
H -0.188600 -11.978400 -22.399000
H 0.297800 -12.435300 -20.926300
41
Fragment
H -7.708900 -9.206500 -14.618300
H -7.222500 -9.663400 -13.145600
C -6.953900 -9.580800 -14.118400
H -6.820500 -6.574900 -17.445300
N -6.703300 -11.995600 -13.939300
C -6.556800 -10.906600 -14.684200
H -6.527600 -17.769100 -12.618300
C -6.491800 -16.889600 -13.021200
H -6.466800 -15.830300 -11.267600
H -6.460300 -17.524500 -15.002200
C -6.451900 -15.761900 -12.220900
C -6.451500 -16.744000 -14.401000
C -6.391600 -15.490600 -14.983900
H -6.384500 -15.392200 -15.946500
C -6.369500 -14.495900 -12.783300
C -6.353700 -14.362100 -14.171500
N -6.324300 -13.058700 -14.728600
H -6.306300 -13.687600 -12.214300
H -6.191700 -8.914400 -14.149100
C -6.061800 -11.232400 -15.977900
H -6.024300 -8.554000 -16.572100
C -5.935100 -12.623000 -15.978000
C -5.870200 -6.349800 -17.698100
H -5.803900 -5.437400 -18.050700
C -5.767700 -9.117500 -17.311600
C -5.710800 -10.522400 -17.158900
N -5.502300 -13.410000 -16.993800
O -5.428000 -7.201800 -18.758300
C -5.409500 -8.539500 -18.504200
H -5.269300 -6.402600 -16.890800
C -5.256000 -11.315100 -18.238400
C -5.177500 -12.733100 -18.082300
H -5.023200 -9.972500 -22.177500
C -4.968900 -9.340400 -19.602500
C -4.879600 -10.700700 -19.460800
H -4.853600 -13.248200 -18.851700
O -4.664200 -8.634300 -20.730000
H -4.541500 -11.247300 -20.173900
C -4.304400 -9.390300 -21.886700
H -4.125200 -8.743100 -22.579100
H -3.426600 -9.914400 -21.726000
82
Fragment
H -3.984500 -11.727400 -13.818600
H -3.285900 -12.898700 -12.965500
C -3.106700 -12.251500 -13.657900
H -2.869600 -10.394500 -15.370700
O -2.746900 -13.007600 -14.814600
H -2.557500 -8.393600 -16.692900
C -2.531400 -10.941100 -16.083800
C -2.442200 -12.301500 -15.942100
H -2.387800 -11.669400 -13.367100
C -2.233600 -8.908800 -17.462400
C -2.155100 -10.326700 -17.306200
H -2.141800 -15.239300 -18.653800
C -2.001600 -13.102300 -17.040400
O -1.983100 -14.440000 -16.786300
N -1.908800 -8.231800 -18.550800
C -1.700300 -11.119500 -18.385700
C -1.643300 -12.524400 -18.233000
H -1.607200 -16.204400 -17.493900
C -1.540900 -15.292100 -17.846500
C -1.476000 -9.018800 -19.566600
H -1.386800 -13.087800 -18.972500
C -1.349300 -10.409400 -19.566700
H -1.219400 -12.727400 -21.395500
H -1.104800 -7.954200 -23.330300
N -1.086800 -8.583200 -20.816000
C -1.057400 -7.279700 -21.373100
C -1.041500 -7.145900 -22.761300
H -1.026600 -6.249700 -19.598100
C -1.019500 -6.151200 -20.560700
C -0.959600 -4.897900 -21.143600
C -0.959200 -5.879900 -23.323700
H -0.950700 -4.117400 -20.542400
H -0.944200 -5.811500 -24.277000
C -0.919300 -4.752200 -22.523400
H -0.883500 -3.872700 -22.926300
C -0.854300 -10.735200 -20.860400
N -0.707800 -9.646200 -21.605300
H -0.590600 -15.067000 -18.099300
C -0.457200 -12.061100 -21.426200
H -0.188600 -11.978400 -22.399000
H 0.297800 -12.435300 -20.926300
H -7.708900 -9.206500 -14.618300
H -7.222500 -9.663400 -13.145600
C -6.953900 -9.580800 -14.118400
H -6.820500 -6.574900 -17.445300
N -6.703300 -11.995600 -13.939300
C -6.556800 -10.906600 -14.684200
H -6.527600 -17.769100 -12.618300
C -6.491800 -16.889600 -13.021200
H -6.466800 -15.830300 -11.267600
H -6.460300 -17.524500 -15.002200
C -6.451900 -15.761900 -12.220900
C -6.451500 -16.744000 -14.401000
C -6.391600 -15.490600 -14.983900
H -6.384500 -15.392200 -15.946500
C -6.369500 -14.495900 -12.783300
C -6.353700 -14.362100 -14.171500
N -6.324300 -13.058700 -14.728600
H -6.306300 -13.687600 -12.214300
H -6.191700 -8.914400 -14.149100
C -6.061800 -11.232400 -15.977900
H -6.024300 -8.554000 -16.572100
C -5.935100 -12.623000 -15.978000
C -5.870200 -6.349800 -17.698100
H -5.803900 -5.437400 -18.050700
C -5.767700 -9.117500 -17.311600
C -5.710800 -10.522400 -17.158900
N -5.502300 -13.410000 -16.993800
O -5.428000 -7.201800 -18.758300
C -5.409500 -8.539500 -18.504200
H -5.269300 -6.402600 -16.890800
C -5.256000 -11.315100 -18.238400
C -5.177500 -12.733100 -18.082300
H -5.023200 -9.972500 -22.177500
C -4.968900 -9.340400 -19.602500
C -4.879600 -10.700700 -19.460800
H -4.853600 -13.248200 -18.851700
O -4.664200 -8.634300 -20.730000
H -4.541500 -11.247300 -20.173900
C -4.304400 -9.390300 -21.886700
H -4.125200 -8.743100 -22.579100
H -3.426600 -9.914400 -21.726000
