41
Fragment
H -3.984500 -11.727400 -13.818600
H -3.285900 -12.898700 -12.965500
C -3.106700 -12.251500 -13.657900
H -2.869600 -10.394500 -15.370700
O -2.746900 -13.007600 -14.814600
H -2.557500 -8.393600 -16.692900
C -2.531400 -10.941100 -16.083800
C -2.442200 -12.301500 -15.942100
H -2.387800 -11.669400 -13.367100
C -2.233600 -8.908800 -17.462400
C -2.155100 -10.326700 -17.306200
H -2.141800 -15.239300 -18.653800
C -2.001600 -13.102300 -17.040400
O -1.983100 -14.440000 -16.786300
N -1.908800 -8.231800 -18.550800
C -1.700300 -11.119500 -18.385700
C -1.643300 -12.524400 -18.233000
H -1.607200 -16.204400 -17.493900
C -1.540900 -15.292100 -17.846500
C -1.476000 -9.018800 -19.566600
H -1.386800 -13.087800 -18.972500
C -1.349300 -10.409400 -19.566700
H -1.219400 -12.727400 -21.395500
H -1.104800 -7.954200 -23.330300
N -1.086800 -8.583200 -20.816000
C -1.057400 -7.279700 -21.373100
C -1.041500 -7.145900 -22.761300
H -1.026600 -6.249700 -19.598100
C -1.019500 -6.151200 -20.560700
C -0.959600 -4.897900 -21.143600
C -0.959200 -5.879900 -23.323700
H -0.950700 -4.117400 -20.542400
H -0.944200 -5.811500 -24.277000
C -0.919300 -4.752200 -22.523400
H -0.883500 -3.872700 -22.926300
C -0.854300 -10.735200 -20.860400
N -0.707800 -9.646200 -21.605300
H -0.590600 -15.067000 -18.099300
C -0.457200 -12.061100 -21.426200
H -0.188600 -11.978400 -22.399000
H 0.297800 -12.435300 -20.926300
41
Fragment
H -6.607100 -19.941100 -14.618300
H -6.120700 -20.398100 -13.145600
C -5.852100 -20.315400 -14.118400
H -5.718800 -17.309500 -17.445300
N -5.601500 -22.730200 -13.939300
C -5.455100 -21.641200 -14.684200
H -5.425800 -28.503700 -12.618300
C -5.390000 -27.624200 -13.021200
H -5.365100 -26.564900 -11.267600
H -5.358600 -28.259100 -15.002200
C -5.350100 -26.496500 -12.220900
C -5.349800 -27.478600 -14.401000
C -5.289900 -26.225200 -14.983900
H -5.282800 -26.126800 -15.946500
C -5.267800 -25.230600 -12.783300
C -5.251900 -25.096700 -14.171500
N -5.222600 -23.793300 -14.728600
H -5.204500 -24.422200 -12.214300
H -5.089900 -19.649000 -14.149100
C -4.960100 -21.967000 -15.977900
H -4.922600 -19.288600 -16.572100
C -4.833300 -23.357600 -15.978000
C -4.768500 -17.084400 -17.698100
H -4.702100 -16.172000 -18.050700
C -4.666000 -19.852100 -17.311600
C -4.609000 -21.257000 -17.158900
N -4.400600 -24.144600 -16.993800
O -4.326200 -17.936400 -18.758300
C -4.307700 -19.274100 -18.504200
H -4.167600 -17.137200 -16.890800
C -4.154300 -22.049700 -18.238400
C -4.075700 -23.467700 -18.082300
H -3.921500 -20.707100 -22.177500
C -3.867100 -20.075000 -19.602500
C -3.777900 -21.435300 -19.460800
H -3.751900 -23.982900 -18.851700
O -3.562500 -19.368900 -20.730000
H -3.439700 -21.981900 -20.173900
C -3.202600 -20.124900 -21.886700
H -3.023400 -19.477800 -22.579100
H -2.324800 -20.649100 -21.726000
82
Fragment
H -3.984500 -11.727400 -13.818600
H -3.285900 -12.898700 -12.965500
C -3.106700 -12.251500 -13.657900
H -2.869600 -10.394500 -15.370700
O -2.746900 -13.007600 -14.814600
H -2.557500 -8.393600 -16.692900
C -2.531400 -10.941100 -16.083800
C -2.442200 -12.301500 -15.942100
H -2.387800 -11.669400 -13.367100
C -2.233600 -8.908800 -17.462400
C -2.155100 -10.326700 -17.306200
H -2.141800 -15.239300 -18.653800
C -2.001600 -13.102300 -17.040400
O -1.983100 -14.440000 -16.786300
N -1.908800 -8.231800 -18.550800
C -1.700300 -11.119500 -18.385700
C -1.643300 -12.524400 -18.233000
H -1.607200 -16.204400 -17.493900
C -1.540900 -15.292100 -17.846500
C -1.476000 -9.018800 -19.566600
H -1.386800 -13.087800 -18.972500
C -1.349300 -10.409400 -19.566700
H -1.219400 -12.727400 -21.395500
H -1.104800 -7.954200 -23.330300
N -1.086800 -8.583200 -20.816000
C -1.057400 -7.279700 -21.373100
C -1.041500 -7.145900 -22.761300
H -1.026600 -6.249700 -19.598100
C -1.019500 -6.151200 -20.560700
C -0.959600 -4.897900 -21.143600
C -0.959200 -5.879900 -23.323700
H -0.950700 -4.117400 -20.542400
H -0.944200 -5.811500 -24.277000
C -0.919300 -4.752200 -22.523400
H -0.883500 -3.872700 -22.926300
C -0.854300 -10.735200 -20.860400
N -0.707800 -9.646200 -21.605300
H -0.590600 -15.067000 -18.099300
C -0.457200 -12.061100 -21.426200
H -0.188600 -11.978400 -22.399000
H 0.297800 -12.435300 -20.926300
H -6.607100 -19.941100 -14.618300
H -6.120700 -20.398100 -13.145600
C -5.852100 -20.315400 -14.118400
H -5.718800 -17.309500 -17.445300
N -5.601500 -22.730200 -13.939300
C -5.455100 -21.641200 -14.684200
H -5.425800 -28.503700 -12.618300
C -5.390000 -27.624200 -13.021200
H -5.365100 -26.564900 -11.267600
H -5.358600 -28.259100 -15.002200
C -5.350100 -26.496500 -12.220900
C -5.349800 -27.478600 -14.401000
C -5.289900 -26.225200 -14.983900
H -5.282800 -26.126800 -15.946500
C -5.267800 -25.230600 -12.783300
C -5.251900 -25.096700 -14.171500
N -5.222600 -23.793300 -14.728600
H -5.204500 -24.422200 -12.214300
H -5.089900 -19.649000 -14.149100
C -4.960100 -21.967000 -15.977900
H -4.922600 -19.288600 -16.572100
C -4.833300 -23.357600 -15.978000
C -4.768500 -17.084400 -17.698100
H -4.702100 -16.172000 -18.050700
C -4.666000 -19.852100 -17.311600
C -4.609000 -21.257000 -17.158900
N -4.400600 -24.144600 -16.993800
O -4.326200 -17.936400 -18.758300
C -4.307700 -19.274100 -18.504200
H -4.167600 -17.137200 -16.890800
C -4.154300 -22.049700 -18.238400
C -4.075700 -23.467700 -18.082300
H -3.921500 -20.707100 -22.177500
C -3.867100 -20.075000 -19.602500
C -3.777900 -21.435300 -19.460800
H -3.751900 -23.982900 -18.851700
O -3.562500 -19.368900 -20.730000
H -3.439700 -21.981900 -20.173900
C -3.202600 -20.124900 -21.886700
H -3.023400 -19.477800 -22.579100
H -2.324800 -20.649100 -21.726000
