41
Fragment
H -3.984500 -11.727400 -13.818600
H -3.285900 -12.898700 -12.965500
C -3.106700 -12.251500 -13.657900
H -2.869600 -10.394500 -15.370700
O -2.746900 -13.007600 -14.814600
H -2.557500 -8.393600 -16.692900
C -2.531400 -10.941100 -16.083800
C -2.442200 -12.301500 -15.942100
H -2.387800 -11.669400 -13.367100
C -2.233600 -8.908800 -17.462400
C -2.155100 -10.326700 -17.306200
H -2.141800 -15.239300 -18.653800
C -2.001600 -13.102300 -17.040400
O -1.983100 -14.440000 -16.786300
N -1.908800 -8.231800 -18.550800
C -1.700300 -11.119500 -18.385700
C -1.643300 -12.524400 -18.233000
H -1.607200 -16.204400 -17.493900
C -1.540900 -15.292100 -17.846500
C -1.476000 -9.018800 -19.566600
H -1.386800 -13.087800 -18.972500
C -1.349300 -10.409400 -19.566700
H -1.219400 -12.727400 -21.395500
H -1.104800 -7.954200 -23.330300
N -1.086800 -8.583200 -20.816000
C -1.057400 -7.279700 -21.373100
C -1.041500 -7.145900 -22.761300
H -1.026600 -6.249700 -19.598100
C -1.019500 -6.151200 -20.560700
C -0.959600 -4.897900 -21.143600
C -0.959200 -5.879900 -23.323700
H -0.950700 -4.117400 -20.542400
H -0.944200 -5.811500 -24.277000
C -0.919300 -4.752200 -22.523400
H -0.883500 -3.872700 -22.926300
C -0.854300 -10.735200 -20.860400
N -0.707800 -9.646200 -21.605300
H -0.590600 -15.067000 -18.099300
C -0.457200 -12.061100 -21.426200
H -0.188600 -11.978400 -22.399000
H 0.297800 -12.435300 -20.926300
6
Fragment
H 1.839500 -5.885700 -22.387200
N 2.356700 -3.169800 -21.079400
C 2.432500 -4.271200 -21.370500
H 2.478300 -6.234800 -20.959500
C 2.529400 -5.675700 -21.733000
H 3.393600 -5.838400 -22.149000
47
Fragment
H -3.984500 -11.727400 -13.818600
H -3.285900 -12.898700 -12.965500
C -3.106700 -12.251500 -13.657900
H -2.869600 -10.394500 -15.370700
O -2.746900 -13.007600 -14.814600
H -2.557500 -8.393600 -16.692900
C -2.531400 -10.941100 -16.083800
C -2.442200 -12.301500 -15.942100
H -2.387800 -11.669400 -13.367100
C -2.233600 -8.908800 -17.462400
C -2.155100 -10.326700 -17.306200
H -2.141800 -15.239300 -18.653800
C -2.001600 -13.102300 -17.040400
O -1.983100 -14.440000 -16.786300
N -1.908800 -8.231800 -18.550800
C -1.700300 -11.119500 -18.385700
C -1.643300 -12.524400 -18.233000
H -1.607200 -16.204400 -17.493900
C -1.540900 -15.292100 -17.846500
C -1.476000 -9.018800 -19.566600
H -1.386800 -13.087800 -18.972500
C -1.349300 -10.409400 -19.566700
H -1.219400 -12.727400 -21.395500
H -1.104800 -7.954200 -23.330300
N -1.086800 -8.583200 -20.816000
C -1.057400 -7.279700 -21.373100
C -1.041500 -7.145900 -22.761300
H -1.026600 -6.249700 -19.598100
C -1.019500 -6.151200 -20.560700
C -0.959600 -4.897900 -21.143600
C -0.959200 -5.879900 -23.323700
H -0.950700 -4.117400 -20.542400
H -0.944200 -5.811500 -24.277000
C -0.919300 -4.752200 -22.523400
H -0.883500 -3.872700 -22.926300
C -0.854300 -10.735200 -20.860400
N -0.707800 -9.646200 -21.605300
H -0.590600 -15.067000 -18.099300
C -0.457200 -12.061100 -21.426200
H -0.188600 -11.978400 -22.399000
H 0.297800 -12.435300 -20.926300
H 1.839500 -5.885700 -22.387200
N 2.356700 -3.169800 -21.079400
C 2.432500 -4.271200 -21.370500
H 2.478300 -6.234800 -20.959500
C 2.529400 -5.675700 -21.733000
H 3.393600 -5.838400 -22.149000
