11
Fragment
H -10.898200 -7.978700 -22.223500
N -10.133300 -7.660000 -22.107800
H -9.775000 -7.013200 -22.607100
N -9.695200 -9.232100 -20.380400
C -9.397900 -8.217600 -21.179300
O -9.373200 -11.083400 -18.468400
C -8.561700 -9.322200 -19.671900
N -8.411600 -10.343700 -18.637900
O -8.146400 -7.724200 -20.959600
N -7.581900 -8.504000 -19.910600
O -7.356900 -10.387100 -18.030800
3
Fragment
H -4.970900 -11.046400 -17.077400
O -4.791000 -10.318300 -16.653800
H -4.088500 -10.450400 -16.254300
14
Fragment
H -10.898200 -7.978700 -22.223500
N -10.133300 -7.660000 -22.107800
H -9.775000 -7.013200 -22.607100
N -9.695200 -9.232100 -20.380400
C -9.397900 -8.217600 -21.179300
O -9.373200 -11.083400 -18.468400
C -8.561700 -9.322200 -19.671900
N -8.411600 -10.343700 -18.637900
O -8.146400 -7.724200 -20.959600
N -7.581900 -8.504000 -19.910600
O -7.356900 -10.387100 -18.030800
H -4.970900 -11.046400 -17.077400
O -4.791000 -10.318300 -16.653800
H -4.088500 -10.450400 -16.254300
