11
Fragment
H -10.898200 -7.978700 -22.223500
N -10.133300 -7.660000 -22.107800
H -9.775000 -7.013200 -22.607100
N -9.695200 -9.232100 -20.380400
C -9.397900 -8.217600 -21.179300
O -9.373200 -11.083400 -18.468400
C -8.561700 -9.322200 -19.671900
N -8.411600 -10.343700 -18.637900
O -8.146400 -7.724200 -20.959600
N -7.581900 -8.504000 -19.910600
O -7.356900 -10.387100 -18.030800
11
Fragment
O -6.219500 -3.472900 -23.966400
N -5.994500 -5.356000 -22.086600
O -5.430100 -6.135800 -21.037500
N -5.164800 -3.516300 -23.359200
C -5.014700 -4.537800 -22.325300
O -4.203200 -2.776600 -23.528700
C -4.178500 -5.642400 -20.817800
N -3.881200 -4.627900 -21.616800
H -3.801400 -6.846800 -19.390100
N -3.443100 -6.200000 -19.889300
H -2.678200 -5.881300 -19.773600
22
Fragment
H -10.898200 -7.978700 -22.223500
N -10.133300 -7.660000 -22.107800
H -9.775000 -7.013200 -22.607100
N -9.695200 -9.232100 -20.380400
C -9.397900 -8.217600 -21.179300
O -9.373200 -11.083400 -18.468400
C -8.561700 -9.322200 -19.671900
N -8.411600 -10.343700 -18.637900
O -8.146400 -7.724200 -20.959600
N -7.581900 -8.504000 -19.910600
O -7.356900 -10.387100 -18.030800
O -6.219500 -3.472900 -23.966400
N -5.994500 -5.356000 -22.086600
O -5.430100 -6.135800 -21.037500
N -5.164800 -3.516300 -23.359200
C -5.014700 -4.537800 -22.325300
O -4.203200 -2.776600 -23.528700
C -4.178500 -5.642400 -20.817800
N -3.881200 -4.627900 -21.616800
H -3.801400 -6.846800 -19.390100
N -3.443100 -6.200000 -19.889300
H -2.678200 -5.881300 -19.773600
