20
Fragment
H -16.528900 -20.325400 -29.208400
H -16.357200 -20.319900 -30.693400
N -16.060600 -20.107700 -29.922700
C -15.600800 -18.819600 -29.792700
N -15.472600 -18.205100 -28.620400
N -15.167400 -18.051200 -30.777500
H -15.148700 -18.225700 -31.640400
N -14.909100 -16.962500 -28.832600
C -14.762300 -16.937400 -30.142600
C -14.217900 -15.803500 -30.873100
N -14.172100 -15.698500 -32.171600
N -13.696500 -14.675800 -30.276500
N -13.572400 -14.451300 -32.450800
N -13.511800 -14.382700 -28.909100
C -13.297800 -13.880800 -31.297700
H -13.151800 -13.581600 -28.825600
H -12.963900 -14.983300 -28.566600
N -12.752700 -12.638500 -31.108400
H -12.346900 -12.372400 -31.845800
H -12.163600 -12.674800 -30.451800
20
Fragment
H -20.251300 -20.976300 -32.662300
N -19.908300 -20.476100 -32.024400
H -19.883600 -20.773400 -31.197100
C -19.424000 -19.259000 -32.315100
N -19.386600 -18.733100 -33.544700
N -18.879300 -18.399200 -31.452600
N -18.786700 -17.494700 -33.500700
H -18.784300 -18.490300 -30.582800
C -18.506500 -17.350600 -32.232800
C -17.938300 -16.172900 -31.613200
H -17.920600 -14.915600 -34.090500
N -17.918500 -15.975500 -30.322400
N -17.426300 -15.088600 -32.269200
N -17.361400 -14.708700 -30.119700
N -17.168200 -14.862900 -33.626900
C -17.079200 -14.197200 -31.295800
H -16.604400 -15.477200 -33.925300
N -16.579600 -12.994800 -31.563500
H -16.429200 -12.756900 -32.398100
H -16.399000 -12.436600 -30.908100
40
Fragment
H -16.528900 -20.325400 -29.208400
H -16.357200 -20.319900 -30.693400
N -16.060600 -20.107700 -29.922700
C -15.600800 -18.819600 -29.792700
N -15.472600 -18.205100 -28.620400
N -15.167400 -18.051200 -30.777500
H -15.148700 -18.225700 -31.640400
N -14.909100 -16.962500 -28.832600
C -14.762300 -16.937400 -30.142600
C -14.217900 -15.803500 -30.873100
N -14.172100 -15.698500 -32.171600
N -13.696500 -14.675800 -30.276500
N -13.572400 -14.451300 -32.450800
N -13.511800 -14.382700 -28.909100
C -13.297800 -13.880800 -31.297700
H -13.151800 -13.581600 -28.825600
H -12.963900 -14.983300 -28.566600
N -12.752700 -12.638500 -31.108400
H -12.346900 -12.372400 -31.845800
H -12.163600 -12.674800 -30.451800
H -20.251300 -20.976300 -32.662300
N -19.908300 -20.476100 -32.024400
H -19.883600 -20.773400 -31.197100
C -19.424000 -19.259000 -32.315100
N -19.386600 -18.733100 -33.544700
N -18.879300 -18.399200 -31.452600
N -18.786700 -17.494700 -33.500700
H -18.784300 -18.490300 -30.582800
C -18.506500 -17.350600 -32.232800
C -17.938300 -16.172900 -31.613200
H -17.920600 -14.915600 -34.090500
N -17.918500 -15.975500 -30.322400
N -17.426300 -15.088600 -32.269200
N -17.361400 -14.708700 -30.119700
N -17.168200 -14.862900 -33.626900
C -17.079200 -14.197200 -31.295800
H -16.604400 -15.477200 -33.925300
N -16.579600 -12.994800 -31.563500
H -16.429200 -12.756900 -32.398100
H -16.399000 -12.436600 -30.908100
