20
Fragment
H -16.528900 -20.325400 -29.208400
H -16.357200 -20.319900 -30.693400
N -16.060600 -20.107700 -29.922700
C -15.600800 -18.819600 -29.792700
N -15.472600 -18.205100 -28.620400
N -15.167400 -18.051200 -30.777500
H -15.148700 -18.225700 -31.640400
N -14.909100 -16.962500 -28.832600
C -14.762300 -16.937400 -30.142600
C -14.217900 -15.803500 -30.873100
N -14.172100 -15.698500 -32.171600
N -13.696500 -14.675800 -30.276500
N -13.572400 -14.451300 -32.450800
N -13.511800 -14.382700 -28.909100
C -13.297800 -13.880800 -31.297700
H -13.151800 -13.581600 -28.825600
H -12.963900 -14.983300 -28.566600
N -12.752700 -12.638500 -31.108400
H -12.346900 -12.372400 -31.845800
H -12.163600 -12.674800 -30.451800
20
Fragment
H -16.095800 -13.501700 -36.315700
H -16.014600 -13.057500 -34.684100
N -15.817500 -12.982100 -35.543100
H -15.460100 -10.612000 -33.030300
C -15.300900 -11.762300 -35.803200
N -15.079400 -11.228900 -36.973600
N -14.978300 -11.226800 -33.445300
N -14.895700 -10.912000 -34.814500
N -14.506400 -9.968800 -36.746000
C -14.393000 -9.806500 -35.455200
H -14.168800 -11.245000 -33.090900
C -13.794800 -8.662200 -34.822200
N -13.602600 -8.573000 -33.517900
H -13.356100 -7.475000 -36.417300
N -13.317100 -7.604100 -35.546900
N -12.927600 -7.382600 -33.391700
C -12.779300 -6.819100 -34.617500
N -12.187100 -5.606500 -34.816400
H -11.681400 -5.617300 -35.546400
H -11.668300 -5.420200 -34.119700
40
Fragment
H -16.528900 -20.325400 -29.208400
H -16.357200 -20.319900 -30.693400
N -16.060600 -20.107700 -29.922700
C -15.600800 -18.819600 -29.792700
N -15.472600 -18.205100 -28.620400
N -15.167400 -18.051200 -30.777500
H -15.148700 -18.225700 -31.640400
N -14.909100 -16.962500 -28.832600
C -14.762300 -16.937400 -30.142600
C -14.217900 -15.803500 -30.873100
N -14.172100 -15.698500 -32.171600
N -13.696500 -14.675800 -30.276500
N -13.572400 -14.451300 -32.450800
N -13.511800 -14.382700 -28.909100
C -13.297800 -13.880800 -31.297700
H -13.151800 -13.581600 -28.825600
H -12.963900 -14.983300 -28.566600
N -12.752700 -12.638500 -31.108400
H -12.346900 -12.372400 -31.845800
H -12.163600 -12.674800 -30.451800
H -16.095800 -13.501700 -36.315700
H -16.014600 -13.057500 -34.684100
N -15.817500 -12.982100 -35.543100
H -15.460100 -10.612000 -33.030300
C -15.300900 -11.762300 -35.803200
N -15.079400 -11.228900 -36.973600
N -14.978300 -11.226800 -33.445300
N -14.895700 -10.912000 -34.814500
N -14.506400 -9.968800 -36.746000
C -14.393000 -9.806500 -35.455200
H -14.168800 -11.245000 -33.090900
C -13.794800 -8.662200 -34.822200
N -13.602600 -8.573000 -33.517900
H -13.356100 -7.475000 -36.417300
N -13.317100 -7.604100 -35.546900
N -12.927600 -7.382600 -33.391700
C -12.779300 -6.819100 -34.617500
N -12.187100 -5.606500 -34.816400
H -11.681400 -5.617300 -35.546400
H -11.668300 -5.420200 -34.119700
