17
Fragment
O -5.791800 -25.293600 -18.816100
H -5.746100 -23.140700 -19.899400
N -5.061000 -23.623300 -20.093100
C -4.938700 -24.835300 -19.576400
H -4.529200 -27.394200 -19.303000
H -4.455900 -23.318200 -20.622300
C -3.773900 -27.016000 -19.692100
C -3.740000 -25.644400 -19.930600
H -2.756300 -28.733800 -19.866500
C -2.710600 -27.817900 -20.021500
C -2.585000 -25.103400 -20.495100
H -2.543300 -24.189400 -20.661400
C -1.565200 -27.266900 -20.586600
C -1.503600 -25.897500 -20.810900
H -0.735800 -25.518000 -21.172900
O -0.544500 -28.108800 -20.892400
H 0.106400 -27.654900 -21.250600
27
Fragment
H -6.261000 -34.977800 -21.326300
H -5.846400 -36.408200 -20.836600
H -5.721200 -35.181400 -19.868600
C -5.644400 -35.471300 -20.780600
N -4.291300 -32.864600 -20.691100
N -4.273900 -35.236500 -21.255300
O -4.002900 -37.403100 -21.868800
C -3.708200 -33.989300 -21.175600
C -3.538100 -36.276100 -21.760800
H -3.445900 -31.054400 -20.555800
C -3.334100 -31.941500 -20.811800
C -2.424400 -33.760500 -21.585800
N -2.225400 -36.005400 -22.164000
N -2.196800 -32.417600 -21.338200
H -1.908700 -37.961700 -22.479700
C -1.599200 -34.765100 -22.146500
C -1.446100 -37.143600 -22.675000
H -1.337400 -37.056500 -23.624800
H -1.060700 -30.770600 -21.321500
C -0.945300 -31.704200 -21.557600
H -0.709600 -31.748600 -22.497600
H -0.583400 -37.155500 -22.253900
O -0.453700 -34.602900 -22.573100
O 0.023700 -32.989900 -19.767800
C 0.178300 -32.297300 -20.729200
O 1.337600 -31.924400 -21.237600
H 2.026400 -32.279100 -20.724400
44
Fragment
O -5.791800 -25.293600 -18.816100
H -5.746100 -23.140700 -19.899400
N -5.061000 -23.623300 -20.093100
C -4.938700 -24.835300 -19.576400
H -4.529200 -27.394200 -19.303000
H -4.455900 -23.318200 -20.622300
C -3.773900 -27.016000 -19.692100
C -3.740000 -25.644400 -19.930600
H -2.756300 -28.733800 -19.866500
C -2.710600 -27.817900 -20.021500
C -2.585000 -25.103400 -20.495100
H -2.543300 -24.189400 -20.661400
C -1.565200 -27.266900 -20.586600
C -1.503600 -25.897500 -20.810900
H -0.735800 -25.518000 -21.172900
O -0.544500 -28.108800 -20.892400
H 0.106400 -27.654900 -21.250600
H -6.261000 -34.977800 -21.326300
H -5.846400 -36.408200 -20.836600
H -5.721200 -35.181400 -19.868600
C -5.644400 -35.471300 -20.780600
N -4.291300 -32.864600 -20.691100
N -4.273900 -35.236500 -21.255300
O -4.002900 -37.403100 -21.868800
C -3.708200 -33.989300 -21.175600
C -3.538100 -36.276100 -21.760800
H -3.445900 -31.054400 -20.555800
C -3.334100 -31.941500 -20.811800
C -2.424400 -33.760500 -21.585800
N -2.225400 -36.005400 -22.164000
N -2.196800 -32.417600 -21.338200
H -1.908700 -37.961700 -22.479700
C -1.599200 -34.765100 -22.146500
C -1.446100 -37.143600 -22.675000
H -1.337400 -37.056500 -23.624800
H -1.060700 -30.770600 -21.321500
C -0.945300 -31.704200 -21.557600
H -0.709600 -31.748600 -22.497600
H -0.583400 -37.155500 -22.253900
O -0.453700 -34.602900 -22.573100
O 0.023700 -32.989900 -19.767800
C 0.178300 -32.297300 -20.729200
O 1.337600 -31.924400 -21.237600
H 2.026400 -32.279100 -20.724400
