17
Fragment
O -5.791800 -25.293600 -18.816100
H -5.746100 -23.140700 -19.899400
N -5.061000 -23.623300 -20.093100
C -4.938700 -24.835300 -19.576400
H -4.529200 -27.394200 -19.303000
H -4.455900 -23.318200 -20.622300
C -3.773900 -27.016000 -19.692100
C -3.740000 -25.644400 -19.930600
H -2.756300 -28.733800 -19.866500
C -2.710600 -27.817900 -20.021500
C -2.585000 -25.103400 -20.495100
H -2.543300 -24.189400 -20.661400
C -1.565200 -27.266900 -20.586600
C -1.503600 -25.897500 -20.810900
H -0.735800 -25.518000 -21.172900
O -0.544500 -28.108800 -20.892400
H 0.106400 -27.654900 -21.250600
27
Fragment
H -9.289400 -24.382700 -24.189200
O -8.600500 -24.027900 -23.676000
C -7.441200 -24.400800 -24.184500
O -7.286700 -25.093500 -25.145900
O -6.809300 -26.706400 -22.340600
H -6.679600 -29.259000 -22.659700
H -6.553400 -23.852200 -22.416000
C -6.317700 -23.807800 -23.356000
H -6.202200 -22.874100 -23.592100
H -5.925500 -29.160000 -21.288800
C -5.816800 -29.247200 -22.238700
C -5.663700 -26.868600 -22.767100
H -5.354200 -30.065300 -22.434000
N -5.066200 -24.521200 -23.575400
N -5.037500 -28.109000 -22.749700
C -4.838600 -25.864000 -23.327900
C -3.928800 -24.045000 -24.101800
H -3.817100 -23.157900 -24.357800
C -3.724900 -28.379700 -23.152900
C -3.554800 -26.092900 -23.738000
O -3.260100 -29.506700 -23.044800
N -2.989000 -27.340000 -23.658300
N -2.971600 -24.968100 -24.222600
C -1.618600 -27.574900 -24.133000
H -1.541800 -27.284900 -25.045000
H -1.416600 -28.511700 -24.077000
H -1.001900 -27.081300 -23.587400
44
Fragment
O -5.791800 -25.293600 -18.816100
H -5.746100 -23.140700 -19.899400
N -5.061000 -23.623300 -20.093100
C -4.938700 -24.835300 -19.576400
H -4.529200 -27.394200 -19.303000
H -4.455900 -23.318200 -20.622300
C -3.773900 -27.016000 -19.692100
C -3.740000 -25.644400 -19.930600
H -2.756300 -28.733800 -19.866500
C -2.710600 -27.817900 -20.021500
C -2.585000 -25.103400 -20.495100
H -2.543300 -24.189400 -20.661400
C -1.565200 -27.266900 -20.586600
C -1.503600 -25.897500 -20.810900
H -0.735800 -25.518000 -21.172900
O -0.544500 -28.108800 -20.892400
H 0.106400 -27.654900 -21.250600
H -9.289400 -24.382700 -24.189200
O -8.600500 -24.027900 -23.676000
C -7.441200 -24.400800 -24.184500
O -7.286700 -25.093500 -25.145900
O -6.809300 -26.706400 -22.340600
H -6.679600 -29.259000 -22.659700
H -6.553400 -23.852200 -22.416000
C -6.317700 -23.807800 -23.356000
H -6.202200 -22.874100 -23.592100
H -5.925500 -29.160000 -21.288800
C -5.816800 -29.247200 -22.238700
C -5.663700 -26.868600 -22.767100
H -5.354200 -30.065300 -22.434000
N -5.066200 -24.521200 -23.575400
N -5.037500 -28.109000 -22.749700
C -4.838600 -25.864000 -23.327900
C -3.928800 -24.045000 -24.101800
H -3.817100 -23.157900 -24.357800
C -3.724900 -28.379700 -23.152900
C -3.554800 -26.092900 -23.738000
O -3.260100 -29.506700 -23.044800
N -2.989000 -27.340000 -23.658300
N -2.971600 -24.968100 -24.222600
C -1.618600 -27.574900 -24.133000
H -1.541800 -27.284900 -25.045000
H -1.416600 -28.511700 -24.077000
H -1.001900 -27.081300 -23.587400
