17
Fragment
O -5.791800 -25.293600 -18.816100
H -5.746100 -23.140700 -19.899400
N -5.061000 -23.623300 -20.093100
C -4.938700 -24.835300 -19.576400
H -4.529200 -27.394200 -19.303000
H -4.455900 -23.318200 -20.622300
C -3.773900 -27.016000 -19.692100
C -3.740000 -25.644400 -19.930600
H -2.756300 -28.733800 -19.866500
C -2.710600 -27.817900 -20.021500
C -2.585000 -25.103400 -20.495100
H -2.543300 -24.189400 -20.661400
C -1.565200 -27.266900 -20.586600
C -1.503600 -25.897500 -20.810900
H -0.735800 -25.518000 -21.172900
O -0.544500 -28.108800 -20.892400
H 0.106400 -27.654900 -21.250600
27
Fragment
H -6.261000 -19.184900 -21.326300
H -5.846400 -20.615300 -20.836600
H -5.721200 -19.388500 -19.868600
C -5.644400 -19.678400 -20.780600
N -4.291300 -17.071700 -20.691100
N -4.273900 -19.443600 -21.255300
O -4.002900 -21.610200 -21.868800
C -3.708200 -18.196400 -21.175600
C -3.538100 -20.483200 -21.760800
H -3.445900 -15.261500 -20.555800
C -3.334100 -16.148600 -20.811800
C -2.424400 -17.967600 -21.585800
N -2.225400 -20.212500 -22.164000
N -2.196800 -16.624700 -21.338200
H -1.908700 -22.168800 -22.479700
C -1.599200 -18.972200 -22.146500
C -1.446100 -21.350700 -22.675000
H -1.337400 -21.263600 -23.624800
H -1.060700 -14.977700 -21.321500
C -0.945300 -15.911300 -21.557600
H -0.709600 -15.955700 -22.497600
H -0.583400 -21.362600 -22.253900
O -0.453700 -18.810000 -22.573100
O 0.023700 -17.197000 -19.767800
C 0.178300 -16.504400 -20.729200
O 1.337600 -16.131500 -21.237600
H 2.026400 -16.486200 -20.724400
44
Fragment
O -5.791800 -25.293600 -18.816100
H -5.746100 -23.140700 -19.899400
N -5.061000 -23.623300 -20.093100
C -4.938700 -24.835300 -19.576400
H -4.529200 -27.394200 -19.303000
H -4.455900 -23.318200 -20.622300
C -3.773900 -27.016000 -19.692100
C -3.740000 -25.644400 -19.930600
H -2.756300 -28.733800 -19.866500
C -2.710600 -27.817900 -20.021500
C -2.585000 -25.103400 -20.495100
H -2.543300 -24.189400 -20.661400
C -1.565200 -27.266900 -20.586600
C -1.503600 -25.897500 -20.810900
H -0.735800 -25.518000 -21.172900
O -0.544500 -28.108800 -20.892400
H 0.106400 -27.654900 -21.250600
H -6.261000 -19.184900 -21.326300
H -5.846400 -20.615300 -20.836600
H -5.721200 -19.388500 -19.868600
C -5.644400 -19.678400 -20.780600
N -4.291300 -17.071700 -20.691100
N -4.273900 -19.443600 -21.255300
O -4.002900 -21.610200 -21.868800
C -3.708200 -18.196400 -21.175600
C -3.538100 -20.483200 -21.760800
H -3.445900 -15.261500 -20.555800
C -3.334100 -16.148600 -20.811800
C -2.424400 -17.967600 -21.585800
N -2.225400 -20.212500 -22.164000
N -2.196800 -16.624700 -21.338200
H -1.908700 -22.168800 -22.479700
C -1.599200 -18.972200 -22.146500
C -1.446100 -21.350700 -22.675000
H -1.337400 -21.263600 -23.624800
H -1.060700 -14.977700 -21.321500
C -0.945300 -15.911300 -21.557600
H -0.709600 -15.955700 -22.497600
H -0.583400 -21.362600 -22.253900
O -0.453700 -18.810000 -22.573100
O 0.023700 -17.197000 -19.767800
C 0.178300 -16.504400 -20.729200
O 1.337600 -16.131500 -21.237600
H 2.026400 -16.486200 -20.724400
