17
Fragment
O -5.791800 -25.293600 -18.816100
H -5.746100 -23.140700 -19.899400
N -5.061000 -23.623300 -20.093100
C -4.938700 -24.835300 -19.576400
H -4.529200 -27.394200 -19.303000
H -4.455900 -23.318200 -20.622300
C -3.773900 -27.016000 -19.692100
C -3.740000 -25.644400 -19.930600
H -2.756300 -28.733800 -19.866500
C -2.710600 -27.817900 -20.021500
C -2.585000 -25.103400 -20.495100
H -2.543300 -24.189400 -20.661400
C -1.565200 -27.266900 -20.586600
C -1.503600 -25.897500 -20.810900
H -0.735800 -25.518000 -21.172900
O -0.544500 -28.108800 -20.892400
H 0.106400 -27.654900 -21.250600
17
Fragment
H -5.165200 -19.723800 -17.246800
O -4.514400 -19.269900 -17.605000
H -4.323100 -21.860700 -17.324500
C -3.555200 -21.481200 -17.686500
C -3.493600 -20.111800 -17.910800
H -2.515500 -23.189300 -17.836000
C -2.473900 -22.275300 -18.002300
C -2.348200 -19.560800 -18.475900
H -2.302500 -18.644900 -18.630900
C -1.318900 -21.734300 -18.566800
C -1.284900 -20.362700 -18.805300
H -0.603000 -24.060500 -17.875100
H -0.529700 -19.984500 -19.194400
C -0.120100 -22.543400 -18.921000
N 0.002100 -23.755400 -18.404300
H 0.687200 -24.238000 -18.598000
O 0.732900 -22.085100 -19.681300
34
Fragment
O -5.791800 -25.293600 -18.816100
H -5.746100 -23.140700 -19.899400
N -5.061000 -23.623300 -20.093100
C -4.938700 -24.835300 -19.576400
H -4.529200 -27.394200 -19.303000
H -4.455900 -23.318200 -20.622300
C -3.773900 -27.016000 -19.692100
C -3.740000 -25.644400 -19.930600
H -2.756300 -28.733800 -19.866500
C -2.710600 -27.817900 -20.021500
C -2.585000 -25.103400 -20.495100
H -2.543300 -24.189400 -20.661400
C -1.565200 -27.266900 -20.586600
C -1.503600 -25.897500 -20.810900
H -0.735800 -25.518000 -21.172900
O -0.544500 -28.108800 -20.892400
H 0.106400 -27.654900 -21.250600
H -5.165200 -19.723800 -17.246800
O -4.514400 -19.269900 -17.605000
H -4.323100 -21.860700 -17.324500
C -3.555200 -21.481200 -17.686500
C -3.493600 -20.111800 -17.910800
H -2.515500 -23.189300 -17.836000
C -2.473900 -22.275300 -18.002300
C -2.348200 -19.560800 -18.475900
H -2.302500 -18.644900 -18.630900
C -1.318900 -21.734300 -18.566800
C -1.284900 -20.362700 -18.805300
H -0.603000 -24.060500 -17.875100
H -0.529700 -19.984500 -19.194400
C -0.120100 -22.543400 -18.921000
N 0.002100 -23.755400 -18.404300
H 0.687200 -24.238000 -18.598000
O 0.732900 -22.085100 -19.681300
