27
Fragment
H -11.932600 -18.836100 -16.902600
H -11.663300 -17.900100 -18.131000
O -11.332800 -21.019200 -17.140700
C -11.273900 -18.298800 -17.348900
H -10.968500 -17.608600 -16.756200
H -10.648400 -23.395900 -17.670100
O -10.386000 -24.764700 -15.695600
C -10.307800 -20.538300 -17.597700
N -10.135500 -19.146100 -17.745100
H -10.131200 -25.088300 -14.836000
C -9.721200 -23.675300 -17.621000
H -9.613300 -24.447700 -18.197800
C -9.404700 -24.073200 -16.208200
C -9.160000 -21.244700 -18.054500
C -9.028900 -18.504400 -18.277000
O -8.986900 -17.276400 -18.358100
N -8.878800 -22.601200 -18.110000
O -8.372500 -23.822800 -15.627900
C -8.068100 -20.634600 -18.596300
N -7.987500 -19.274000 -18.720700
C -7.660200 -22.711600 -18.671400
H -7.236200 -23.524600 -18.825900
N -7.130300 -21.534900 -18.980700
H -6.890500 -18.741000 -20.313700
C -6.827500 -18.637000 -19.362000
H -6.813500 -17.702500 -19.141800
H -6.020500 -19.051400 -19.047100
17
Fragment
H -9.644400 -28.860100 -16.710500
O -9.439200 -31.361800 -16.888600
H -9.220800 -32.123000 -17.179700
C -8.825000 -29.102800 -17.077000
C -8.506800 -30.438000 -17.263000
O -8.253000 -26.821800 -17.271700
C -7.904500 -28.132700 -17.444600
H -7.559200 -26.326200 -17.367600
C -7.281000 -30.816100 -17.787400
H -7.071500 -31.715500 -17.898300
C -6.680500 -28.487100 -17.988700
C -6.369200 -29.829500 -18.144700
H -6.073700 -27.831300 -18.246900
C -5.051600 -30.230900 -18.695700
O -4.735300 -31.391600 -18.896100
O -4.246100 -29.228400 -18.915600
H -3.400200 -29.560300 -19.224900
44
Fragment
H -11.932600 -18.836100 -16.902600
H -11.663300 -17.900100 -18.131000
O -11.332800 -21.019200 -17.140700
C -11.273900 -18.298800 -17.348900
H -10.968500 -17.608600 -16.756200
H -10.648400 -23.395900 -17.670100
O -10.386000 -24.764700 -15.695600
C -10.307800 -20.538300 -17.597700
N -10.135500 -19.146100 -17.745100
H -10.131200 -25.088300 -14.836000
C -9.721200 -23.675300 -17.621000
H -9.613300 -24.447700 -18.197800
C -9.404700 -24.073200 -16.208200
C -9.160000 -21.244700 -18.054500
C -9.028900 -18.504400 -18.277000
O -8.986900 -17.276400 -18.358100
N -8.878800 -22.601200 -18.110000
O -8.372500 -23.822800 -15.627900
C -8.068100 -20.634600 -18.596300
N -7.987500 -19.274000 -18.720700
C -7.660200 -22.711600 -18.671400
H -7.236200 -23.524600 -18.825900
N -7.130300 -21.534900 -18.980700
H -6.890500 -18.741000 -20.313700
C -6.827500 -18.637000 -19.362000
H -6.813500 -17.702500 -19.141800
H -6.020500 -19.051400 -19.047100
H -9.644400 -28.860100 -16.710500
O -9.439200 -31.361800 -16.888600
H -9.220800 -32.123000 -17.179700
C -8.825000 -29.102800 -17.077000
C -8.506800 -30.438000 -17.263000
O -8.253000 -26.821800 -17.271700
C -7.904500 -28.132700 -17.444600
H -7.559200 -26.326200 -17.367600
C -7.281000 -30.816100 -17.787400
H -7.071500 -31.715500 -17.898300
C -6.680500 -28.487100 -17.988700
C -6.369200 -29.829500 -18.144700
H -6.073700 -27.831300 -18.246900
C -5.051600 -30.230900 -18.695700
O -4.735300 -31.391600 -18.896100
O -4.246100 -29.228400 -18.915600
H -3.400200 -29.560300 -19.224900
