27
Fragment
H -11.932600 -18.836100 -16.902600
H -11.663300 -17.900100 -18.131000
O -11.332800 -21.019200 -17.140700
C -11.273900 -18.298800 -17.348900
H -10.968500 -17.608600 -16.756200
H -10.648400 -23.395900 -17.670100
O -10.386000 -24.764700 -15.695600
C -10.307800 -20.538300 -17.597700
N -10.135500 -19.146100 -17.745100
H -10.131200 -25.088300 -14.836000
C -9.721200 -23.675300 -17.621000
H -9.613300 -24.447700 -18.197800
C -9.404700 -24.073200 -16.208200
C -9.160000 -21.244700 -18.054500
C -9.028900 -18.504400 -18.277000
O -8.986900 -17.276400 -18.358100
N -8.878800 -22.601200 -18.110000
O -8.372500 -23.822800 -15.627900
C -8.068100 -20.634600 -18.596300
N -7.987500 -19.274000 -18.720700
C -7.660200 -22.711600 -18.671400
H -7.236200 -23.524600 -18.825900
N -7.130300 -21.534900 -18.980700
H -6.890500 -18.741000 -20.313700
C -6.827500 -18.637000 -19.362000
H -6.813500 -17.702500 -19.141800
H -6.020500 -19.051400 -19.047100
17
Fragment
H -14.790700 -21.372800 -19.468100
O -13.944800 -21.040900 -19.777500
O -13.455600 -23.204000 -19.796900
C -13.139300 -22.043300 -19.997300
H -12.117200 -19.643700 -20.446200
C -11.821700 -21.642000 -20.548300
C -11.510400 -20.299600 -20.704300
H -11.119300 -23.527900 -20.794700
C -10.909900 -22.628600 -20.905600
H -10.631700 -18.138700 -21.325400
C -10.286400 -19.945200 -21.248400
O -9.937900 -18.634200 -21.421400
C -9.684100 -22.250500 -21.430100
C -9.365900 -20.915300 -21.616000
H -8.970000 -23.935500 -21.513300
O -8.751700 -23.174200 -21.804400
H -8.546400 -20.672600 -21.982500
44
Fragment
H -11.932600 -18.836100 -16.902600
H -11.663300 -17.900100 -18.131000
O -11.332800 -21.019200 -17.140700
C -11.273900 -18.298800 -17.348900
H -10.968500 -17.608600 -16.756200
H -10.648400 -23.395900 -17.670100
O -10.386000 -24.764700 -15.695600
C -10.307800 -20.538300 -17.597700
N -10.135500 -19.146100 -17.745100
H -10.131200 -25.088300 -14.836000
C -9.721200 -23.675300 -17.621000
H -9.613300 -24.447700 -18.197800
C -9.404700 -24.073200 -16.208200
C -9.160000 -21.244700 -18.054500
C -9.028900 -18.504400 -18.277000
O -8.986900 -17.276400 -18.358100
N -8.878800 -22.601200 -18.110000
O -8.372500 -23.822800 -15.627900
C -8.068100 -20.634600 -18.596300
N -7.987500 -19.274000 -18.720700
C -7.660200 -22.711600 -18.671400
H -7.236200 -23.524600 -18.825900
N -7.130300 -21.534900 -18.980700
H -6.890500 -18.741000 -20.313700
C -6.827500 -18.637000 -19.362000
H -6.813500 -17.702500 -19.141800
H -6.020500 -19.051400 -19.047100
H -14.790700 -21.372800 -19.468100
O -13.944800 -21.040900 -19.777500
O -13.455600 -23.204000 -19.796900
C -13.139300 -22.043300 -19.997300
H -12.117200 -19.643700 -20.446200
C -11.821700 -21.642000 -20.548300
C -11.510400 -20.299600 -20.704300
H -11.119300 -23.527900 -20.794700
C -10.909900 -22.628600 -20.905600
H -10.631700 -18.138700 -21.325400
C -10.286400 -19.945200 -21.248400
O -9.937900 -18.634200 -21.421400
C -9.684100 -22.250500 -21.430100
C -9.365900 -20.915300 -21.616000
H -8.970000 -23.935500 -21.513300
O -8.751700 -23.174200 -21.804400
H -8.546400 -20.672600 -21.982500
