27
Fragment
H -11.932600 -18.836100 -16.902600
H -11.663300 -17.900100 -18.131000
O -11.332800 -21.019200 -17.140700
C -11.273900 -18.298800 -17.348900
H -10.968500 -17.608600 -16.756200
H -10.648400 -23.395900 -17.670100
O -10.386000 -24.764700 -15.695600
C -10.307800 -20.538300 -17.597700
N -10.135500 -19.146100 -17.745100
H -10.131200 -25.088300 -14.836000
C -9.721200 -23.675300 -17.621000
H -9.613300 -24.447700 -18.197800
C -9.404700 -24.073200 -16.208200
C -9.160000 -21.244700 -18.054500
C -9.028900 -18.504400 -18.277000
O -8.986900 -17.276400 -18.358100
N -8.878800 -22.601200 -18.110000
O -8.372500 -23.822800 -15.627900
C -8.068100 -20.634600 -18.596300
N -7.987500 -19.274000 -18.720700
C -7.660200 -22.711600 -18.671400
H -7.236200 -23.524600 -18.825900
N -7.130300 -21.534900 -18.980700
H -6.890500 -18.741000 -20.313700
C -6.827500 -18.637000 -19.362000
H -6.813500 -17.702500 -19.141800
H -6.020500 -19.051400 -19.047100
17
Fragment
H -15.018500 -28.452700 -11.183000
O -14.813300 -25.951100 -11.361100
H -14.594900 -25.189800 -11.652100
C -14.199100 -28.210000 -11.549400
C -13.880900 -26.874800 -11.735400
O -13.627100 -30.491100 -11.744100
C -13.278600 -29.180100 -11.917000
H -12.933300 -30.986600 -11.840100
C -12.655100 -26.496700 -12.259800
H -12.445600 -25.597400 -12.370700
C -12.054600 -28.825700 -12.461100
C -11.743300 -27.483300 -12.617100
H -11.447800 -29.481600 -12.719300
C -10.425700 -27.082000 -13.168100
O -10.109400 -25.921300 -13.368600
O -9.620200 -28.084400 -13.388000
H -8.774300 -27.752500 -13.697300
44
Fragment
H -11.932600 -18.836100 -16.902600
H -11.663300 -17.900100 -18.131000
O -11.332800 -21.019200 -17.140700
C -11.273900 -18.298800 -17.348900
H -10.968500 -17.608600 -16.756200
H -10.648400 -23.395900 -17.670100
O -10.386000 -24.764700 -15.695600
C -10.307800 -20.538300 -17.597700
N -10.135500 -19.146100 -17.745100
H -10.131200 -25.088300 -14.836000
C -9.721200 -23.675300 -17.621000
H -9.613300 -24.447700 -18.197800
C -9.404700 -24.073200 -16.208200
C -9.160000 -21.244700 -18.054500
C -9.028900 -18.504400 -18.277000
O -8.986900 -17.276400 -18.358100
N -8.878800 -22.601200 -18.110000
O -8.372500 -23.822800 -15.627900
C -8.068100 -20.634600 -18.596300
N -7.987500 -19.274000 -18.720700
C -7.660200 -22.711600 -18.671400
H -7.236200 -23.524600 -18.825900
N -7.130300 -21.534900 -18.980700
H -6.890500 -18.741000 -20.313700
C -6.827500 -18.637000 -19.362000
H -6.813500 -17.702500 -19.141800
H -6.020500 -19.051400 -19.047100
H -15.018500 -28.452700 -11.183000
O -14.813300 -25.951100 -11.361100
H -14.594900 -25.189800 -11.652100
C -14.199100 -28.210000 -11.549400
C -13.880900 -26.874800 -11.735400
O -13.627100 -30.491100 -11.744100
C -13.278600 -29.180100 -11.917000
H -12.933300 -30.986600 -11.840100
C -12.655100 -26.496700 -12.259800
H -12.445600 -25.597400 -12.370700
C -12.054600 -28.825700 -12.461100
C -11.743300 -27.483300 -12.617100
H -11.447800 -29.481600 -12.719300
C -10.425700 -27.082000 -13.168100
O -10.109400 -25.921300 -13.368600
O -9.620200 -28.084400 -13.388000
H -8.774300 -27.752500 -13.697300
