17
Fragment
H -6.849100 -24.954500 -18.887700
O -6.158900 -25.552400 -19.035900
O -5.374400 -23.829700 -20.198500
C -5.235000 -24.983800 -19.772500
H -4.718700 -27.531300 -19.266100
C -4.066100 -25.791000 -20.064600
C -4.000700 -27.144400 -19.712900
H -3.724900 -23.539000 -20.973300
C -2.958500 -25.227900 -20.729700
O -2.919900 -23.945000 -21.146500
C -2.909200 -27.912400 -20.008500
H -2.897100 -28.815100 -19.784800
C -1.841100 -25.997000 -20.998700
C -1.813900 -27.331000 -20.649000
H -1.104500 -25.612900 -21.417200
O -0.759500 -28.135900 -20.929300
H -0.125000 -27.666200 -21.284300
17
Fragment
H -5.407800 -20.102800 -17.579300
O -4.773300 -19.633100 -17.934200
H -4.428300 -22.156100 -17.446400
C -3.718900 -20.438000 -18.214600
C -3.691700 -21.772000 -17.864800
H -2.635800 -18.953900 -19.078800
C -2.623700 -19.856600 -18.855000
O -2.613000 -23.824000 -17.717000
C -2.574300 -22.541100 -18.133800
H -1.807900 -24.230000 -17.890200
C -1.532100 -20.624600 -19.150600
C -1.466700 -21.978000 -18.798900
H -0.814100 -20.237700 -19.597400
C -0.297900 -22.785200 -19.091100
O -0.158400 -23.939300 -18.665000
O 0.626100 -22.216600 -19.827700
H 1.316300 -22.814500 -19.975900
34
Fragment
H -6.849100 -24.954500 -18.887700
O -6.158900 -25.552400 -19.035900
O -5.374400 -23.829700 -20.198500
C -5.235000 -24.983800 -19.772500
H -4.718700 -27.531300 -19.266100
C -4.066100 -25.791000 -20.064600
C -4.000700 -27.144400 -19.712900
H -3.724900 -23.539000 -20.973300
C -2.958500 -25.227900 -20.729700
O -2.919900 -23.945000 -21.146500
C -2.909200 -27.912400 -20.008500
H -2.897100 -28.815100 -19.784800
C -1.841100 -25.997000 -20.998700
C -1.813900 -27.331000 -20.649000
H -1.104500 -25.612900 -21.417200
O -0.759500 -28.135900 -20.929300
H -0.125000 -27.666200 -21.284300
H -5.407800 -20.102800 -17.579300
O -4.773300 -19.633100 -17.934200
H -4.428300 -22.156100 -17.446400
C -3.718900 -20.438000 -18.214600
C -3.691700 -21.772000 -17.864800
H -2.635800 -18.953900 -19.078800
C -2.623700 -19.856600 -18.855000
O -2.613000 -23.824000 -17.717000
C -2.574300 -22.541100 -18.133800
H -1.807900 -24.230000 -17.890200
C -1.532100 -20.624600 -19.150600
C -1.466700 -21.978000 -18.798900
H -0.814100 -20.237700 -19.597400
C -0.297900 -22.785200 -19.091100
O -0.158400 -23.939300 -18.665000
O 0.626100 -22.216600 -19.827700
H 1.316300 -22.814500 -19.975900
