17
Fragment
H -6.849100 -24.954500 -18.887700
O -6.158900 -25.552400 -19.035900
O -5.374400 -23.829700 -20.198500
C -5.235000 -24.983800 -19.772500
H -4.718700 -27.531300 -19.266100
C -4.066100 -25.791000 -20.064600
C -4.000700 -27.144400 -19.712900
H -3.724900 -23.539000 -20.973300
C -2.958500 -25.227900 -20.729700
O -2.919900 -23.945000 -21.146500
C -2.909200 -27.912400 -20.008500
H -2.897100 -28.815100 -19.784800
C -1.841100 -25.997000 -20.998700
C -1.813900 -27.331000 -20.649000
H -1.104500 -25.612900 -21.417200
O -0.759500 -28.135900 -20.929300
H -0.125000 -27.666200 -21.284300
27
Fragment
H -6.634500 -19.132400 -21.619400
H -6.211500 -20.530600 -21.050700
H -6.105800 -19.253000 -20.148500
C -6.018100 -19.590400 -21.043300
N -4.649900 -19.368900 -21.516900
N -4.609100 -17.019800 -20.873700
O -4.436500 -21.524700 -22.181400
C -4.061200 -18.136300 -21.416900
C -3.954000 -20.417700 -22.067600
H -3.740900 -15.227300 -20.711700
C -3.650200 -16.106100 -21.001800
C -2.793700 -17.912100 -21.869900
N -2.637800 -20.149300 -22.501100
N -2.542700 -16.576500 -21.589900
H -2.280400 -22.109200 -22.745500
C -2.005100 -18.913000 -22.488600
H -1.908900 -21.257000 -24.007700
C -1.884700 -21.288700 -23.048700
H -1.400100 -14.940700 -21.551800
C -1.291200 -15.871100 -21.803700
H -1.061900 -15.901800 -22.745400
H -0.973600 -21.243400 -22.749700
O -0.875700 -18.752200 -22.970200
O -0.316700 -17.282300 -20.119600
C -0.174000 -16.478900 -20.998000
O 0.981400 -16.007400 -21.427300
H 1.635500 -16.408700 -20.999300
44
Fragment
H -6.849100 -24.954500 -18.887700
O -6.158900 -25.552400 -19.035900
O -5.374400 -23.829700 -20.198500
C -5.235000 -24.983800 -19.772500
H -4.718700 -27.531300 -19.266100
C -4.066100 -25.791000 -20.064600
C -4.000700 -27.144400 -19.712900
H -3.724900 -23.539000 -20.973300
C -2.958500 -25.227900 -20.729700
O -2.919900 -23.945000 -21.146500
C -2.909200 -27.912400 -20.008500
H -2.897100 -28.815100 -19.784800
C -1.841100 -25.997000 -20.998700
C -1.813900 -27.331000 -20.649000
H -1.104500 -25.612900 -21.417200
O -0.759500 -28.135900 -20.929300
H -0.125000 -27.666200 -21.284300
H -6.634500 -19.132400 -21.619400
H -6.211500 -20.530600 -21.050700
H -6.105800 -19.253000 -20.148500
C -6.018100 -19.590400 -21.043300
N -4.649900 -19.368900 -21.516900
N -4.609100 -17.019800 -20.873700
O -4.436500 -21.524700 -22.181400
C -4.061200 -18.136300 -21.416900
C -3.954000 -20.417700 -22.067600
H -3.740900 -15.227300 -20.711700
C -3.650200 -16.106100 -21.001800
C -2.793700 -17.912100 -21.869900
N -2.637800 -20.149300 -22.501100
N -2.542700 -16.576500 -21.589900
H -2.280400 -22.109200 -22.745500
C -2.005100 -18.913000 -22.488600
H -1.908900 -21.257000 -24.007700
C -1.884700 -21.288700 -23.048700
H -1.400100 -14.940700 -21.551800
C -1.291200 -15.871100 -21.803700
H -1.061900 -15.901800 -22.745400
H -0.973600 -21.243400 -22.749700
O -0.875700 -18.752200 -22.970200
O -0.316700 -17.282300 -20.119600
C -0.174000 -16.478900 -20.998000
O 0.981400 -16.007400 -21.427300
H 1.635500 -16.408700 -20.999300
