15
Fragment
N -15.667300 -30.973900 -12.699800
H -15.667300 -28.953400 -12.821600
H -15.400500 -32.906300 -12.380900
C -15.394200 -29.679700 -12.309900
C -15.249300 -32.050500 -12.052100
C -14.705700 -29.509500 -11.142100
C -14.584600 -31.838200 -10.874400
H -14.519600 -28.648900 -10.845800
H -14.325500 -32.579800 -10.375100
C -14.280400 -30.588300 -10.391300
H -13.531900 -28.432900 -9.238300
C -13.524200 -30.346600 -9.099300
N -13.256500 -29.084000 -8.747300
O -13.176200 -31.350400 -8.466900
H -12.809200 -28.921900 -8.030600
15
Fragment
H -21.510800 -30.361700 -16.616800
O -21.143900 -27.933100 -16.180500
N -21.063600 -30.199500 -15.900000
C -20.795900 -28.937000 -15.548000
H -20.788100 -30.850600 -15.409000
C -20.039600 -28.695200 -14.256000
H -19.994600 -26.703700 -14.272300
H -19.800400 -30.634600 -13.801500
C -19.735500 -27.445400 -13.772900
C -19.614400 -29.774100 -13.505300
C -19.070800 -27.233100 -12.595300
C -18.925800 -29.603900 -12.337500
H -18.919600 -26.377200 -12.266500
N -18.652800 -28.309700 -11.947600
H -18.652700 -30.330200 -11.825800
30
Fragment
N -15.667300 -30.973900 -12.699800
H -15.667300 -28.953400 -12.821600
H -15.400500 -32.906300 -12.380900
C -15.394200 -29.679700 -12.309900
C -15.249300 -32.050500 -12.052100
C -14.705700 -29.509500 -11.142100
C -14.584600 -31.838200 -10.874400
H -14.519600 -28.648900 -10.845800
H -14.325500 -32.579800 -10.375100
C -14.280400 -30.588300 -10.391300
H -13.531900 -28.432900 -9.238300
C -13.524200 -30.346600 -9.099300
N -13.256500 -29.084000 -8.747300
O -13.176200 -31.350400 -8.466900
H -12.809200 -28.921900 -8.030600
H -21.510800 -30.361700 -16.616800
O -21.143900 -27.933100 -16.180500
N -21.063600 -30.199500 -15.900000
C -20.795900 -28.937000 -15.548000
H -20.788100 -30.850600 -15.409000
C -20.039600 -28.695200 -14.256000
H -19.994600 -26.703700 -14.272300
H -19.800400 -30.634600 -13.801500
C -19.735500 -27.445400 -13.772900
C -19.614400 -29.774100 -13.505300
C -19.070800 -27.233100 -12.595300
C -18.925800 -29.603900 -12.337500
H -18.919600 -26.377200 -12.266500
N -18.652800 -28.309700 -11.947600
H -18.652700 -30.330200 -11.825800
