15
Fragment
N -15.667300 -30.973900 -12.699800
H -15.667300 -28.953400 -12.821600
H -15.400500 -32.906300 -12.380900
C -15.394200 -29.679700 -12.309900
C -15.249300 -32.050500 -12.052100
C -14.705700 -29.509500 -11.142100
C -14.584600 -31.838200 -10.874400
H -14.519600 -28.648900 -10.845800
H -14.325500 -32.579800 -10.375100
C -14.280400 -30.588300 -10.391300
H -13.531900 -28.432900 -9.238300
C -13.524200 -30.346600 -9.099300
N -13.256500 -29.084000 -8.747300
O -13.176200 -31.350400 -8.466900
H -12.809200 -28.921900 -8.030600
15
Fragment
H -16.876700 -35.889000 -10.035400
H -16.423400 -38.151600 -10.027000
C -16.198800 -36.246500 -10.561900
C -15.901300 -37.584000 -10.547100
N -15.465200 -35.487800 -11.369800
C -14.856300 -38.127300 -11.273700
O -14.657200 -40.175200 -10.166500
C -14.445600 -39.575600 -11.228400
C -14.412100 -35.951200 -12.125500
C -14.090000 -37.291600 -12.074200
H -13.925000 -35.369900 -12.662300
N -13.894500 -40.137100 -12.308400
H -13.771000 -39.670300 -13.020200
H -13.662900 -40.966000 -12.291600
H -13.376300 -37.627500 -12.565200
30
Fragment
N -15.667300 -30.973900 -12.699800
H -15.667300 -28.953400 -12.821600
H -15.400500 -32.906300 -12.380900
C -15.394200 -29.679700 -12.309900
C -15.249300 -32.050500 -12.052100
C -14.705700 -29.509500 -11.142100
C -14.584600 -31.838200 -10.874400
H -14.519600 -28.648900 -10.845800
H -14.325500 -32.579800 -10.375100
C -14.280400 -30.588300 -10.391300
H -13.531900 -28.432900 -9.238300
C -13.524200 -30.346600 -9.099300
N -13.256500 -29.084000 -8.747300
O -13.176200 -31.350400 -8.466900
H -12.809200 -28.921900 -8.030600
H -16.876700 -35.889000 -10.035400
H -16.423400 -38.151600 -10.027000
C -16.198800 -36.246500 -10.561900
C -15.901300 -37.584000 -10.547100
N -15.465200 -35.487800 -11.369800
C -14.856300 -38.127300 -11.273700
O -14.657200 -40.175200 -10.166500
C -14.445600 -39.575600 -11.228400
C -14.412100 -35.951200 -12.125500
C -14.090000 -37.291600 -12.074200
H -13.925000 -35.369900 -12.662300
N -13.894500 -40.137100 -12.308400
H -13.771000 -39.670300 -13.020200
H -13.662900 -40.966000 -12.291600
H -13.376300 -37.627500 -12.565200
