16
Fragment
O -6.344400 -25.215300 -18.941400
H -6.298800 -23.223000 -20.004400
O -5.518700 -23.651700 -20.268900
C -5.448800 -24.783500 -19.701800
H -4.915000 -27.314600 -19.173000
C -4.246700 -25.587300 -19.973300
C -4.195700 -26.931100 -19.619000
H -3.180000 -24.136000 -20.898600
C -3.152500 -25.028000 -20.635400
C -3.098000 -27.698400 -19.919000
H -3.086500 -28.600100 -19.694900
C -2.040700 -25.779500 -20.903100
C -2.000000 -27.124100 -20.561700
H -1.306200 -25.385900 -21.317500
O -0.946000 -27.927000 -20.831700
H -0.296800 -27.440500 -21.284500
16
Fragment
H -13.727000 -20.018000 -17.508700
O -13.077700 -19.531500 -17.961500
H -12.717500 -22.072600 -17.475700
C -12.023700 -20.334400 -18.231500
C -11.983000 -21.679000 -17.890100
H -10.937300 -18.858400 -19.098300
C -10.925800 -19.760100 -18.874200
C -10.871200 -22.430500 -18.157800
H -10.843700 -23.322500 -17.894700
C -9.828000 -20.527400 -19.174200
C -9.777000 -21.871200 -18.819900
H -9.108700 -20.143900 -19.620200
C -8.574900 -22.675000 -19.091400
O -8.505000 -23.806800 -18.524300
H -7.725000 -24.235500 -18.788800
O -7.679300 -22.243200 -19.851800
32
Fragment
O -6.344400 -25.215300 -18.941400
H -6.298800 -23.223000 -20.004400
O -5.518700 -23.651700 -20.268900
C -5.448800 -24.783500 -19.701800
H -4.915000 -27.314600 -19.173000
C -4.246700 -25.587300 -19.973300
C -4.195700 -26.931100 -19.619000
H -3.180000 -24.136000 -20.898600
C -3.152500 -25.028000 -20.635400
C -3.098000 -27.698400 -19.919000
H -3.086500 -28.600100 -19.694900
C -2.040700 -25.779500 -20.903100
C -2.000000 -27.124100 -20.561700
H -1.306200 -25.385900 -21.317500
O -0.946000 -27.927000 -20.831700
H -0.296800 -27.440500 -21.284500
H -13.727000 -20.018000 -17.508700
O -13.077700 -19.531500 -17.961500
H -12.717500 -22.072600 -17.475700
C -12.023700 -20.334400 -18.231500
C -11.983000 -21.679000 -17.890100
H -10.937300 -18.858400 -19.098300
C -10.925800 -19.760100 -18.874200
C -10.871200 -22.430500 -18.157800
H -10.843700 -23.322500 -17.894700
C -9.828000 -20.527400 -19.174200
C -9.777000 -21.871200 -18.819900
H -9.108700 -20.143900 -19.620200
C -8.574900 -22.675000 -19.091400
O -8.505000 -23.806800 -18.524300
H -7.725000 -24.235500 -18.788800
O -7.679300 -22.243200 -19.851800
