15
Fragment
N -15.667300 -30.973900 -12.699800
H -15.667300 -28.953400 -12.821600
H -15.400500 -32.906300 -12.380900
C -15.394200 -29.679700 -12.309900
C -15.249300 -32.050500 -12.052100
C -14.705700 -29.509500 -11.142100
C -14.584600 -31.838200 -10.874400
H -14.519600 -28.648900 -10.845800
H -14.325500 -32.579800 -10.375100
C -14.280400 -30.588300 -10.391300
H -13.531900 -28.432900 -9.238300
C -13.524200 -30.346600 -9.099300
N -13.256500 -29.084000 -8.747300
O -13.176200 -31.350400 -8.466900
H -12.809200 -28.921900 -8.030600
15
Fragment
N -16.576700 -31.376700 -7.770300
H -16.576700 -29.356100 -7.892100
H -16.309800 -33.309100 -7.451400
C -16.303600 -30.082400 -7.380400
C -16.158600 -32.453200 -7.122600
C -15.615100 -29.912200 -6.212600
C -15.493900 -32.240900 -5.944900
H -15.429000 -29.051700 -5.916400
H -15.234800 -32.982600 -5.445600
C -15.189800 -30.991100 -5.461900
H -14.441300 -28.835700 -4.308900
C -14.433600 -30.749300 -4.169800
N -14.165800 -29.486800 -3.817900
O -14.085500 -31.753200 -3.537400
H -13.718600 -29.324700 -3.101100
30
Fragment
N -15.667300 -30.973900 -12.699800
H -15.667300 -28.953400 -12.821600
H -15.400500 -32.906300 -12.380900
C -15.394200 -29.679700 -12.309900
C -15.249300 -32.050500 -12.052100
C -14.705700 -29.509500 -11.142100
C -14.584600 -31.838200 -10.874400
H -14.519600 -28.648900 -10.845800
H -14.325500 -32.579800 -10.375100
C -14.280400 -30.588300 -10.391300
H -13.531900 -28.432900 -9.238300
C -13.524200 -30.346600 -9.099300
N -13.256500 -29.084000 -8.747300
O -13.176200 -31.350400 -8.466900
H -12.809200 -28.921900 -8.030600
N -16.576700 -31.376700 -7.770300
H -16.576700 -29.356100 -7.892100
H -16.309800 -33.309100 -7.451400
C -16.303600 -30.082400 -7.380400
C -16.158600 -32.453200 -7.122600
C -15.615100 -29.912200 -6.212600
C -15.493900 -32.240900 -5.944900
H -15.429000 -29.051700 -5.916400
H -15.234800 -32.982600 -5.445600
C -15.189800 -30.991100 -5.461900
H -14.441300 -28.835700 -4.308900
C -14.433600 -30.749300 -4.169800
N -14.165800 -29.486800 -3.817900
O -14.085500 -31.753200 -3.537400
H -13.718600 -29.324700 -3.101100
