15
Fragment
N -15.667300 -30.973900 -12.699800
H -15.667300 -28.953400 -12.821600
H -15.400500 -32.906300 -12.380900
C -15.394200 -29.679700 -12.309900
C -15.249300 -32.050500 -12.052100
C -14.705700 -29.509500 -11.142100
C -14.584600 -31.838200 -10.874400
H -14.519600 -28.648900 -10.845800
H -14.325500 -32.579800 -10.375100
C -14.280400 -30.588300 -10.391300
H -13.531900 -28.432900 -9.238300
C -13.524200 -30.346600 -9.099300
N -13.256500 -29.084000 -8.747300
O -13.176200 -31.350400 -8.466900
H -12.809200 -28.921900 -8.030600
27
Fragment
H -13.214500 -34.742100 -8.992300
C -12.350800 -34.638400 -8.586200
H -12.340000 -35.087800 -7.738300
O -12.271200 -37.328700 -9.295000
H -12.167700 -33.705100 -8.456000
C -11.421100 -36.582800 -9.771700
H -11.315100 -38.959100 -10.471700
N -11.303100 -35.233500 -9.480900
H -10.672700 -38.689100 -11.876100
C -10.565200 -38.572300 -10.929100
N -10.486900 -37.140900 -10.618100
O -10.316900 -33.191000 -9.671100
C -10.297000 -34.361200 -9.953600
H -9.757600 -39.006300 -10.643700
C -9.496200 -36.349600 -11.150500
C -9.389100 -35.029300 -10.829600
N -8.501800 -36.741200 -12.009200
H -8.465900 -32.565900 -11.570500
N -8.309300 -34.561500 -11.553700
C -7.812100 -35.613900 -12.202400
C -7.755800 -33.218100 -11.466000
H -7.112900 -33.082200 -12.178800
C -7.077100 -33.025700 -10.118700
H -7.054400 -35.567900 -12.739700
O -6.955500 -33.887700 -9.321600
O -6.679900 -31.770000 -9.982700
H -6.315700 -31.676300 -9.254100
42
Fragment
N -15.667300 -30.973900 -12.699800
H -15.667300 -28.953400 -12.821600
H -15.400500 -32.906300 -12.380900
C -15.394200 -29.679700 -12.309900
C -15.249300 -32.050500 -12.052100
C -14.705700 -29.509500 -11.142100
C -14.584600 -31.838200 -10.874400
H -14.519600 -28.648900 -10.845800
H -14.325500 -32.579800 -10.375100
C -14.280400 -30.588300 -10.391300
H -13.531900 -28.432900 -9.238300
C -13.524200 -30.346600 -9.099300
N -13.256500 -29.084000 -8.747300
O -13.176200 -31.350400 -8.466900
H -12.809200 -28.921900 -8.030600
H -13.214500 -34.742100 -8.992300
C -12.350800 -34.638400 -8.586200
H -12.340000 -35.087800 -7.738300
O -12.271200 -37.328700 -9.295000
H -12.167700 -33.705100 -8.456000
C -11.421100 -36.582800 -9.771700
H -11.315100 -38.959100 -10.471700
N -11.303100 -35.233500 -9.480900
H -10.672700 -38.689100 -11.876100
C -10.565200 -38.572300 -10.929100
N -10.486900 -37.140900 -10.618100
O -10.316900 -33.191000 -9.671100
C -10.297000 -34.361200 -9.953600
H -9.757600 -39.006300 -10.643700
C -9.496200 -36.349600 -11.150500
C -9.389100 -35.029300 -10.829600
N -8.501800 -36.741200 -12.009200
H -8.465900 -32.565900 -11.570500
N -8.309300 -34.561500 -11.553700
C -7.812100 -35.613900 -12.202400
C -7.755800 -33.218100 -11.466000
H -7.112900 -33.082200 -12.178800
C -7.077100 -33.025700 -10.118700
H -7.054400 -35.567900 -12.739700
O -6.955500 -33.887700 -9.321600
O -6.679900 -31.770000 -9.982700
H -6.315700 -31.676300 -9.254100
