15
Fragment
N -15.667300 -30.973900 -12.699800
H -15.667300 -28.953400 -12.821600
H -15.400500 -32.906300 -12.380900
C -15.394200 -29.679700 -12.309900
C -15.249300 -32.050500 -12.052100
C -14.705700 -29.509500 -11.142100
C -14.584600 -31.838200 -10.874400
H -14.519600 -28.648900 -10.845800
H -14.325500 -32.579800 -10.375100
C -14.280400 -30.588300 -10.391300
H -13.531900 -28.432900 -9.238300
C -13.524200 -30.346600 -9.099300
N -13.256500 -29.084000 -8.747300
O -13.176200 -31.350400 -8.466900
H -12.809200 -28.921900 -8.030600
15
Fragment
N -14.758000 -30.571100 -17.629300
H -14.758000 -28.550600 -17.751000
H -14.491100 -32.503500 -17.310300
C -14.484900 -29.276900 -17.239300
C -14.339900 -31.647700 -16.981500
C -13.796400 -29.106700 -16.071600
C -13.675200 -31.435400 -15.803900
H -13.610300 -28.246200 -15.775300
H -13.416200 -32.177000 -15.304500
C -13.371100 -30.185600 -15.320800
H -12.622600 -28.030200 -14.167800
C -12.614900 -29.943800 -14.028800
N -12.347100 -28.681200 -13.676800
O -12.266800 -30.947600 -13.396300
H -11.899900 -28.519100 -12.960100
30
Fragment
N -15.667300 -30.973900 -12.699800
H -15.667300 -28.953400 -12.821600
H -15.400500 -32.906300 -12.380900
C -15.394200 -29.679700 -12.309900
C -15.249300 -32.050500 -12.052100
C -14.705700 -29.509500 -11.142100
C -14.584600 -31.838200 -10.874400
H -14.519600 -28.648900 -10.845800
H -14.325500 -32.579800 -10.375100
C -14.280400 -30.588300 -10.391300
H -13.531900 -28.432900 -9.238300
C -13.524200 -30.346600 -9.099300
N -13.256500 -29.084000 -8.747300
O -13.176200 -31.350400 -8.466900
H -12.809200 -28.921900 -8.030600
N -14.758000 -30.571100 -17.629300
H -14.758000 -28.550600 -17.751000
H -14.491100 -32.503500 -17.310300
C -14.484900 -29.276900 -17.239300
C -14.339900 -31.647700 -16.981500
C -13.796400 -29.106700 -16.071600
C -13.675200 -31.435400 -15.803900
H -13.610300 -28.246200 -15.775300
H -13.416200 -32.177000 -15.304500
C -13.371100 -30.185600 -15.320800
H -12.622600 -28.030200 -14.167800
C -12.614900 -29.943800 -14.028800
N -12.347100 -28.681200 -13.676800
O -12.266800 -30.947600 -13.396300
H -11.899900 -28.519100 -12.960100
