15
Fragment
N -15.667300 -30.973900 -12.699800
H -15.667300 -28.953400 -12.821600
H -15.400500 -32.906300 -12.380900
C -15.394200 -29.679700 -12.309900
C -15.249300 -32.050500 -12.052100
C -14.705700 -29.509500 -11.142100
C -14.584600 -31.838200 -10.874400
H -14.519600 -28.648900 -10.845800
H -14.325500 -32.579800 -10.375100
C -14.280400 -30.588300 -10.391300
H -13.531900 -28.432900 -9.238300
C -13.524200 -30.346600 -9.099300
N -13.256500 -29.084000 -8.747300
O -13.176200 -31.350400 -8.466900
H -12.809200 -28.921900 -8.030600
27
Fragment
H -24.398400 -34.742100 -8.992300
C -23.534700 -34.638400 -8.586200
H -23.523900 -35.087800 -7.738300
O -23.455100 -37.328700 -9.295000
H -23.351600 -33.705100 -8.456000
C -22.605000 -36.582800 -9.771700
H -22.499000 -38.959100 -10.471700
N -22.487000 -35.233500 -9.480900
H -21.856600 -38.689100 -11.876100
C -21.749100 -38.572300 -10.929100
N -21.670800 -37.140900 -10.618100
O -21.500800 -33.191000 -9.671100
C -21.480900 -34.361200 -9.953600
H -20.941500 -39.006300 -10.643700
C -20.680100 -36.349600 -11.150500
C -20.573000 -35.029300 -10.829600
N -19.685700 -36.741200 -12.009200
H -19.649800 -32.565900 -11.570500
N -19.493200 -34.561500 -11.553700
C -18.996000 -35.613900 -12.202400
C -18.939700 -33.218100 -11.466000
H -18.296800 -33.082200 -12.178800
C -18.261000 -33.025700 -10.118700
H -18.238300 -35.567900 -12.739700
O -18.139400 -33.887700 -9.321600
O -17.863800 -31.770000 -9.982700
H -17.499600 -31.676300 -9.254100
42
Fragment
N -15.667300 -30.973900 -12.699800
H -15.667300 -28.953400 -12.821600
H -15.400500 -32.906300 -12.380900
C -15.394200 -29.679700 -12.309900
C -15.249300 -32.050500 -12.052100
C -14.705700 -29.509500 -11.142100
C -14.584600 -31.838200 -10.874400
H -14.519600 -28.648900 -10.845800
H -14.325500 -32.579800 -10.375100
C -14.280400 -30.588300 -10.391300
H -13.531900 -28.432900 -9.238300
C -13.524200 -30.346600 -9.099300
N -13.256500 -29.084000 -8.747300
O -13.176200 -31.350400 -8.466900
H -12.809200 -28.921900 -8.030600
H -24.398400 -34.742100 -8.992300
C -23.534700 -34.638400 -8.586200
H -23.523900 -35.087800 -7.738300
O -23.455100 -37.328700 -9.295000
H -23.351600 -33.705100 -8.456000
C -22.605000 -36.582800 -9.771700
H -22.499000 -38.959100 -10.471700
N -22.487000 -35.233500 -9.480900
H -21.856600 -38.689100 -11.876100
C -21.749100 -38.572300 -10.929100
N -21.670800 -37.140900 -10.618100
O -21.500800 -33.191000 -9.671100
C -21.480900 -34.361200 -9.953600
H -20.941500 -39.006300 -10.643700
C -20.680100 -36.349600 -11.150500
C -20.573000 -35.029300 -10.829600
N -19.685700 -36.741200 -12.009200
H -19.649800 -32.565900 -11.570500
N -19.493200 -34.561500 -11.553700
C -18.996000 -35.613900 -12.202400
C -18.939700 -33.218100 -11.466000
H -18.296800 -33.082200 -12.178800
C -18.261000 -33.025700 -10.118700
H -18.238300 -35.567900 -12.739700
O -18.139400 -33.887700 -9.321600
O -17.863800 -31.770000 -9.982700
H -17.499600 -31.676300 -9.254100
