16
Fragment
O -6.344400 -25.215300 -18.941400
H -6.298800 -23.223000 -20.004400
O -5.518700 -23.651700 -20.268900
C -5.448800 -24.783500 -19.701800
H -4.915000 -27.314600 -19.173000
C -4.246700 -25.587300 -19.973300
C -4.195700 -26.931100 -19.619000
H -3.180000 -24.136000 -20.898600
C -3.152500 -25.028000 -20.635400
C -3.098000 -27.698400 -19.919000
H -3.086500 -28.600100 -19.694900
C -2.040700 -25.779500 -20.903100
C -2.000000 -27.124100 -20.561700
H -1.306200 -25.385900 -21.317500
O -0.946000 -27.927000 -20.831700
H -0.296800 -27.440500 -21.284500
27
Fragment
H -12.631300 -20.367900 -15.258300
H -12.156500 -19.069000 -14.520200
H -12.135200 -20.447000 -13.773300
C -12.008600 -20.012300 -14.619900
N -10.642100 -20.245200 -15.088800
N -10.603700 -22.586600 -14.412300
O -10.439300 -18.121100 -15.855000
C -10.048000 -21.475100 -14.959100
C -9.946800 -19.217400 -15.681500
H -9.725800 -24.371200 -14.198800
C -9.634900 -23.496700 -14.502200
C -8.773400 -21.702500 -15.381100
N -8.620600 -19.485800 -16.066000
N -8.518700 -23.027800 -15.073000
H -8.250700 -17.521700 -16.282500
C -7.974900 -20.714800 -16.008300
H -7.904000 -18.353900 -17.564900
C -7.865500 -18.339400 -16.606100
H -7.374800 -24.663500 -15.012800
C -7.266700 -23.737800 -15.281900
H -7.044200 -23.724500 -16.225400
H -6.950300 -18.396300 -16.321500
O -6.834200 -20.882200 -16.451700
O -6.283500 -22.341100 -13.596400
C -6.138100 -23.120200 -14.495700
O -4.986600 -23.554400 -14.952500
H -4.321400 -23.137600 -14.534500
43
Fragment
O -6.344400 -25.215300 -18.941400
H -6.298800 -23.223000 -20.004400
O -5.518700 -23.651700 -20.268900
C -5.448800 -24.783500 -19.701800
H -4.915000 -27.314600 -19.173000
C -4.246700 -25.587300 -19.973300
C -4.195700 -26.931100 -19.619000
H -3.180000 -24.136000 -20.898600
C -3.152500 -25.028000 -20.635400
C -3.098000 -27.698400 -19.919000
H -3.086500 -28.600100 -19.694900
C -2.040700 -25.779500 -20.903100
C -2.000000 -27.124100 -20.561700
H -1.306200 -25.385900 -21.317500
O -0.946000 -27.927000 -20.831700
H -0.296800 -27.440500 -21.284500
H -12.631300 -20.367900 -15.258300
H -12.156500 -19.069000 -14.520200
H -12.135200 -20.447000 -13.773300
C -12.008600 -20.012300 -14.619900
N -10.642100 -20.245200 -15.088800
N -10.603700 -22.586600 -14.412300
O -10.439300 -18.121100 -15.855000
C -10.048000 -21.475100 -14.959100
C -9.946800 -19.217400 -15.681500
H -9.725800 -24.371200 -14.198800
C -9.634900 -23.496700 -14.502200
C -8.773400 -21.702500 -15.381100
N -8.620600 -19.485800 -16.066000
N -8.518700 -23.027800 -15.073000
H -8.250700 -17.521700 -16.282500
C -7.974900 -20.714800 -16.008300
H -7.904000 -18.353900 -17.564900
C -7.865500 -18.339400 -16.606100
H -7.374800 -24.663500 -15.012800
C -7.266700 -23.737800 -15.281900
H -7.044200 -23.724500 -16.225400
H -6.950300 -18.396300 -16.321500
O -6.834200 -20.882200 -16.451700
O -6.283500 -22.341100 -13.596400
C -6.138100 -23.120200 -14.495700
O -4.986600 -23.554400 -14.952500
H -4.321400 -23.137600 -14.534500
