15
Fragment
N -15.667300 -30.973900 -12.699800
H -15.667300 -28.953400 -12.821600
H -15.400500 -32.906300 -12.380900
C -15.394200 -29.679700 -12.309900
C -15.249300 -32.050500 -12.052100
C -14.705700 -29.509500 -11.142100
C -14.584600 -31.838200 -10.874400
H -14.519600 -28.648900 -10.845800
H -14.325500 -32.579800 -10.375100
C -14.280400 -30.588300 -10.391300
H -13.531900 -28.432900 -9.238300
C -13.524200 -30.346600 -9.099300
N -13.256500 -29.084000 -8.747300
O -13.176200 -31.350400 -8.466900
H -12.809200 -28.921900 -8.030600
15
Fragment
H -12.145600 -31.167200 -6.757800
O -11.778700 -28.738700 -6.321600
N -11.698400 -31.005100 -6.041100
C -11.430600 -29.742500 -5.689100
H -11.422900 -31.656100 -5.550100
C -10.674400 -29.500700 -4.397100
H -10.629400 -27.509300 -4.413400
H -10.435200 -31.440100 -3.942600
C -10.370300 -28.250900 -3.914000
C -10.249100 -30.579600 -3.646300
C -9.705600 -28.038600 -2.736300
C -9.560600 -30.409400 -2.478500
H -9.554400 -27.182800 -2.407600
N -9.287600 -29.115200 -2.088600
H -9.287500 -31.135700 -1.966900
30
Fragment
N -15.667300 -30.973900 -12.699800
H -15.667300 -28.953400 -12.821600
H -15.400500 -32.906300 -12.380900
C -15.394200 -29.679700 -12.309900
C -15.249300 -32.050500 -12.052100
C -14.705700 -29.509500 -11.142100
C -14.584600 -31.838200 -10.874400
H -14.519600 -28.648900 -10.845800
H -14.325500 -32.579800 -10.375100
C -14.280400 -30.588300 -10.391300
H -13.531900 -28.432900 -9.238300
C -13.524200 -30.346600 -9.099300
N -13.256500 -29.084000 -8.747300
O -13.176200 -31.350400 -8.466900
H -12.809200 -28.921900 -8.030600
H -12.145600 -31.167200 -6.757800
O -11.778700 -28.738700 -6.321600
N -11.698400 -31.005100 -6.041100
C -11.430600 -29.742500 -5.689100
H -11.422900 -31.656100 -5.550100
C -10.674400 -29.500700 -4.397100
H -10.629400 -27.509300 -4.413400
H -10.435200 -31.440100 -3.942600
C -10.370300 -28.250900 -3.914000
C -10.249100 -30.579600 -3.646300
C -9.705600 -28.038600 -2.736300
C -9.560600 -30.409400 -2.478500
H -9.554400 -27.182800 -2.407600
N -9.287600 -29.115200 -2.088600
H -9.287500 -31.135700 -1.966900
