16
Fragment
O -6.344400 -25.215300 -18.941400
H -6.298800 -23.223000 -20.004400
O -5.518700 -23.651700 -20.268900
C -5.448800 -24.783500 -19.701800
H -4.915000 -27.314600 -19.173000
C -4.246700 -25.587300 -19.973300
C -4.195700 -26.931100 -19.619000
H -3.180000 -24.136000 -20.898600
C -3.152500 -25.028000 -20.635400
C -3.098000 -27.698400 -19.919000
H -3.086500 -28.600100 -19.694900
C -2.040700 -25.779500 -20.903100
C -2.000000 -27.124100 -20.561700
H -1.306200 -25.385900 -21.317500
O -0.946000 -27.927000 -20.831700
H -0.296800 -27.440500 -21.284500
27
Fragment
H -1.590900 -24.320900 -24.258700
O -0.925700 -23.904100 -23.840800
C 0.225800 -24.338300 -24.297500
O 0.371200 -25.117400 -25.196800
O 0.921900 -26.576300 -22.341500
H 1.038000 -29.062200 -22.471700
H 1.131900 -23.734000 -22.567800
C 1.354400 -23.720700 -23.511300
H 1.462400 -22.795000 -23.780400
C 1.953100 -29.119100 -22.187100
H 1.991700 -29.104600 -21.228300
C 2.062500 -26.743700 -22.784900
H 2.338400 -29.936800 -22.510700
N 2.606400 -24.430700 -23.720200
N 2.708300 -27.972700 -22.727300
C 2.861100 -25.756000 -23.412100
C 3.722500 -23.961800 -24.291000
H 3.813500 -23.087300 -24.594400
C 4.034500 -28.241100 -23.111700
C 4.135700 -25.983400 -23.834200
O 4.527000 -29.337400 -22.938200
N 4.691400 -24.871900 -24.380900
N 4.729800 -27.213300 -23.704500
C 6.096300 -27.446200 -24.173300
H 6.222900 -27.011500 -25.019900
H 6.244200 -28.389500 -24.273000
H 6.718900 -27.090600 -23.534900
43
Fragment
O -6.344400 -25.215300 -18.941400
H -6.298800 -23.223000 -20.004400
O -5.518700 -23.651700 -20.268900
C -5.448800 -24.783500 -19.701800
H -4.915000 -27.314600 -19.173000
C -4.246700 -25.587300 -19.973300
C -4.195700 -26.931100 -19.619000
H -3.180000 -24.136000 -20.898600
C -3.152500 -25.028000 -20.635400
C -3.098000 -27.698400 -19.919000
H -3.086500 -28.600100 -19.694900
C -2.040700 -25.779500 -20.903100
C -2.000000 -27.124100 -20.561700
H -1.306200 -25.385900 -21.317500
O -0.946000 -27.927000 -20.831700
H -0.296800 -27.440500 -21.284500
H -1.590900 -24.320900 -24.258700
O -0.925700 -23.904100 -23.840800
C 0.225800 -24.338300 -24.297500
O 0.371200 -25.117400 -25.196800
O 0.921900 -26.576300 -22.341500
H 1.038000 -29.062200 -22.471700
H 1.131900 -23.734000 -22.567800
C 1.354400 -23.720700 -23.511300
H 1.462400 -22.795000 -23.780400
C 1.953100 -29.119100 -22.187100
H 1.991700 -29.104600 -21.228300
C 2.062500 -26.743700 -22.784900
H 2.338400 -29.936800 -22.510700
N 2.606400 -24.430700 -23.720200
N 2.708300 -27.972700 -22.727300
C 2.861100 -25.756000 -23.412100
C 3.722500 -23.961800 -24.291000
H 3.813500 -23.087300 -24.594400
C 4.034500 -28.241100 -23.111700
C 4.135700 -25.983400 -23.834200
O 4.527000 -29.337400 -22.938200
N 4.691400 -24.871900 -24.380900
N 4.729800 -27.213300 -23.704500
C 6.096300 -27.446200 -24.173300
H 6.222900 -27.011500 -25.019900
H 6.244200 -28.389500 -24.273000
H 6.718900 -27.090600 -23.534900
