22
Fragment
H -11.332200 -17.320200 -20.536900
Cl -11.327200 -14.549600 -20.420700
C -10.483800 -17.103700 -20.223500
C -10.125100 -15.760200 -20.060400
H -9.827700 -18.997400 -20.023800
C -9.592800 -18.103200 -19.924200
C -8.877000 -15.377700 -19.623100
H -8.653800 -14.479600 -19.529700
C -8.329000 -17.743600 -19.467800
C -7.959000 -16.384800 -19.325000
H -7.280200 -19.396200 -19.087200
N -7.280200 -18.536100 -19.087200
C -6.601300 -16.384800 -18.849300
C -6.231300 -17.743600 -18.706600
H -5.906500 -14.479600 -18.644600
C -5.683300 -15.377700 -18.551200
C -4.967500 -18.103200 -18.250100
H -4.732600 -18.997400 -18.150500
C -4.435300 -15.760200 -18.114000
C -4.076500 -17.103700 -17.950800
Cl -3.233100 -14.549600 -17.753600
H -3.228200 -17.320200 -17.637400
22
Fragment
H -17.407200 -8.888000 -20.536900
Cl -17.402200 -11.658600 -20.420700
C -16.558800 -9.104500 -20.223500
C -16.200100 -10.448000 -20.060400
H -15.902700 -7.210800 -20.023800
C -15.667800 -8.105000 -19.924200
C -14.952000 -10.830500 -19.623100
H -14.728800 -11.728600 -19.529700
C -14.404000 -8.464600 -19.467800
C -14.034000 -9.823400 -19.325000
N -13.355200 -7.672100 -19.087200
H -13.355200 -6.812000 -19.087200
C -12.676300 -9.823400 -18.849300
C -12.306300 -8.464600 -18.706600
H -11.981500 -11.728600 -18.644600
C -11.758300 -10.830500 -18.551200
C -11.042500 -8.105000 -18.250100
H -10.807600 -7.210800 -18.150500
C -10.510300 -10.448000 -18.114000
C -10.151500 -9.104500 -17.950800
Cl -9.308100 -11.658600 -17.753600
H -9.303200 -8.888000 -17.637400
44
Fragment
H -11.332200 -17.320200 -20.536900
Cl -11.327200 -14.549600 -20.420700
C -10.483800 -17.103700 -20.223500
C -10.125100 -15.760200 -20.060400
H -9.827700 -18.997400 -20.023800
C -9.592800 -18.103200 -19.924200
C -8.877000 -15.377700 -19.623100
H -8.653800 -14.479600 -19.529700
C -8.329000 -17.743600 -19.467800
C -7.959000 -16.384800 -19.325000
H -7.280200 -19.396200 -19.087200
N -7.280200 -18.536100 -19.087200
C -6.601300 -16.384800 -18.849300
C -6.231300 -17.743600 -18.706600
H -5.906500 -14.479600 -18.644600
C -5.683300 -15.377700 -18.551200
C -4.967500 -18.103200 -18.250100
H -4.732600 -18.997400 -18.150500
C -4.435300 -15.760200 -18.114000
C -4.076500 -17.103700 -17.950800
Cl -3.233100 -14.549600 -17.753600
H -3.228200 -17.320200 -17.637400
H -17.407200 -8.888000 -20.536900
Cl -17.402200 -11.658600 -20.420700
C -16.558800 -9.104500 -20.223500
C -16.200100 -10.448000 -20.060400
H -15.902700 -7.210800 -20.023800
C -15.667800 -8.105000 -19.924200
C -14.952000 -10.830500 -19.623100
H -14.728800 -11.728600 -19.529700
C -14.404000 -8.464600 -19.467800
C -14.034000 -9.823400 -19.325000
N -13.355200 -7.672100 -19.087200
H -13.355200 -6.812000 -19.087200
C -12.676300 -9.823400 -18.849300
C -12.306300 -8.464600 -18.706600
H -11.981500 -11.728600 -18.644600
C -11.758300 -10.830500 -18.551200
C -11.042500 -8.105000 -18.250100
H -10.807600 -7.210800 -18.150500
C -10.510300 -10.448000 -18.114000
C -10.151500 -9.104500 -17.950800
Cl -9.308100 -11.658600 -17.753600
H -9.303200 -8.888000 -17.637400
