22
Fragment
H -11.332200 -17.320200 -20.536900
Cl -11.327200 -14.549600 -20.420700
C -10.483800 -17.103700 -20.223500
C -10.125100 -15.760200 -20.060400
H -9.827700 -18.997400 -20.023800
C -9.592800 -18.103200 -19.924200
C -8.877000 -15.377700 -19.623100
H -8.653800 -14.479600 -19.529700
C -8.329000 -17.743600 -19.467800
C -7.959000 -16.384800 -19.325000
H -7.280200 -19.396200 -19.087200
N -7.280200 -18.536100 -19.087200
C -6.601300 -16.384800 -18.849300
C -6.231300 -17.743600 -18.706600
H -5.906500 -14.479600 -18.644600
C -5.683300 -15.377700 -18.551200
C -4.967500 -18.103200 -18.250100
H -4.732600 -18.997400 -18.150500
C -4.435300 -15.760200 -18.114000
C -4.076500 -17.103700 -17.950800
Cl -3.233100 -14.549600 -17.753600
H -3.228200 -17.320200 -17.637400
20
Fragment
N -10.066100 -14.685100 -23.813900
N -9.700900 -19.010800 -23.296100
C -9.419500 -15.577200 -23.499600
C -9.212400 -17.984600 -23.235300
C -8.600100 -16.691500 -23.127200
C -7.304500 -16.537400 -22.695400
H -7.222000 -14.472400 -22.750100
H -6.841700 -18.537500 -22.455400
C -6.712500 -15.226200 -22.557600
C -6.483200 -17.682700 -22.379700
C -5.441400 -15.077600 -22.157000
C -5.212000 -17.534100 -21.979100
H -5.082800 -14.222800 -22.081300
H -4.702500 -18.287800 -21.786600
C -4.620100 -16.222900 -21.841300
C -3.324400 -16.068800 -21.409600
C -2.712200 -14.775700 -21.301400
C -2.505000 -17.183000 -21.037100
N -2.223600 -13.749500 -21.240600
N -1.858500 -18.075100 -20.722800
42
Fragment
H -11.332200 -17.320200 -20.536900
Cl -11.327200 -14.549600 -20.420700
C -10.483800 -17.103700 -20.223500
C -10.125100 -15.760200 -20.060400
H -9.827700 -18.997400 -20.023800
C -9.592800 -18.103200 -19.924200
C -8.877000 -15.377700 -19.623100
H -8.653800 -14.479600 -19.529700
C -8.329000 -17.743600 -19.467800
C -7.959000 -16.384800 -19.325000
H -7.280200 -19.396200 -19.087200
N -7.280200 -18.536100 -19.087200
C -6.601300 -16.384800 -18.849300
C -6.231300 -17.743600 -18.706600
H -5.906500 -14.479600 -18.644600
C -5.683300 -15.377700 -18.551200
C -4.967500 -18.103200 -18.250100
H -4.732600 -18.997400 -18.150500
C -4.435300 -15.760200 -18.114000
C -4.076500 -17.103700 -17.950800
Cl -3.233100 -14.549600 -17.753600
H -3.228200 -17.320200 -17.637400
N -10.066100 -14.685100 -23.813900
N -9.700900 -19.010800 -23.296100
C -9.419500 -15.577200 -23.499600
C -9.212400 -17.984600 -23.235300
C -8.600100 -16.691500 -23.127200
C -7.304500 -16.537400 -22.695400
H -7.222000 -14.472400 -22.750100
H -6.841700 -18.537500 -22.455400
C -6.712500 -15.226200 -22.557600
C -6.483200 -17.682700 -22.379700
C -5.441400 -15.077600 -22.157000
C -5.212000 -17.534100 -21.979100
H -5.082800 -14.222800 -22.081300
H -4.702500 -18.287800 -21.786600
C -4.620100 -16.222900 -21.841300
C -3.324400 -16.068800 -21.409600
C -2.712200 -14.775700 -21.301400
C -2.505000 -17.183000 -21.037100
N -2.223600 -13.749500 -21.240600
N -1.858500 -18.075100 -20.722800
