22
Fragment
H -11.332200 -17.320200 -20.536900
Cl -11.327200 -14.549600 -20.420700
C -10.483800 -17.103700 -20.223500
C -10.125100 -15.760200 -20.060400
H -9.827700 -18.997400 -20.023800
C -9.592800 -18.103200 -19.924200
C -8.877000 -15.377700 -19.623100
H -8.653800 -14.479600 -19.529700
C -8.329000 -17.743600 -19.467800
C -7.959000 -16.384800 -19.325000
H -7.280200 -19.396200 -19.087200
N -7.280200 -18.536100 -19.087200
C -6.601300 -16.384800 -18.849300
C -6.231300 -17.743600 -18.706600
H -5.906500 -14.479600 -18.644600
C -5.683300 -15.377700 -18.551200
C -4.967500 -18.103200 -18.250100
H -4.732600 -18.997400 -18.150500
C -4.435300 -15.760200 -18.114000
C -4.076500 -17.103700 -17.950800
Cl -3.233100 -14.549600 -17.753600
H -3.228200 -17.320200 -17.637400
22
Fragment
H -5.257200 -21.992100 -20.536900
Cl -5.252200 -24.762700 -20.420700
C -4.408800 -22.208600 -20.223500
C -4.050100 -23.552100 -20.060400
H -3.752700 -20.314900 -20.023800
C -3.517800 -21.209100 -19.924200
C -2.802000 -23.934600 -19.623100
H -2.578800 -24.832700 -19.529700
C -2.254000 -21.568700 -19.467800
C -1.884000 -22.927500 -19.325000
N -1.205200 -20.776200 -19.087200
H -1.205200 -19.916100 -19.087200
C -0.526300 -22.927500 -18.849300
C -0.156300 -21.568700 -18.706600
H 0.168500 -24.832700 -18.644600
C 0.391700 -23.934600 -18.551200
C 1.107500 -21.209100 -18.250100
H 1.342400 -20.314900 -18.150500
C 1.639700 -23.552100 -18.114000
C 1.998500 -22.208600 -17.950800
Cl 2.841900 -24.762700 -17.753600
H 2.846800 -21.992100 -17.637400
44
Fragment
H -11.332200 -17.320200 -20.536900
Cl -11.327200 -14.549600 -20.420700
C -10.483800 -17.103700 -20.223500
C -10.125100 -15.760200 -20.060400
H -9.827700 -18.997400 -20.023800
C -9.592800 -18.103200 -19.924200
C -8.877000 -15.377700 -19.623100
H -8.653800 -14.479600 -19.529700
C -8.329000 -17.743600 -19.467800
C -7.959000 -16.384800 -19.325000
H -7.280200 -19.396200 -19.087200
N -7.280200 -18.536100 -19.087200
C -6.601300 -16.384800 -18.849300
C -6.231300 -17.743600 -18.706600
H -5.906500 -14.479600 -18.644600
C -5.683300 -15.377700 -18.551200
C -4.967500 -18.103200 -18.250100
H -4.732600 -18.997400 -18.150500
C -4.435300 -15.760200 -18.114000
C -4.076500 -17.103700 -17.950800
Cl -3.233100 -14.549600 -17.753600
H -3.228200 -17.320200 -17.637400
H -5.257200 -21.992100 -20.536900
Cl -5.252200 -24.762700 -20.420700
C -4.408800 -22.208600 -20.223500
C -4.050100 -23.552100 -20.060400
H -3.752700 -20.314900 -20.023800
C -3.517800 -21.209100 -19.924200
C -2.802000 -23.934600 -19.623100
H -2.578800 -24.832700 -19.529700
C -2.254000 -21.568700 -19.467800
C -1.884000 -22.927500 -19.325000
N -1.205200 -20.776200 -19.087200
H -1.205200 -19.916100 -19.087200
C -0.526300 -22.927500 -18.849300
C -0.156300 -21.568700 -18.706600
H 0.168500 -24.832700 -18.644600
C 0.391700 -23.934600 -18.551200
C 1.107500 -21.209100 -18.250100
H 1.342400 -20.314900 -18.150500
C 1.639700 -23.552100 -18.114000
C 1.998500 -22.208600 -17.950800
Cl 2.841900 -24.762700 -17.753600
H 2.846800 -21.992100 -17.637400
