24
Fragment
N -5.075800 -7.833900 -14.894600
C -4.001200 -7.805500 -15.314300
H -3.933800 -9.092800 -17.512600
N -3.126100 -8.980200 -17.783800
H -2.878800 -9.300000 -18.542200
H -2.778300 -6.473300 -13.568000
C -2.665900 -7.732400 -15.795300
C -2.261000 -8.312500 -17.030600
N -1.989800 -6.404100 -13.904600
C -1.705400 -6.996400 -15.064000
H -1.384300 -5.954000 -13.491100
N -1.007100 -8.162600 -17.499100
N -0.456900 -6.850200 -15.531500
C -0.195800 -7.408100 -16.736600
H 0.832700 -7.224900 -19.334900
N 1.042700 -7.133300 -17.222800
H 1.389000 -6.240300 -16.944400
C 1.474400 -7.418100 -18.619100
H 2.152900 -9.021500 -19.582100
C 2.251900 -8.502000 -18.768700
H 2.460300 -9.022200 -17.976000
C 2.850400 -7.135900 -18.881900
H 3.092300 -6.812100 -19.763900
H 3.401000 -6.812300 -18.151600
6
Fragment
H -0.777900 -3.496000 -15.523200
C 0.117200 -3.435800 -15.863900
H 0.142600 -2.804800 -16.587000
H 0.397600 -4.297500 -16.180800
O 0.979400 -3.010100 -14.840600
H 1.749800 -3.220200 -15.027600
30
Fragment
N -5.075800 -7.833900 -14.894600
C -4.001200 -7.805500 -15.314300
H -3.933800 -9.092800 -17.512600
N -3.126100 -8.980200 -17.783800
H -2.878800 -9.300000 -18.542200
H -2.778300 -6.473300 -13.568000
C -2.665900 -7.732400 -15.795300
C -2.261000 -8.312500 -17.030600
N -1.989800 -6.404100 -13.904600
C -1.705400 -6.996400 -15.064000
H -1.384300 -5.954000 -13.491100
N -1.007100 -8.162600 -17.499100
N -0.456900 -6.850200 -15.531500
C -0.195800 -7.408100 -16.736600
H 0.832700 -7.224900 -19.334900
N 1.042700 -7.133300 -17.222800
H 1.389000 -6.240300 -16.944400
C 1.474400 -7.418100 -18.619100
H 2.152900 -9.021500 -19.582100
C 2.251900 -8.502000 -18.768700
H 2.460300 -9.022200 -17.976000
C 2.850400 -7.135900 -18.881900
H 3.092300 -6.812100 -19.763900
H 3.401000 -6.812300 -18.151600
H -0.777900 -3.496000 -15.523200
C 0.117200 -3.435800 -15.863900
H 0.142600 -2.804800 -16.587000
H 0.397600 -4.297500 -16.180800
O 0.979400 -3.010100 -14.840600
H 1.749800 -3.220200 -15.027600
