24
Fragment
N -5.075800 -7.833900 -14.894600
C -4.001200 -7.805500 -15.314300
H -3.933800 -9.092800 -17.512600
N -3.126100 -8.980200 -17.783800
H -2.878800 -9.300000 -18.542200
H -2.778300 -6.473300 -13.568000
C -2.665900 -7.732400 -15.795300
C -2.261000 -8.312500 -17.030600
N -1.989800 -6.404100 -13.904600
C -1.705400 -6.996400 -15.064000
H -1.384300 -5.954000 -13.491100
N -1.007100 -8.162600 -17.499100
N -0.456900 -6.850200 -15.531500
C -0.195800 -7.408100 -16.736600
H 0.832700 -7.224900 -19.334900
N 1.042700 -7.133300 -17.222800
H 1.389000 -6.240300 -16.944400
C 1.474400 -7.418100 -18.619100
H 2.152900 -9.021500 -19.582100
C 2.251900 -8.502000 -18.768700
H 2.460300 -9.022200 -17.976000
C 2.850400 -7.135900 -18.881900
H 3.092300 -6.812100 -19.763900
H 3.401000 -6.812300 -18.151600
24
Fragment
H 1.422600 -8.811700 -22.535700
C 2.376400 -8.637700 -22.512800
H 2.625600 -7.779200 -22.137800
H 2.756400 -9.677300 -24.324700
H 2.846300 -10.657200 -22.159600
C 3.205100 -9.174100 -23.627600
C 3.277900 -9.783500 -22.264500
H 3.960000 -8.643800 -23.926800
H 4.395200 -9.052600 -20.881800
N 4.439400 -9.556900 -21.469800
C 5.604600 -10.237700 -21.604800
N 5.716700 -11.063500 -22.661400
H 6.398700 -12.624200 -24.383900
N 6.537700 -9.971400 -20.654200
C 6.896900 -11.708800 -22.786100
N 7.041900 -12.522800 -23.822900
C 7.722500 -10.600100 -20.789300
H 7.780500 -12.949900 -23.934000
C 7.954800 -11.512000 -21.844800
H 8.509700 -9.747500 -19.254900
N 8.672300 -10.310600 -19.883400
C 9.165100 -12.217000 -22.000700
H 9.442500 -10.689200 -19.933300
N 10.146100 -12.809300 -22.154400
48
Fragment
N -5.075800 -7.833900 -14.894600
C -4.001200 -7.805500 -15.314300
H -3.933800 -9.092800 -17.512600
N -3.126100 -8.980200 -17.783800
H -2.878800 -9.300000 -18.542200
H -2.778300 -6.473300 -13.568000
C -2.665900 -7.732400 -15.795300
C -2.261000 -8.312500 -17.030600
N -1.989800 -6.404100 -13.904600
C -1.705400 -6.996400 -15.064000
H -1.384300 -5.954000 -13.491100
N -1.007100 -8.162600 -17.499100
N -0.456900 -6.850200 -15.531500
C -0.195800 -7.408100 -16.736600
H 0.832700 -7.224900 -19.334900
N 1.042700 -7.133300 -17.222800
H 1.389000 -6.240300 -16.944400
C 1.474400 -7.418100 -18.619100
H 2.152900 -9.021500 -19.582100
C 2.251900 -8.502000 -18.768700
H 2.460300 -9.022200 -17.976000
C 2.850400 -7.135900 -18.881900
H 3.092300 -6.812100 -19.763900
H 3.401000 -6.812300 -18.151600
H 1.422600 -8.811700 -22.535700
C 2.376400 -8.637700 -22.512800
H 2.625600 -7.779200 -22.137800
H 2.756400 -9.677300 -24.324700
H 2.846300 -10.657200 -22.159600
C 3.205100 -9.174100 -23.627600
C 3.277900 -9.783500 -22.264500
H 3.960000 -8.643800 -23.926800
H 4.395200 -9.052600 -20.881800
N 4.439400 -9.556900 -21.469800
C 5.604600 -10.237700 -21.604800
N 5.716700 -11.063500 -22.661400
H 6.398700 -12.624200 -24.383900
N 6.537700 -9.971400 -20.654200
C 6.896900 -11.708800 -22.786100
N 7.041900 -12.522800 -23.822900
C 7.722500 -10.600100 -20.789300
H 7.780500 -12.949900 -23.934000
C 7.954800 -11.512000 -21.844800
H 8.509700 -9.747500 -19.254900
N 8.672300 -10.310600 -19.883400
C 9.165100 -12.217000 -22.000700
H 9.442500 -10.689200 -19.933300
N 10.146100 -12.809300 -22.154400
