24
Fragment
N -5.075800 -7.833900 -14.894600
C -4.001200 -7.805500 -15.314300
H -3.933800 -9.092800 -17.512600
N -3.126100 -8.980200 -17.783800
H -2.878800 -9.300000 -18.542200
H -2.778300 -6.473300 -13.568000
C -2.665900 -7.732400 -15.795300
C -2.261000 -8.312500 -17.030600
N -1.989800 -6.404100 -13.904600
C -1.705400 -6.996400 -15.064000
H -1.384300 -5.954000 -13.491100
N -1.007100 -8.162600 -17.499100
N -0.456900 -6.850200 -15.531500
C -0.195800 -7.408100 -16.736600
H 0.832700 -7.224900 -19.334900
N 1.042700 -7.133300 -17.222800
H 1.389000 -6.240300 -16.944400
C 1.474400 -7.418100 -18.619100
H 2.152900 -9.021500 -19.582100
C 2.251900 -8.502000 -18.768700
H 2.460300 -9.022200 -17.976000
C 2.850400 -7.135900 -18.881900
H 3.092300 -6.812100 -19.763900
H 3.401000 -6.812300 -18.151600
24
Fragment
H -14.050400 -11.761100 -13.015300
H -13.741600 -11.761400 -11.402900
C -13.499800 -11.437500 -12.284900
H -13.109600 -9.551300 -13.190800
C -12.901300 -10.071400 -12.398200
H -12.802300 -9.552000 -11.584700
C -12.123800 -11.155300 -12.547800
H -12.038300 -12.333200 -14.222500
N -11.692100 -11.440200 -13.944000
H -11.482100 -11.348500 -11.832000
C -10.453500 -11.165400 -14.430200
N -10.192500 -11.723200 -15.635400
N -9.642300 -10.410800 -13.667700
H -9.265100 -12.619500 -17.675700
C -8.944000 -11.577000 -16.102900
N -8.659500 -12.169400 -17.262300
C -8.388300 -10.260900 -14.136200
C -7.983400 -10.841000 -15.371500
H -7.871100 -12.100100 -17.598900
H -7.770600 -9.273400 -12.624600
N -7.523200 -9.593200 -13.383000
H -6.715500 -9.480600 -13.654200
C -6.648100 -10.767900 -15.852500
N -5.573600 -10.739600 -16.272200
48
Fragment
N -5.075800 -7.833900 -14.894600
C -4.001200 -7.805500 -15.314300
H -3.933800 -9.092800 -17.512600
N -3.126100 -8.980200 -17.783800
H -2.878800 -9.300000 -18.542200
H -2.778300 -6.473300 -13.568000
C -2.665900 -7.732400 -15.795300
C -2.261000 -8.312500 -17.030600
N -1.989800 -6.404100 -13.904600
C -1.705400 -6.996400 -15.064000
H -1.384300 -5.954000 -13.491100
N -1.007100 -8.162600 -17.499100
N -0.456900 -6.850200 -15.531500
C -0.195800 -7.408100 -16.736600
H 0.832700 -7.224900 -19.334900
N 1.042700 -7.133300 -17.222800
H 1.389000 -6.240300 -16.944400
C 1.474400 -7.418100 -18.619100
H 2.152900 -9.021500 -19.582100
C 2.251900 -8.502000 -18.768700
H 2.460300 -9.022200 -17.976000
C 2.850400 -7.135900 -18.881900
H 3.092300 -6.812100 -19.763900
H 3.401000 -6.812300 -18.151600
H -14.050400 -11.761100 -13.015300
H -13.741600 -11.761400 -11.402900
C -13.499800 -11.437500 -12.284900
H -13.109600 -9.551300 -13.190800
C -12.901300 -10.071400 -12.398200
H -12.802300 -9.552000 -11.584700
C -12.123800 -11.155300 -12.547800
H -12.038300 -12.333200 -14.222500
N -11.692100 -11.440200 -13.944000
H -11.482100 -11.348500 -11.832000
C -10.453500 -11.165400 -14.430200
N -10.192500 -11.723200 -15.635400
N -9.642300 -10.410800 -13.667700
H -9.265100 -12.619500 -17.675700
C -8.944000 -11.577000 -16.102900
N -8.659500 -12.169400 -17.262300
C -8.388300 -10.260900 -14.136200
C -7.983400 -10.841000 -15.371500
H -7.871100 -12.100100 -17.598900
H -7.770600 -9.273400 -12.624600
N -7.523200 -9.593200 -13.383000
H -6.715500 -9.480600 -13.654200
C -6.648100 -10.767900 -15.852500
N -5.573600 -10.739600 -16.272200
