24
Fragment
H -16.440000 -41.447200 -23.097100
C -15.544800 -41.360900 -22.852500
H -15.358700 -40.682500 -22.153800
H -15.244200 -43.468200 -23.100600
H -14.896400 -41.936000 -24.745300
C -14.774900 -42.622100 -22.816900
C -14.542800 -41.648500 -23.902300
H -14.054900 -42.755400 -22.222700
H -13.419200 -40.040700 -23.637700
N -13.349000 -40.862200 -23.901200
C -12.182300 -41.275700 -24.429100
N -12.121400 -42.530900 -24.867900
H -11.534500 -44.710800 -25.731000
N -11.198000 -40.340500 -24.449200
C -10.943800 -42.922200 -25.397800
N -10.857600 -44.186200 -25.809600
H -10.124800 -44.478700 -26.153200
C -10.034300 -40.716600 -24.991500
C -9.858600 -42.020400 -25.503800
H -9.160800 -39.032900 -24.694000
N -9.039600 -39.820300 -25.018200
C -8.631800 -42.412300 -26.102500
H -8.278900 -40.032500 -25.360000
N -7.638100 -42.706500 -26.584900
24
Fragment
H -16.416900 -47.343600 -21.012600
C -15.539100 -47.399100 -21.309400
H -15.307500 -48.143800 -21.925900
H -15.198800 -45.333500 -21.102700
H -14.899700 -46.893000 -19.383900
C -14.773700 -46.133700 -21.341700
C -14.536100 -47.114800 -20.256000
H -14.081700 -46.032700 -22.010700
H -13.422200 -48.722800 -20.488000
N -13.340200 -47.896700 -20.266800
C -12.169800 -47.491900 -19.732100
N -12.107400 -46.225200 -19.295900
H -11.481200 -44.082700 -18.590700
N -11.185300 -48.418600 -19.711200
C -10.928200 -45.839100 -18.766000
N -10.840400 -44.579700 -18.349600
H -10.072800 -44.344900 -18.034300
C -10.018900 -48.043300 -19.168600
C -9.843400 -46.742800 -18.660000
H -9.155300 -49.727900 -19.481100
N -9.029000 -48.943800 -19.151300
C -8.613000 -46.351700 -18.060300
H -8.265700 -48.739200 -18.811600
N -7.616500 -46.050400 -17.573100
48
Fragment
H -16.440000 -41.447200 -23.097100
C -15.544800 -41.360900 -22.852500
H -15.358700 -40.682500 -22.153800
H -15.244200 -43.468200 -23.100600
H -14.896400 -41.936000 -24.745300
C -14.774900 -42.622100 -22.816900
C -14.542800 -41.648500 -23.902300
H -14.054900 -42.755400 -22.222700
H -13.419200 -40.040700 -23.637700
N -13.349000 -40.862200 -23.901200
C -12.182300 -41.275700 -24.429100
N -12.121400 -42.530900 -24.867900
H -11.534500 -44.710800 -25.731000
N -11.198000 -40.340500 -24.449200
C -10.943800 -42.922200 -25.397800
N -10.857600 -44.186200 -25.809600
H -10.124800 -44.478700 -26.153200
C -10.034300 -40.716600 -24.991500
C -9.858600 -42.020400 -25.503800
H -9.160800 -39.032900 -24.694000
N -9.039600 -39.820300 -25.018200
C -8.631800 -42.412300 -26.102500
H -8.278900 -40.032500 -25.360000
N -7.638100 -42.706500 -26.584900
H -16.416900 -47.343600 -21.012600
C -15.539100 -47.399100 -21.309400
H -15.307500 -48.143800 -21.925900
H -15.198800 -45.333500 -21.102700
H -14.899700 -46.893000 -19.383900
C -14.773700 -46.133700 -21.341700
C -14.536100 -47.114800 -20.256000
H -14.081700 -46.032700 -22.010700
H -13.422200 -48.722800 -20.488000
N -13.340200 -47.896700 -20.266800
C -12.169800 -47.491900 -19.732100
N -12.107400 -46.225200 -19.295900
H -11.481200 -44.082700 -18.590700
N -11.185300 -48.418600 -19.711200
C -10.928200 -45.839100 -18.766000
N -10.840400 -44.579700 -18.349600
H -10.072800 -44.344900 -18.034300
C -10.018900 -48.043300 -19.168600
C -9.843400 -46.742800 -18.660000
H -9.155300 -49.727900 -19.481100
N -9.029000 -48.943800 -19.151300
C -8.613000 -46.351700 -18.060300
H -8.265700 -48.739200 -18.811600
N -7.616500 -46.050400 -17.573100
