24
Fragment
H -16.440000 -41.447200 -23.097100
C -15.544800 -41.360900 -22.852500
H -15.358700 -40.682500 -22.153800
H -15.244200 -43.468200 -23.100600
H -14.896400 -41.936000 -24.745300
C -14.774900 -42.622100 -22.816900
C -14.542800 -41.648500 -23.902300
H -14.054900 -42.755400 -22.222700
H -13.419200 -40.040700 -23.637700
N -13.349000 -40.862200 -23.901200
C -12.182300 -41.275700 -24.429100
N -12.121400 -42.530900 -24.867900
H -11.534500 -44.710800 -25.731000
N -11.198000 -40.340500 -24.449200
C -10.943800 -42.922200 -25.397800
N -10.857600 -44.186200 -25.809600
H -10.124800 -44.478700 -26.153200
C -10.034300 -40.716600 -24.991500
C -9.858600 -42.020400 -25.503800
H -9.160800 -39.032900 -24.694000
N -9.039600 -39.820300 -25.018200
C -8.631800 -42.412300 -26.102500
H -8.278900 -40.032500 -25.360000
N -7.638100 -42.706500 -26.584900
24
Fragment
H -25.562000 -41.447200 -23.097100
C -24.666800 -41.360900 -22.852500
H -24.480700 -40.682500 -22.153800
H -24.366200 -43.468200 -23.100600
H -24.018400 -41.936000 -24.745300
C -23.896900 -42.622100 -22.816900
C -23.664800 -41.648500 -23.902300
H -23.176900 -42.755400 -22.222700
H -22.541200 -40.040700 -23.637700
N -22.471000 -40.862200 -23.901200
C -21.304300 -41.275700 -24.429100
N -21.243400 -42.530900 -24.867900
H -20.656500 -44.710800 -25.731000
N -20.320000 -40.340500 -24.449200
C -20.065800 -42.922200 -25.397800
N -19.979600 -44.186200 -25.809600
H -19.246800 -44.478700 -26.153200
C -19.156300 -40.716600 -24.991500
C -18.980600 -42.020400 -25.503800
H -18.282800 -39.032900 -24.694000
N -18.161600 -39.820300 -25.018200
C -17.753800 -42.412300 -26.102500
H -17.400900 -40.032500 -25.360000
N -16.760100 -42.706500 -26.584900
48
Fragment
H -16.440000 -41.447200 -23.097100
C -15.544800 -41.360900 -22.852500
H -15.358700 -40.682500 -22.153800
H -15.244200 -43.468200 -23.100600
H -14.896400 -41.936000 -24.745300
C -14.774900 -42.622100 -22.816900
C -14.542800 -41.648500 -23.902300
H -14.054900 -42.755400 -22.222700
H -13.419200 -40.040700 -23.637700
N -13.349000 -40.862200 -23.901200
C -12.182300 -41.275700 -24.429100
N -12.121400 -42.530900 -24.867900
H -11.534500 -44.710800 -25.731000
N -11.198000 -40.340500 -24.449200
C -10.943800 -42.922200 -25.397800
N -10.857600 -44.186200 -25.809600
H -10.124800 -44.478700 -26.153200
C -10.034300 -40.716600 -24.991500
C -9.858600 -42.020400 -25.503800
H -9.160800 -39.032900 -24.694000
N -9.039600 -39.820300 -25.018200
C -8.631800 -42.412300 -26.102500
H -8.278900 -40.032500 -25.360000
N -7.638100 -42.706500 -26.584900
H -25.562000 -41.447200 -23.097100
C -24.666800 -41.360900 -22.852500
H -24.480700 -40.682500 -22.153800
H -24.366200 -43.468200 -23.100600
H -24.018400 -41.936000 -24.745300
C -23.896900 -42.622100 -22.816900
C -23.664800 -41.648500 -23.902300
H -23.176900 -42.755400 -22.222700
H -22.541200 -40.040700 -23.637700
N -22.471000 -40.862200 -23.901200
C -21.304300 -41.275700 -24.429100
N -21.243400 -42.530900 -24.867900
H -20.656500 -44.710800 -25.731000
N -20.320000 -40.340500 -24.449200
C -20.065800 -42.922200 -25.397800
N -19.979600 -44.186200 -25.809600
H -19.246800 -44.478700 -26.153200
C -19.156300 -40.716600 -24.991500
C -18.980600 -42.020400 -25.503800
H -18.282800 -39.032900 -24.694000
N -18.161600 -39.820300 -25.018200
C -17.753800 -42.412300 -26.102500
H -17.400900 -40.032500 -25.360000
N -16.760100 -42.706500 -26.584900
