24
Fragment
H -16.440000 -41.447200 -23.097100
C -15.544800 -41.360900 -22.852500
H -15.358700 -40.682500 -22.153800
H -15.244200 -43.468200 -23.100600
H -14.896400 -41.936000 -24.745300
C -14.774900 -42.622100 -22.816900
C -14.542800 -41.648500 -23.902300
H -14.054900 -42.755400 -22.222700
H -13.419200 -40.040700 -23.637700
N -13.349000 -40.862200 -23.901200
C -12.182300 -41.275700 -24.429100
N -12.121400 -42.530900 -24.867900
H -11.534500 -44.710800 -25.731000
N -11.198000 -40.340500 -24.449200
C -10.943800 -42.922200 -25.397800
N -10.857600 -44.186200 -25.809600
H -10.124800 -44.478700 -26.153200
C -10.034300 -40.716600 -24.991500
C -9.858600 -42.020400 -25.503800
H -9.160800 -39.032900 -24.694000
N -9.039600 -39.820300 -25.018200
C -8.631800 -42.412300 -26.102500
H -8.278900 -40.032500 -25.360000
N -7.638100 -42.706500 -26.584900
24
Fragment
N -8.451500 -46.050400 -26.589700
H -7.802300 -48.739200 -25.351200
C -7.455000 -46.351700 -26.102500
N -7.039000 -48.943800 -25.011500
H -6.912700 -49.727900 -24.681700
C -6.224600 -46.742800 -25.502700
C -6.049200 -48.043300 -24.994200
H -5.995200 -44.344900 -26.128400
N -5.227600 -44.579700 -25.813100
C -5.139800 -45.839100 -25.396800
N -4.882700 -48.418600 -24.451500
H -4.586800 -44.082700 -25.572000
N -3.960600 -46.225200 -24.866800
C -3.898200 -47.491900 -24.430700
N -2.727800 -47.896700 -23.895900
H -2.645800 -48.722800 -23.674800
H -1.986300 -46.032700 -22.152000
C -1.531900 -47.114800 -23.906700
C -1.294300 -46.133700 -22.821000
H -1.168300 -46.893000 -24.778800
H -0.869200 -45.333500 -23.060000
H -0.760500 -48.143800 -22.236800
C -0.528900 -47.399100 -22.853300
H 0.348900 -47.343600 -23.150100
48
Fragment
H -16.440000 -41.447200 -23.097100
C -15.544800 -41.360900 -22.852500
H -15.358700 -40.682500 -22.153800
H -15.244200 -43.468200 -23.100600
H -14.896400 -41.936000 -24.745300
C -14.774900 -42.622100 -22.816900
C -14.542800 -41.648500 -23.902300
H -14.054900 -42.755400 -22.222700
H -13.419200 -40.040700 -23.637700
N -13.349000 -40.862200 -23.901200
C -12.182300 -41.275700 -24.429100
N -12.121400 -42.530900 -24.867900
H -11.534500 -44.710800 -25.731000
N -11.198000 -40.340500 -24.449200
C -10.943800 -42.922200 -25.397800
N -10.857600 -44.186200 -25.809600
H -10.124800 -44.478700 -26.153200
C -10.034300 -40.716600 -24.991500
C -9.858600 -42.020400 -25.503800
H -9.160800 -39.032900 -24.694000
N -9.039600 -39.820300 -25.018200
C -8.631800 -42.412300 -26.102500
H -8.278900 -40.032500 -25.360000
N -7.638100 -42.706500 -26.584900
N -8.451500 -46.050400 -26.589700
H -7.802300 -48.739200 -25.351200
C -7.455000 -46.351700 -26.102500
N -7.039000 -48.943800 -25.011500
H -6.912700 -49.727900 -24.681700
C -6.224600 -46.742800 -25.502700
C -6.049200 -48.043300 -24.994200
H -5.995200 -44.344900 -26.128400
N -5.227600 -44.579700 -25.813100
C -5.139800 -45.839100 -25.396800
N -4.882700 -48.418600 -24.451500
H -4.586800 -44.082700 -25.572000
N -3.960600 -46.225200 -24.866800
C -3.898200 -47.491900 -24.430700
N -2.727800 -47.896700 -23.895900
H -2.645800 -48.722800 -23.674800
H -1.986300 -46.032700 -22.152000
C -1.531900 -47.114800 -23.906700
C -1.294300 -46.133700 -22.821000
H -1.168300 -46.893000 -24.778800
H -0.869200 -45.333500 -23.060000
H -0.760500 -48.143800 -22.236800
C -0.528900 -47.399100 -22.853300
H 0.348900 -47.343600 -23.150100
