3
Fragment
H -33.576300 -8.562500 -12.334600
O -32.959400 -8.812200 -12.197400
H -32.798800 -9.552100 -12.602200
22
Fragment
O -45.905500 -6.498600 -5.937400
O -45.714300 -8.201000 -4.617000
N -45.260100 -7.441100 -5.480700
H -44.714200 -5.260200 -7.224200
N -43.999100 -7.739000 -5.914000
N -43.872500 -5.664000 -7.246900
C -43.505500 -6.853700 -6.751700
N -42.948600 -5.213700 -8.154100
O -42.295400 -7.157400 -7.278600
C -42.040800 -6.129200 -8.147000
N -40.938900 -6.094800 -8.976400
N -40.215600 -7.135200 -8.861000
C -39.113700 -7.100800 -9.690500
O -38.859100 -6.072600 -10.558900
N -38.205900 -8.016300 -9.683300
C -37.649000 -6.376300 -11.085800
N -37.282000 -7.566000 -10.590600
N -37.155400 -5.491000 -11.923500
H -36.440300 -7.969800 -10.613300
N -35.894400 -5.788900 -12.356700
O -35.440200 -5.029000 -13.220500
O -35.249000 -6.731400 -11.900100
25
Fragment
H -33.576300 -8.562500 -12.334600
O -32.959400 -8.812200 -12.197400
H -32.798800 -9.552100 -12.602200
O -45.905500 -6.498600 -5.937400
O -45.714300 -8.201000 -4.617000
N -45.260100 -7.441100 -5.480700
H -44.714200 -5.260200 -7.224200
N -43.999100 -7.739000 -5.914000
N -43.872500 -5.664000 -7.246900
C -43.505500 -6.853700 -6.751700
N -42.948600 -5.213700 -8.154100
O -42.295400 -7.157400 -7.278600
C -42.040800 -6.129200 -8.147000
N -40.938900 -6.094800 -8.976400
N -40.215600 -7.135200 -8.861000
C -39.113700 -7.100800 -9.690500
O -38.859100 -6.072600 -10.558900
N -38.205900 -8.016300 -9.683300
C -37.649000 -6.376300 -11.085800
N -37.282000 -7.566000 -10.590600
N -37.155400 -5.491000 -11.923500
H -36.440300 -7.969800 -10.613300
N -35.894400 -5.788900 -12.356700
O -35.440200 -5.029000 -13.220500
O -35.249000 -6.731400 -11.900100
