3
Fragment
H -33.576300 -8.562500 -12.334600
O -32.959400 -8.812200 -12.197400
H -32.798800 -9.552100 -12.602200
22
Fragment
O -32.622100 -12.023400 -10.396800
O -32.430900 -10.321000 -9.076300
N -31.976800 -11.080900 -9.940100
H -31.430800 -13.261800 -11.683500
N -30.715700 -10.783000 -10.373400
N -30.589100 -12.858000 -11.706300
C -30.222200 -11.668300 -11.211000
N -29.665200 -13.308300 -12.613500
O -29.012000 -11.364600 -11.738000
C -28.757400 -12.392800 -12.606400
N -27.655500 -12.427200 -13.435800
N -26.932300 -11.386800 -13.320400
C -25.830300 -11.421200 -14.149800
O -25.575700 -12.449400 -15.018300
N -24.922500 -10.505700 -14.142700
C -24.365600 -12.145700 -15.545200
N -23.998600 -10.956000 -15.049900
N -23.872100 -13.031000 -16.382800
H -23.156900 -10.552200 -15.072700
N -22.611000 -12.733100 -16.816100
O -22.156800 -13.493000 -17.679900
O -21.965700 -11.790600 -16.359500
25
Fragment
H -33.576300 -8.562500 -12.334600
O -32.959400 -8.812200 -12.197400
H -32.798800 -9.552100 -12.602200
O -32.622100 -12.023400 -10.396800
O -32.430900 -10.321000 -9.076300
N -31.976800 -11.080900 -9.940100
H -31.430800 -13.261800 -11.683500
N -30.715700 -10.783000 -10.373400
N -30.589100 -12.858000 -11.706300
C -30.222200 -11.668300 -11.211000
N -29.665200 -13.308300 -12.613500
O -29.012000 -11.364600 -11.738000
C -28.757400 -12.392800 -12.606400
N -27.655500 -12.427200 -13.435800
N -26.932300 -11.386800 -13.320400
C -25.830300 -11.421200 -14.149800
O -25.575700 -12.449400 -15.018300
N -24.922500 -10.505700 -14.142700
C -24.365600 -12.145700 -15.545200
N -23.998600 -10.956000 -15.049900
N -23.872100 -13.031000 -16.382800
H -23.156900 -10.552200 -15.072700
N -22.611000 -12.733100 -16.816100
O -22.156800 -13.493000 -17.679900
O -21.965700 -11.790600 -16.359500
