3
Fragment
H -33.576300 -8.562500 -12.334600
O -32.959400 -8.812200 -12.197400
H -32.798800 -9.552100 -12.602200
3
Fragment
H -33.997000 -6.323900 -14.154000
O -33.836400 -7.063800 -14.558800
H -33.219500 -7.313500 -14.421600
6
Fragment
H -33.576300 -8.562500 -12.334600
O -32.959400 -8.812200 -12.197400
H -32.798800 -9.552100 -12.602200
H -33.997000 -6.323900 -14.154000
O -33.836400 -7.063800 -14.558800
H -33.219500 -7.313500 -14.421600
