3
Fragment
H -33.576300 -8.562500 -12.334600
O -32.959400 -8.812200 -12.197400
H -32.798800 -9.552100 -12.602200
22
Fragment
O -31.546700 -9.144600 -14.856100
O -31.355600 -10.847000 -13.535700
N -30.901400 -10.087100 -14.399500
H -30.355500 -7.906200 -16.142900
N -29.640300 -10.385000 -14.832800
N -29.513700 -8.310000 -16.165700
C -29.146800 -9.499700 -15.670400
N -28.589800 -7.859700 -17.072900
O -27.936600 -9.803400 -16.197300
C -27.682000 -8.775200 -17.065700
N -26.580100 -8.740800 -17.895200
N -25.856900 -9.781200 -17.779800
C -24.754900 -9.746800 -18.609200
O -24.500400 -8.718600 -19.477600
N -23.847200 -10.662300 -18.602100
C -23.290200 -9.022300 -20.004600
N -22.923300 -10.212000 -19.509300
N -22.796700 -8.137000 -20.842200
H -22.081500 -10.615800 -19.532000
N -21.535600 -8.434900 -21.275500
O -21.081400 -7.675000 -22.139300
O -20.890300 -9.377400 -20.818800
25
Fragment
H -33.576300 -8.562500 -12.334600
O -32.959400 -8.812200 -12.197400
H -32.798800 -9.552100 -12.602200
O -31.546700 -9.144600 -14.856100
O -31.355600 -10.847000 -13.535700
N -30.901400 -10.087100 -14.399500
H -30.355500 -7.906200 -16.142900
N -29.640300 -10.385000 -14.832800
N -29.513700 -8.310000 -16.165700
C -29.146800 -9.499700 -15.670400
N -28.589800 -7.859700 -17.072900
O -27.936600 -9.803400 -16.197300
C -27.682000 -8.775200 -17.065700
N -26.580100 -8.740800 -17.895200
N -25.856900 -9.781200 -17.779800
C -24.754900 -9.746800 -18.609200
O -24.500400 -8.718600 -19.477600
N -23.847200 -10.662300 -18.602100
C -23.290200 -9.022300 -20.004600
N -22.923300 -10.212000 -19.509300
N -22.796700 -8.137000 -20.842200
H -22.081500 -10.615800 -19.532000
N -21.535600 -8.434900 -21.275500
O -21.081400 -7.675000 -22.139300
O -20.890300 -9.377400 -20.818800
