3
Fragment
H -33.576300 -8.562500 -12.334600
O -32.959400 -8.812200 -12.197400
H -32.798800 -9.552100 -12.602200
22
Fragment
O -45.905500 -11.790600 -5.937400
O -45.714300 -13.493000 -4.617000
N -45.260100 -12.733100 -5.480700
H -44.714200 -10.552200 -7.224200
N -43.999100 -13.031000 -5.914000
N -43.872500 -10.956000 -7.246900
C -43.505500 -12.145700 -6.751700
N -42.948600 -10.505700 -8.154100
O -42.295400 -12.449400 -7.278600
C -42.040800 -11.421200 -8.147000
N -40.938900 -11.386800 -8.976400
N -40.215600 -12.427200 -8.861000
C -39.113700 -12.392800 -9.690500
O -38.859100 -11.364600 -10.558900
N -38.205900 -13.308300 -9.683300
C -37.649000 -11.668300 -11.085800
N -37.282000 -12.858000 -10.590600
N -37.155400 -10.783000 -11.923500
H -36.440300 -13.261800 -10.613300
N -35.894400 -11.080900 -12.356700
O -35.440200 -10.321000 -13.220500
O -35.249000 -12.023400 -11.900100
25
Fragment
H -33.576300 -8.562500 -12.334600
O -32.959400 -8.812200 -12.197400
H -32.798800 -9.552100 -12.602200
O -45.905500 -11.790600 -5.937400
O -45.714300 -13.493000 -4.617000
N -45.260100 -12.733100 -5.480700
H -44.714200 -10.552200 -7.224200
N -43.999100 -13.031000 -5.914000
N -43.872500 -10.956000 -7.246900
C -43.505500 -12.145700 -6.751700
N -42.948600 -10.505700 -8.154100
O -42.295400 -12.449400 -7.278600
C -42.040800 -11.421200 -8.147000
N -40.938900 -11.386800 -8.976400
N -40.215600 -12.427200 -8.861000
C -39.113700 -12.392800 -9.690500
O -38.859100 -11.364600 -10.558900
N -38.205900 -13.308300 -9.683300
C -37.649000 -11.668300 -11.085800
N -37.282000 -12.858000 -10.590600
N -37.155400 -10.783000 -11.923500
H -36.440300 -13.261800 -10.613300
N -35.894400 -11.080900 -12.356700
O -35.440200 -10.321000 -13.220500
O -35.249000 -12.023400 -11.900100
