20
Fragment
N -16.575400 -14.934100 -6.364000
C -15.801400 -14.439600 -6.038600
N -15.223700 -13.269200 -3.130200
C -15.038500 -13.527800 -4.245400
C -14.799500 -13.840000 -5.656600
H -14.143300 -14.256400 -8.284300
C -13.677500 -13.591100 -6.599300
C -13.484900 -13.917800 -8.003600
H -12.767400 -12.812700 -5.257800
C -12.665700 -13.003700 -6.210400
C -12.396600 -13.675300 -8.922200
H -12.294900 -13.866300 -9.874800
C -11.577400 -12.761200 -7.128900
C -11.384800 -13.087900 -8.533300
H -10.919000 -12.422500 -6.848200
C -10.262800 -12.838900 -9.476000
C -10.023800 -13.151200 -10.887100
N -9.838600 -13.409800 -12.002400
C -9.260900 -12.239400 -9.093900
N -8.486900 -11.744900 -8.768600
20
Fragment
N -17.458500 -13.111700 1.202300
C -16.684500 -12.617200 1.527600
N -16.106800 -11.446800 4.436100
C -15.921600 -11.705400 3.320800
C -15.682600 -12.017700 1.909700
H -15.026400 -12.434100 -0.718000
C -14.560700 -11.768700 0.967000
C -14.368000 -12.095400 -0.437300
H -13.650600 -10.990300 2.308500
C -13.548800 -11.181300 1.355900
C -13.279800 -11.852900 -1.355900
H -13.178000 -12.043900 -2.308500
C -12.460600 -10.938800 0.437300
C -12.267900 -11.265500 -0.967000
H -11.802100 -10.600200 0.718000
C -11.146000 -11.016500 -1.909700
C -10.907000 -11.328800 -3.320800
N -10.721800 -11.587400 -4.436100
C -10.144000 -10.417000 -1.527600
N -9.370100 -9.922500 -1.202300
40
Fragment
N -16.575400 -14.934100 -6.364000
C -15.801400 -14.439600 -6.038600
N -15.223700 -13.269200 -3.130200
C -15.038500 -13.527800 -4.245400
C -14.799500 -13.840000 -5.656600
H -14.143300 -14.256400 -8.284300
C -13.677500 -13.591100 -6.599300
C -13.484900 -13.917800 -8.003600
H -12.767400 -12.812700 -5.257800
C -12.665700 -13.003700 -6.210400
C -12.396600 -13.675300 -8.922200
H -12.294900 -13.866300 -9.874800
C -11.577400 -12.761200 -7.128900
C -11.384800 -13.087900 -8.533300
H -10.919000 -12.422500 -6.848200
C -10.262800 -12.838900 -9.476000
C -10.023800 -13.151200 -10.887100
N -9.838600 -13.409800 -12.002400
C -9.260900 -12.239400 -9.093900
N -8.486900 -11.744900 -8.768600
N -17.458500 -13.111700 1.202300
C -16.684500 -12.617200 1.527600
N -16.106800 -11.446800 4.436100
C -15.921600 -11.705400 3.320800
C -15.682600 -12.017700 1.909700
H -15.026400 -12.434100 -0.718000
C -14.560700 -11.768700 0.967000
C -14.368000 -12.095400 -0.437300
H -13.650600 -10.990300 2.308500
C -13.548800 -11.181300 1.355900
C -13.279800 -11.852900 -1.355900
H -13.178000 -12.043900 -2.308500
C -12.460600 -10.938800 0.437300
C -12.267900 -11.265500 -0.967000
H -11.802100 -10.600200 0.718000
C -11.146000 -11.016500 -1.909700
C -10.907000 -11.328800 -3.320800
N -10.721800 -11.587400 -4.436100
C -10.144000 -10.417000 -1.527600
N -9.370100 -9.922500 -1.202300
