20
Fragment
N -16.575400 -14.934100 -6.364000
C -15.801400 -14.439600 -6.038600
N -15.223700 -13.269200 -3.130200
C -15.038500 -13.527800 -4.245400
C -14.799500 -13.840000 -5.656600
H -14.143300 -14.256400 -8.284300
C -13.677500 -13.591100 -6.599300
C -13.484900 -13.917800 -8.003600
H -12.767400 -12.812700 -5.257800
C -12.665700 -13.003700 -6.210400
C -12.396600 -13.675300 -8.922200
H -12.294900 -13.866300 -9.874800
C -11.577400 -12.761200 -7.128900
C -11.384800 -13.087900 -8.533300
H -10.919000 -12.422500 -6.848200
C -10.262800 -12.838900 -9.476000
C -10.023800 -13.151200 -10.887100
N -9.838600 -13.409800 -12.002400
C -9.260900 -12.239400 -9.093900
N -8.486900 -11.744900 -8.768600
20
Fragment
N -8.033900 -16.756500 -13.930300
C -7.260000 -16.262000 -13.604900
N -6.682200 -15.091600 -10.696500
C -6.497000 -15.350200 -11.811700
C -6.258000 -15.662400 -13.222800
H -5.601900 -16.078800 -15.850600
C -5.136100 -15.413500 -14.165600
C -4.943400 -15.740200 -15.569900
H -4.226000 -14.635000 -12.824100
C -4.124200 -14.826100 -13.776700
C -3.855200 -15.497700 -16.488400
H -3.753400 -15.688700 -17.441000
C -3.036000 -14.583600 -14.695200
C -2.843300 -14.910300 -16.099500
H -2.377600 -14.244900 -14.414500
C -1.721400 -14.661300 -17.042300
C -1.482400 -14.973500 -18.453400
N -1.297200 -15.232200 -19.568700
C -0.719500 -14.061800 -16.660200
N 0.054500 -13.567200 -16.334800
40
Fragment
N -16.575400 -14.934100 -6.364000
C -15.801400 -14.439600 -6.038600
N -15.223700 -13.269200 -3.130200
C -15.038500 -13.527800 -4.245400
C -14.799500 -13.840000 -5.656600
H -14.143300 -14.256400 -8.284300
C -13.677500 -13.591100 -6.599300
C -13.484900 -13.917800 -8.003600
H -12.767400 -12.812700 -5.257800
C -12.665700 -13.003700 -6.210400
C -12.396600 -13.675300 -8.922200
H -12.294900 -13.866300 -9.874800
C -11.577400 -12.761200 -7.128900
C -11.384800 -13.087900 -8.533300
H -10.919000 -12.422500 -6.848200
C -10.262800 -12.838900 -9.476000
C -10.023800 -13.151200 -10.887100
N -9.838600 -13.409800 -12.002400
C -9.260900 -12.239400 -9.093900
N -8.486900 -11.744900 -8.768600
N -8.033900 -16.756500 -13.930300
C -7.260000 -16.262000 -13.604900
N -6.682200 -15.091600 -10.696500
C -6.497000 -15.350200 -11.811700
C -6.258000 -15.662400 -13.222800
H -5.601900 -16.078800 -15.850600
C -5.136100 -15.413500 -14.165600
C -4.943400 -15.740200 -15.569900
H -4.226000 -14.635000 -12.824100
C -4.124200 -14.826100 -13.776700
C -3.855200 -15.497700 -16.488400
H -3.753400 -15.688700 -17.441000
C -3.036000 -14.583600 -14.695200
C -2.843300 -14.910300 -16.099500
H -2.377600 -14.244900 -14.414500
C -1.721400 -14.661300 -17.042300
C -1.482400 -14.973500 -18.453400
N -1.297200 -15.232200 -19.568700
C -0.719500 -14.061800 -16.660200
N 0.054500 -13.567200 -16.334800
