17
Fragment
H -17.214800 -21.450000 -32.486800
O -16.935200 -23.689500 -33.359300
N -16.691000 -21.454400 -33.218100
C -16.457500 -22.632300 -33.810600
H -16.276200 -20.691700 -33.482000
C -15.624100 -22.664100 -35.040900
H -15.506100 -24.679200 -35.075800
H -15.459600 -20.685900 -35.426900
C -15.240600 -23.910100 -35.527400
C -15.216600 -21.527600 -35.739100
C -14.472100 -24.025500 -36.669800
C -14.453700 -21.632500 -36.892600
H -14.216200 -24.865200 -36.975200
H -14.192200 -20.866200 -37.349000
C -14.081500 -22.883600 -37.361400
O -13.330000 -23.057300 -38.480600
H -13.243200 -22.338500 -38.864500
21
Fragment
H -17.953600 -17.430900 -35.876500
O -17.160600 -15.004000 -35.910300
C -17.043100 -17.707800 -35.748900
H -17.037500 -13.017100 -34.477200
H -17.026300 -18.604200 -35.406700
H -16.578700 -17.677000 -36.588700
C -16.524100 -15.460100 -34.964900
N -16.387500 -16.809700 -34.795900
C -16.132600 -13.180900 -34.200600
H -15.962600 -12.726600 -33.370900
N -15.930300 -14.624200 -34.019200
C -15.625700 -17.289200 -33.758100
H -15.529400 -12.855400 -34.873700
N -15.360100 -18.588300 -33.473400
C -15.117900 -15.033100 -32.950300
C -15.012800 -16.435900 -32.880100
O -14.585500 -14.215500 -32.194400
C -14.562800 -18.500300 -32.399400
N -14.321800 -17.246400 -32.001400
H -14.208200 -19.245200 -31.969100
H -13.836800 -16.997400 -31.337600
38
Fragment
H -17.214800 -21.450000 -32.486800
O -16.935200 -23.689500 -33.359300
N -16.691000 -21.454400 -33.218100
C -16.457500 -22.632300 -33.810600
H -16.276200 -20.691700 -33.482000
C -15.624100 -22.664100 -35.040900
H -15.506100 -24.679200 -35.075800
H -15.459600 -20.685900 -35.426900
C -15.240600 -23.910100 -35.527400
C -15.216600 -21.527600 -35.739100
C -14.472100 -24.025500 -36.669800
C -14.453700 -21.632500 -36.892600
H -14.216200 -24.865200 -36.975200
H -14.192200 -20.866200 -37.349000
C -14.081500 -22.883600 -37.361400
O -13.330000 -23.057300 -38.480600
H -13.243200 -22.338500 -38.864500
H -17.953600 -17.430900 -35.876500
O -17.160600 -15.004000 -35.910300
C -17.043100 -17.707800 -35.748900
H -17.037500 -13.017100 -34.477200
H -17.026300 -18.604200 -35.406700
H -16.578700 -17.677000 -36.588700
C -16.524100 -15.460100 -34.964900
N -16.387500 -16.809700 -34.795900
C -16.132600 -13.180900 -34.200600
H -15.962600 -12.726600 -33.370900
N -15.930300 -14.624200 -34.019200
C -15.625700 -17.289200 -33.758100
H -15.529400 -12.855400 -34.873700
N -15.360100 -18.588300 -33.473400
C -15.117900 -15.033100 -32.950300
C -15.012800 -16.435900 -32.880100
O -14.585500 -14.215500 -32.194400
C -14.562800 -18.500300 -32.399400
N -14.321800 -17.246400 -32.001400
H -14.208200 -19.245200 -31.969100
H -13.836800 -16.997400 -31.337600
