17
Fragment
H -17.214800 -21.450000 -32.486800
O -16.935200 -23.689500 -33.359300
N -16.691000 -21.454400 -33.218100
C -16.457500 -22.632300 -33.810600
H -16.276200 -20.691700 -33.482000
C -15.624100 -22.664100 -35.040900
H -15.506100 -24.679200 -35.075800
H -15.459600 -20.685900 -35.426900
C -15.240600 -23.910100 -35.527400
C -15.216600 -21.527600 -35.739100
C -14.472100 -24.025500 -36.669800
C -14.453700 -21.632500 -36.892600
H -14.216200 -24.865200 -36.975200
H -14.192200 -20.866200 -37.349000
C -14.081500 -22.883600 -37.361400
O -13.330000 -23.057300 -38.480600
H -13.243200 -22.338500 -38.864500
21
Fragment
H -18.250400 -16.997400 -31.807400
H -17.879000 -19.245200 -31.175900
N -17.765400 -17.246400 -31.143600
C -17.524400 -18.500300 -30.745600
O -17.501700 -14.215500 -30.950600
C -17.074400 -16.435900 -30.264900
C -16.969300 -15.033100 -30.194700
N -16.727100 -18.588300 -29.671600
H -16.557800 -12.855400 -28.271300
C -16.461500 -17.289200 -29.386900
N -16.156900 -14.624200 -29.125800
H -16.124600 -12.726600 -29.774100
C -15.954600 -13.180900 -28.944400
N -15.699700 -16.809700 -28.349100
C -15.563100 -15.460100 -28.180100
H -15.508500 -17.677000 -26.556300
H -15.060900 -18.604200 -27.738300
H -15.049700 -13.017100 -28.667800
C -15.044100 -17.707800 -27.396100
O -14.926600 -15.004000 -27.234700
H -14.133600 -17.430900 -27.268500
38
Fragment
H -17.214800 -21.450000 -32.486800
O -16.935200 -23.689500 -33.359300
N -16.691000 -21.454400 -33.218100
C -16.457500 -22.632300 -33.810600
H -16.276200 -20.691700 -33.482000
C -15.624100 -22.664100 -35.040900
H -15.506100 -24.679200 -35.075800
H -15.459600 -20.685900 -35.426900
C -15.240600 -23.910100 -35.527400
C -15.216600 -21.527600 -35.739100
C -14.472100 -24.025500 -36.669800
C -14.453700 -21.632500 -36.892600
H -14.216200 -24.865200 -36.975200
H -14.192200 -20.866200 -37.349000
C -14.081500 -22.883600 -37.361400
O -13.330000 -23.057300 -38.480600
H -13.243200 -22.338500 -38.864500
H -18.250400 -16.997400 -31.807400
H -17.879000 -19.245200 -31.175900
N -17.765400 -17.246400 -31.143600
C -17.524400 -18.500300 -30.745600
O -17.501700 -14.215500 -30.950600
C -17.074400 -16.435900 -30.264900
C -16.969300 -15.033100 -30.194700
N -16.727100 -18.588300 -29.671600
H -16.557800 -12.855400 -28.271300
C -16.461500 -17.289200 -29.386900
N -16.156900 -14.624200 -29.125800
H -16.124600 -12.726600 -29.774100
C -15.954600 -13.180900 -28.944400
N -15.699700 -16.809700 -28.349100
C -15.563100 -15.460100 -28.180100
H -15.508500 -17.677000 -26.556300
H -15.060900 -18.604200 -27.738300
H -15.049700 -13.017100 -28.667800
C -15.044100 -17.707800 -27.396100
O -14.926600 -15.004000 -27.234700
H -14.133600 -17.430900 -27.268500
