17
Fragment
H -17.214800 -21.450000 -32.486800
O -16.935200 -23.689500 -33.359300
N -16.691000 -21.454400 -33.218100
C -16.457500 -22.632300 -33.810600
H -16.276200 -20.691700 -33.482000
C -15.624100 -22.664100 -35.040900
H -15.506100 -24.679200 -35.075800
H -15.459600 -20.685900 -35.426900
C -15.240600 -23.910100 -35.527400
C -15.216600 -21.527600 -35.739100
C -14.472100 -24.025500 -36.669800
C -14.453700 -21.632500 -36.892600
H -14.216200 -24.865200 -36.975200
H -14.192200 -20.866200 -37.349000
C -14.081500 -22.883600 -37.361400
O -13.330000 -23.057300 -38.480600
H -13.243200 -22.338500 -38.864500
21
Fragment
H -21.964500 -24.584700 -27.268500
O -21.171500 -22.157800 -27.234700
C -21.054000 -24.861600 -27.396100
H -21.048400 -20.170900 -28.667800
H -21.037200 -25.758000 -27.738300
H -20.589600 -24.830800 -26.556300
C -20.535000 -22.613900 -28.180100
N -20.398400 -23.963500 -28.349100
C -20.143500 -20.334700 -28.944400
H -19.973500 -19.880400 -29.774100
N -19.941200 -21.778000 -29.125800
C -19.636600 -24.443000 -29.386900
H -19.540300 -20.009200 -28.271300
N -19.371000 -25.742100 -29.671600
C -19.128800 -22.186900 -30.194700
C -19.023700 -23.589700 -30.264900
O -18.596400 -21.369300 -30.950600
C -18.573700 -25.654100 -30.745600
N -18.332700 -24.400200 -31.143600
H -18.219100 -26.399000 -31.175900
H -17.847700 -24.151200 -31.807400
38
Fragment
H -17.214800 -21.450000 -32.486800
O -16.935200 -23.689500 -33.359300
N -16.691000 -21.454400 -33.218100
C -16.457500 -22.632300 -33.810600
H -16.276200 -20.691700 -33.482000
C -15.624100 -22.664100 -35.040900
H -15.506100 -24.679200 -35.075800
H -15.459600 -20.685900 -35.426900
C -15.240600 -23.910100 -35.527400
C -15.216600 -21.527600 -35.739100
C -14.472100 -24.025500 -36.669800
C -14.453700 -21.632500 -36.892600
H -14.216200 -24.865200 -36.975200
H -14.192200 -20.866200 -37.349000
C -14.081500 -22.883600 -37.361400
O -13.330000 -23.057300 -38.480600
H -13.243200 -22.338500 -38.864500
H -21.964500 -24.584700 -27.268500
O -21.171500 -22.157800 -27.234700
C -21.054000 -24.861600 -27.396100
H -21.048400 -20.170900 -28.667800
H -21.037200 -25.758000 -27.738300
H -20.589600 -24.830800 -26.556300
C -20.535000 -22.613900 -28.180100
N -20.398400 -23.963500 -28.349100
C -20.143500 -20.334700 -28.944400
H -19.973500 -19.880400 -29.774100
N -19.941200 -21.778000 -29.125800
C -19.636600 -24.443000 -29.386900
H -19.540300 -20.009200 -28.271300
N -19.371000 -25.742100 -29.671600
C -19.128800 -22.186900 -30.194700
C -19.023700 -23.589700 -30.264900
O -18.596400 -21.369300 -30.950600
C -18.573700 -25.654100 -30.745600
N -18.332700 -24.400200 -31.143600
H -18.219100 -26.399000 -31.175900
H -17.847700 -24.151200 -31.807400
