17
Fragment
H -17.214800 -21.450000 -32.486800
O -16.935200 -23.689500 -33.359300
N -16.691000 -21.454400 -33.218100
C -16.457500 -22.632300 -33.810600
H -16.276200 -20.691700 -33.482000
C -15.624100 -22.664100 -35.040900
H -15.506100 -24.679200 -35.075800
H -15.459600 -20.685900 -35.426900
C -15.240600 -23.910100 -35.527400
C -15.216600 -21.527600 -35.739100
C -14.472100 -24.025500 -36.669800
C -14.453700 -21.632500 -36.892600
H -14.216200 -24.865200 -36.975200
H -14.192200 -20.866200 -37.349000
C -14.081500 -22.883600 -37.361400
O -13.330000 -23.057300 -38.480600
H -13.243200 -22.338500 -38.864500
21
Fragment
H -22.261300 -24.151200 -31.337600
H -21.889900 -26.399000 -31.969100
N -21.776300 -24.400200 -32.001400
C -21.535300 -25.654100 -32.399400
O -21.512600 -21.369300 -32.194400
C -21.085300 -23.589700 -32.880100
C -20.980200 -22.186900 -32.950300
N -20.738000 -25.742100 -33.473400
H -20.568700 -20.009200 -34.873700
C -20.472400 -24.443000 -33.758100
N -20.167800 -21.778000 -34.019200
H -20.135500 -19.880400 -33.370900
C -19.965500 -20.334700 -34.200600
N -19.710600 -23.963500 -34.795900
C -19.574000 -22.613900 -34.964900
H -19.519400 -24.830800 -36.588700
H -19.071800 -25.758000 -35.406700
H -19.060600 -20.170900 -34.477200
C -19.055000 -24.861600 -35.748900
O -18.937500 -22.157800 -35.910300
H -18.144500 -24.584700 -35.876500
38
Fragment
H -17.214800 -21.450000 -32.486800
O -16.935200 -23.689500 -33.359300
N -16.691000 -21.454400 -33.218100
C -16.457500 -22.632300 -33.810600
H -16.276200 -20.691700 -33.482000
C -15.624100 -22.664100 -35.040900
H -15.506100 -24.679200 -35.075800
H -15.459600 -20.685900 -35.426900
C -15.240600 -23.910100 -35.527400
C -15.216600 -21.527600 -35.739100
C -14.472100 -24.025500 -36.669800
C -14.453700 -21.632500 -36.892600
H -14.216200 -24.865200 -36.975200
H -14.192200 -20.866200 -37.349000
C -14.081500 -22.883600 -37.361400
O -13.330000 -23.057300 -38.480600
H -13.243200 -22.338500 -38.864500
H -22.261300 -24.151200 -31.337600
H -21.889900 -26.399000 -31.969100
N -21.776300 -24.400200 -32.001400
C -21.535300 -25.654100 -32.399400
O -21.512600 -21.369300 -32.194400
C -21.085300 -23.589700 -32.880100
C -20.980200 -22.186900 -32.950300
N -20.738000 -25.742100 -33.473400
H -20.568700 -20.009200 -34.873700
C -20.472400 -24.443000 -33.758100
N -20.167800 -21.778000 -34.019200
H -20.135500 -19.880400 -33.370900
C -19.965500 -20.334700 -34.200600
N -19.710600 -23.963500 -34.795900
C -19.574000 -22.613900 -34.964900
H -19.519400 -24.830800 -36.588700
H -19.071800 -25.758000 -35.406700
H -19.060600 -20.170900 -34.477200
C -19.055000 -24.861600 -35.748900
O -18.937500 -22.157800 -35.910300
H -18.144500 -24.584700 -35.876500
