21
Fragment
H -9.875700 -5.826900 -19.453800
C -9.334400 -6.506200 -19.123100
N -8.995500 -6.604500 -17.836400
H -8.926400 -7.576100 -20.748100
N -8.821900 -7.479100 -19.899600
H -8.308700 -8.266800 -14.841800
C -8.220100 -7.717200 -17.811200
H -8.213500 -6.824000 -15.447400
C -8.094100 -8.287000 -19.052200
C -7.772800 -7.673400 -15.373400
N -7.589700 -8.244900 -16.707400
C -7.308000 -9.446800 -19.288900
O -7.149900 -10.035800 -20.362300
H -6.916500 -7.554500 -14.955500
C -6.786200 -9.359000 -16.840400
N -6.671500 -9.902800 -18.132600
H -6.320700 -11.871500 -18.323000
O -6.202200 -9.839900 -15.884200
C -5.789200 -11.072900 -18.285800
H -5.282400 -10.987800 -19.096200
H -5.189500 -11.122100 -17.537200
15
Fragment
H -5.506500 -9.624900 -13.152600
C -4.949200 -10.267000 -12.775200
H -4.912400 -9.506700 -10.891000
H -4.670400 -11.370600 -14.445500
C -4.601800 -10.197500 -11.430400
C -4.454300 -11.304300 -13.542900
C -3.778300 -11.189400 -10.915900
O -3.755600 -10.224300 -8.725000
C -3.627500 -12.246800 -12.941000
C -3.371600 -11.151900 -9.466100
H -3.293300 -12.939500 -13.464400
N -3.288000 -12.208000 -11.648300
N -2.596900 -12.150700 -9.064800
H -2.398100 -12.041600 -8.349400
H -2.352500 -12.783300 -9.635400
36
Fragment
H -9.875700 -5.826900 -19.453800
C -9.334400 -6.506200 -19.123100
N -8.995500 -6.604500 -17.836400
H -8.926400 -7.576100 -20.748100
N -8.821900 -7.479100 -19.899600
H -8.308700 -8.266800 -14.841800
C -8.220100 -7.717200 -17.811200
H -8.213500 -6.824000 -15.447400
C -8.094100 -8.287000 -19.052200
C -7.772800 -7.673400 -15.373400
N -7.589700 -8.244900 -16.707400
C -7.308000 -9.446800 -19.288900
O -7.149900 -10.035800 -20.362300
H -6.916500 -7.554500 -14.955500
C -6.786200 -9.359000 -16.840400
N -6.671500 -9.902800 -18.132600
H -6.320700 -11.871500 -18.323000
O -6.202200 -9.839900 -15.884200
C -5.789200 -11.072900 -18.285800
H -5.282400 -10.987800 -19.096200
H -5.189500 -11.122100 -17.537200
H -5.506500 -9.624900 -13.152600
C -4.949200 -10.267000 -12.775200
H -4.912400 -9.506700 -10.891000
H -4.670400 -11.370600 -14.445500
C -4.601800 -10.197500 -11.430400
C -4.454300 -11.304300 -13.542900
C -3.778300 -11.189400 -10.915900
O -3.755600 -10.224300 -8.725000
C -3.627500 -12.246800 -12.941000
C -3.371600 -11.151900 -9.466100
H -3.293300 -12.939500 -13.464400
N -3.288000 -12.208000 -11.648300
N -2.596900 -12.150700 -9.064800
H -2.398100 -12.041600 -8.349400
H -2.352500 -12.783300 -9.635400
