15
Fragment
Cl -3.829300 -7.199000 -13.300100
Cl -3.519800 -8.810200 -15.990600
C -2.346700 -7.994800 -13.693300
C -2.215200 -8.722400 -14.860200
H -1.376000 -7.414600 -12.026400
C -1.280700 -7.897600 -12.815900
C -1.032200 -9.374200 -15.131100
H -0.948300 -9.884900 -15.904300
C -0.072000 -8.517000 -13.101800
C 0.026400 -9.266600 -14.258200
H 0.821600 -9.708300 -14.449200
O 0.868200 -7.676100 -11.130500
C 1.117200 -8.364600 -12.219700
H 1.556300 -7.600800 -10.691600
O 2.193600 -8.821100 -12.499800
15
Fragment
O -10.430000 -10.501200 -22.228300
H -9.792700 -11.721500 -24.036500
C -9.353600 -10.957700 -22.508500
O -9.104600 -11.646100 -23.597700
H -9.058000 -9.614000 -20.278900
C -8.262800 -10.055600 -20.469900
C -8.164400 -10.805200 -21.626400
H -7.288100 -9.437400 -18.823800
C -7.204200 -9.948000 -19.597100
C -6.955700 -11.424700 -21.912300
H -6.860400 -11.907600 -22.701800
C -6.021200 -10.599800 -19.868000
C -5.889700 -11.327400 -21.034900
Cl -4.716600 -10.512100 -18.737600
Cl -4.407100 -12.123300 -21.428100
30
Fragment
Cl -3.829300 -7.199000 -13.300100
Cl -3.519800 -8.810200 -15.990600
C -2.346700 -7.994800 -13.693300
C -2.215200 -8.722400 -14.860200
H -1.376000 -7.414600 -12.026400
C -1.280700 -7.897600 -12.815900
C -1.032200 -9.374200 -15.131100
H -0.948300 -9.884900 -15.904300
C -0.072000 -8.517000 -13.101800
C 0.026400 -9.266600 -14.258200
H 0.821600 -9.708300 -14.449200
O 0.868200 -7.676100 -11.130500
C 1.117200 -8.364600 -12.219700
H 1.556300 -7.600800 -10.691600
O 2.193600 -8.821100 -12.499800
O -10.430000 -10.501200 -22.228300
H -9.792700 -11.721500 -24.036500
C -9.353600 -10.957700 -22.508500
O -9.104600 -11.646100 -23.597700
H -9.058000 -9.614000 -20.278900
C -8.262800 -10.055600 -20.469900
C -8.164400 -10.805200 -21.626400
H -7.288100 -9.437400 -18.823800
C -7.204200 -9.948000 -19.597100
C -6.955700 -11.424700 -21.912300
H -6.860400 -11.907600 -22.701800
C -6.021200 -10.599800 -19.868000
C -5.889700 -11.327400 -21.034900
Cl -4.716600 -10.512100 -18.737600
Cl -4.407100 -12.123300 -21.428100
