21
Fragment
H -17.857800 -34.340900 -16.013200
H -17.578600 -32.516800 -20.944700
O -17.375500 -32.334400 -17.936600
C -16.904900 -34.224500 -16.038600
C -16.774000 -33.328900 -18.307200
C -16.710200 -32.375800 -20.560100
H -16.708000 -31.549900 -20.069200
H -16.678600 -33.358700 -15.691700
H -16.485300 -34.903400 -15.505100
N -16.436100 -34.333800 -17.425500
N -16.391400 -33.487500 -19.650000
H -16.053000 -32.335400 -21.259100
C -15.818600 -35.464800 -17.904600
C -15.763700 -34.608500 -20.205600
O -15.516200 -34.668000 -21.413500
C -15.497400 -35.606300 -19.231000
N -15.479200 -36.578000 -17.193700
C -14.947700 -37.392300 -18.116000
N -14.936100 -36.861600 -19.342400
H -14.637400 -37.229800 -20.059200
H -14.619600 -38.240000 -17.922100
21
Fragment
H -15.005700 -34.915300 -24.980700
H -14.947900 -35.847400 -22.807700
C -14.628100 -35.733500 -24.752200
N -14.615400 -36.219000 -23.509000
N -14.039600 -36.547500 -25.636600
C -13.963200 -37.434900 -23.569100
O -13.942900 -38.344600 -21.373000
C -13.681500 -38.412600 -22.578500
C -13.632500 -37.609700 -24.887300
H -13.529900 -38.953000 -27.272800
H -13.233300 -40.535900 -21.375300
N -13.055900 -39.539400 -23.109100
N -13.007000 -38.737400 -25.348000
H -12.874100 -41.468800 -22.583800
C -12.749800 -39.773700 -24.465700
C -12.708900 -38.899800 -26.779500
C -12.703300 -40.618400 -22.172200
O -12.280400 -40.834400 -24.826000
H -12.203400 -39.705100 -26.911100
H -12.198200 -38.147700 -27.087700
H -11.772600 -40.553700 -21.945100
42
Fragment
H -17.857800 -34.340900 -16.013200
H -17.578600 -32.516800 -20.944700
O -17.375500 -32.334400 -17.936600
C -16.904900 -34.224500 -16.038600
C -16.774000 -33.328900 -18.307200
C -16.710200 -32.375800 -20.560100
H -16.708000 -31.549900 -20.069200
H -16.678600 -33.358700 -15.691700
H -16.485300 -34.903400 -15.505100
N -16.436100 -34.333800 -17.425500
N -16.391400 -33.487500 -19.650000
H -16.053000 -32.335400 -21.259100
C -15.818600 -35.464800 -17.904600
C -15.763700 -34.608500 -20.205600
O -15.516200 -34.668000 -21.413500
C -15.497400 -35.606300 -19.231000
N -15.479200 -36.578000 -17.193700
C -14.947700 -37.392300 -18.116000
N -14.936100 -36.861600 -19.342400
H -14.637400 -37.229800 -20.059200
H -14.619600 -38.240000 -17.922100
H -15.005700 -34.915300 -24.980700
H -14.947900 -35.847400 -22.807700
C -14.628100 -35.733500 -24.752200
N -14.615400 -36.219000 -23.509000
N -14.039600 -36.547500 -25.636600
C -13.963200 -37.434900 -23.569100
O -13.942900 -38.344600 -21.373000
C -13.681500 -38.412600 -22.578500
C -13.632500 -37.609700 -24.887300
H -13.529900 -38.953000 -27.272800
H -13.233300 -40.535900 -21.375300
N -13.055900 -39.539400 -23.109100
N -13.007000 -38.737400 -25.348000
H -12.874100 -41.468800 -22.583800
C -12.749800 -39.773700 -24.465700
C -12.708900 -38.899800 -26.779500
C -12.703300 -40.618400 -22.172200
O -12.280400 -40.834400 -24.826000
H -12.203400 -39.705100 -26.911100
H -12.198200 -38.147700 -27.087700
H -11.772600 -40.553700 -21.945100
