21
Fragment
H -17.857800 -34.340900 -16.013200
H -17.578600 -32.516800 -20.944700
O -17.375500 -32.334400 -17.936600
C -16.904900 -34.224500 -16.038600
C -16.774000 -33.328900 -18.307200
C -16.710200 -32.375800 -20.560100
H -16.708000 -31.549900 -20.069200
H -16.678600 -33.358700 -15.691700
H -16.485300 -34.903400 -15.505100
N -16.436100 -34.333800 -17.425500
N -16.391400 -33.487500 -19.650000
H -16.053000 -32.335400 -21.259100
C -15.818600 -35.464800 -17.904600
C -15.763700 -34.608500 -20.205600
O -15.516200 -34.668000 -21.413500
C -15.497400 -35.606300 -19.231000
N -15.479200 -36.578000 -17.193700
C -14.947700 -37.392300 -18.116000
N -14.936100 -36.861600 -19.342400
H -14.637400 -37.229800 -20.059200
H -14.619600 -38.240000 -17.922100
17
Fragment
H -20.087700 -31.162800 -24.751000
H -19.761000 -30.442200 -26.915400
C -19.660800 -31.720100 -25.361000
Cl -19.555000 -33.406400 -23.316700
C -19.466500 -31.286400 -26.660900
C -19.227600 -32.977600 -24.954300
O -19.098000 -30.449400 -29.216400
H -18.990500 -30.249800 -30.004100
C -18.831000 -32.109300 -27.589600
C -18.589400 -31.646000 -28.991800
C -18.589200 -33.798800 -25.894700
C -18.389500 -33.367900 -27.200500
N -18.085300 -35.141900 -25.562300
O -17.993500 -32.307100 -29.820100
H -17.960500 -33.921700 -27.812500
O -17.919300 -35.930100 -26.484300
O -17.842300 -35.414500 -24.394000
38
Fragment
H -17.857800 -34.340900 -16.013200
H -17.578600 -32.516800 -20.944700
O -17.375500 -32.334400 -17.936600
C -16.904900 -34.224500 -16.038600
C -16.774000 -33.328900 -18.307200
C -16.710200 -32.375800 -20.560100
H -16.708000 -31.549900 -20.069200
H -16.678600 -33.358700 -15.691700
H -16.485300 -34.903400 -15.505100
N -16.436100 -34.333800 -17.425500
N -16.391400 -33.487500 -19.650000
H -16.053000 -32.335400 -21.259100
C -15.818600 -35.464800 -17.904600
C -15.763700 -34.608500 -20.205600
O -15.516200 -34.668000 -21.413500
C -15.497400 -35.606300 -19.231000
N -15.479200 -36.578000 -17.193700
C -14.947700 -37.392300 -18.116000
N -14.936100 -36.861600 -19.342400
H -14.637400 -37.229800 -20.059200
H -14.619600 -38.240000 -17.922100
H -20.087700 -31.162800 -24.751000
H -19.761000 -30.442200 -26.915400
C -19.660800 -31.720100 -25.361000
Cl -19.555000 -33.406400 -23.316700
C -19.466500 -31.286400 -26.660900
C -19.227600 -32.977600 -24.954300
O -19.098000 -30.449400 -29.216400
H -18.990500 -30.249800 -30.004100
C -18.831000 -32.109300 -27.589600
C -18.589400 -31.646000 -28.991800
C -18.589200 -33.798800 -25.894700
C -18.389500 -33.367900 -27.200500
N -18.085300 -35.141900 -25.562300
O -17.993500 -32.307100 -29.820100
H -17.960500 -33.921700 -27.812500
O -17.919300 -35.930100 -26.484300
O -17.842300 -35.414500 -24.394000
