21
Fragment
H -9.875700 -5.826900 -19.453800
C -9.334400 -6.506200 -19.123100
N -8.995500 -6.604500 -17.836400
H -8.926400 -7.576100 -20.748100
N -8.821900 -7.479100 -19.899600
H -8.308700 -8.266800 -14.841800
C -8.220100 -7.717200 -17.811200
H -8.213500 -6.824000 -15.447400
C -8.094100 -8.287000 -19.052200
C -7.772800 -7.673400 -15.373400
N -7.589700 -8.244900 -16.707400
C -7.308000 -9.446800 -19.288900
O -7.149900 -10.035800 -20.362300
H -6.916500 -7.554500 -14.955500
C -6.786200 -9.359000 -16.840400
N -6.671500 -9.902800 -18.132600
H -6.320700 -11.871500 -18.323000
O -6.202200 -9.839900 -15.884200
C -5.789200 -11.072900 -18.285800
H -5.282400 -10.987800 -19.096200
H -5.189500 -11.122100 -17.537200
21
Fragment
H -12.189000 -5.539800 -11.543700
H -12.099000 -6.682400 -12.613500
C -11.591000 -6.100900 -12.042500
N -11.311700 -5.552500 -9.153000
H -11.176400 -5.102000 -7.208900
H -11.011000 -5.553500 -12.577500
C -10.917800 -5.684800 -7.886100
N -10.787700 -6.905600 -11.116600
C -10.703600 -6.594900 -9.778900
N -10.110600 -6.741400 -7.679900
O -10.081700 -8.258700 -12.801500
C -10.068200 -7.966000 -11.615200
C -9.953500 -7.349500 -8.911100
H -9.762700 -6.988300 -6.933100
N -9.285500 -8.692700 -10.700400
C -9.199400 -8.479000 -9.316000
H -8.972300 -10.594200 -11.248500
O -8.513000 -9.220500 -8.605400
C -8.471900 -9.775200 -11.265300
H -8.239600 -9.561400 -12.171400
H -7.671700 -9.878100 -10.745400
42
Fragment
H -9.875700 -5.826900 -19.453800
C -9.334400 -6.506200 -19.123100
N -8.995500 -6.604500 -17.836400
H -8.926400 -7.576100 -20.748100
N -8.821900 -7.479100 -19.899600
H -8.308700 -8.266800 -14.841800
C -8.220100 -7.717200 -17.811200
H -8.213500 -6.824000 -15.447400
C -8.094100 -8.287000 -19.052200
C -7.772800 -7.673400 -15.373400
N -7.589700 -8.244900 -16.707400
C -7.308000 -9.446800 -19.288900
O -7.149900 -10.035800 -20.362300
H -6.916500 -7.554500 -14.955500
C -6.786200 -9.359000 -16.840400
N -6.671500 -9.902800 -18.132600
H -6.320700 -11.871500 -18.323000
O -6.202200 -9.839900 -15.884200
C -5.789200 -11.072900 -18.285800
H -5.282400 -10.987800 -19.096200
H -5.189500 -11.122100 -17.537200
H -12.189000 -5.539800 -11.543700
H -12.099000 -6.682400 -12.613500
C -11.591000 -6.100900 -12.042500
N -11.311700 -5.552500 -9.153000
H -11.176400 -5.102000 -7.208900
H -11.011000 -5.553500 -12.577500
C -10.917800 -5.684800 -7.886100
N -10.787700 -6.905600 -11.116600
C -10.703600 -6.594900 -9.778900
N -10.110600 -6.741400 -7.679900
O -10.081700 -8.258700 -12.801500
C -10.068200 -7.966000 -11.615200
C -9.953500 -7.349500 -8.911100
H -9.762700 -6.988300 -6.933100
N -9.285500 -8.692700 -10.700400
C -9.199400 -8.479000 -9.316000
H -8.972300 -10.594200 -11.248500
O -8.513000 -9.220500 -8.605400
C -8.471900 -9.775200 -11.265300
H -8.239600 -9.561400 -12.171400
H -7.671700 -9.878100 -10.745400
