15
Fragment
Cl -3.829300 -7.199000 -13.300100
Cl -3.519800 -8.810200 -15.990600
C -2.346700 -7.994800 -13.693300
C -2.215200 -8.722400 -14.860200
H -1.376000 -7.414600 -12.026400
C -1.280700 -7.897600 -12.815900
C -1.032200 -9.374200 -15.131100
H -0.948300 -9.884900 -15.904300
C -0.072000 -8.517000 -13.101800
C 0.026400 -9.266600 -14.258200
H 0.821600 -9.708300 -14.449200
O 0.868200 -7.676100 -11.130500
C 1.117200 -8.364600 -12.219700
H 1.556300 -7.600800 -10.691600
O 2.193600 -8.821100 -12.499800
15
Fragment
Cl -9.154300 -0.982000 -13.672000
H -8.257400 -2.495000 -15.837200
C -7.671900 -1.783300 -14.056800
C -7.543200 -2.470600 -15.242200
Cl -6.710400 -0.879200 -11.669400
C -6.608000 -1.735100 -13.167800
C -6.364800 -3.127600 -15.561700
H -6.287000 -3.595500 -16.361600
C -5.416900 -2.381300 -13.480300
C -5.301100 -3.077500 -14.669200
H -4.698300 -2.344200 -12.891100
O -4.009400 -4.505800 -16.023600
C -4.008400 -3.769800 -14.934300
H -3.276000 -4.859300 -16.115000
O -3.060100 -3.660500 -14.195700
30
Fragment
Cl -3.829300 -7.199000 -13.300100
Cl -3.519800 -8.810200 -15.990600
C -2.346700 -7.994800 -13.693300
C -2.215200 -8.722400 -14.860200
H -1.376000 -7.414600 -12.026400
C -1.280700 -7.897600 -12.815900
C -1.032200 -9.374200 -15.131100
H -0.948300 -9.884900 -15.904300
C -0.072000 -8.517000 -13.101800
C 0.026400 -9.266600 -14.258200
H 0.821600 -9.708300 -14.449200
O 0.868200 -7.676100 -11.130500
C 1.117200 -8.364600 -12.219700
H 1.556300 -7.600800 -10.691600
O 2.193600 -8.821100 -12.499800
Cl -9.154300 -0.982000 -13.672000
H -8.257400 -2.495000 -15.837200
C -7.671900 -1.783300 -14.056800
C -7.543200 -2.470600 -15.242200
Cl -6.710400 -0.879200 -11.669400
C -6.608000 -1.735100 -13.167800
C -6.364800 -3.127600 -15.561700
H -6.287000 -3.595500 -16.361600
C -5.416900 -2.381300 -13.480300
C -5.301100 -3.077500 -14.669200
H -4.698300 -2.344200 -12.891100
O -4.009400 -4.505800 -16.023600
C -4.008400 -3.769800 -14.934300
H -3.276000 -4.859300 -16.115000
O -3.060100 -3.660500 -14.195700
