21
Fragment
H -9.875700 -5.826900 -19.453800
C -9.334400 -6.506200 -19.123100
N -8.995500 -6.604500 -17.836400
H -8.926400 -7.576100 -20.748100
N -8.821900 -7.479100 -19.899600
H -8.308700 -8.266800 -14.841800
C -8.220100 -7.717200 -17.811200
H -8.213500 -6.824000 -15.447400
C -8.094100 -8.287000 -19.052200
C -7.772800 -7.673400 -15.373400
N -7.589700 -8.244900 -16.707400
C -7.308000 -9.446800 -19.288900
O -7.149900 -10.035800 -20.362300
H -6.916500 -7.554500 -14.955500
C -6.786200 -9.359000 -16.840400
N -6.671500 -9.902800 -18.132600
H -6.320700 -11.871500 -18.323000
O -6.202200 -9.839900 -15.884200
C -5.789200 -11.072900 -18.285800
H -5.282400 -10.987800 -19.096200
H -5.189500 -11.122100 -17.537200
15
Fragment
H -10.358200 -10.603400 -18.080400
H -10.312600 -11.345100 -19.366500
N -10.113900 -11.236000 -18.651100
N -9.422700 -11.178600 -16.067600
H -9.417500 -10.447200 -14.251500
C -9.339200 -12.234800 -18.249800
C -9.083300 -11.139900 -14.774900
O -8.955100 -13.162400 -18.990900
C -8.932400 -12.197300 -16.800000
C -8.256500 -12.082400 -14.172900
C -8.108900 -13.189200 -16.285400
H -8.040400 -12.016000 -13.270400
H -7.798400 -13.880000 -16.824900
C -7.761500 -13.119600 -14.940700
H -7.204200 -13.761700 -14.563300
36
Fragment
H -9.875700 -5.826900 -19.453800
C -9.334400 -6.506200 -19.123100
N -8.995500 -6.604500 -17.836400
H -8.926400 -7.576100 -20.748100
N -8.821900 -7.479100 -19.899600
H -8.308700 -8.266800 -14.841800
C -8.220100 -7.717200 -17.811200
H -8.213500 -6.824000 -15.447400
C -8.094100 -8.287000 -19.052200
C -7.772800 -7.673400 -15.373400
N -7.589700 -8.244900 -16.707400
C -7.308000 -9.446800 -19.288900
O -7.149900 -10.035800 -20.362300
H -6.916500 -7.554500 -14.955500
C -6.786200 -9.359000 -16.840400
N -6.671500 -9.902800 -18.132600
H -6.320700 -11.871500 -18.323000
O -6.202200 -9.839900 -15.884200
C -5.789200 -11.072900 -18.285800
H -5.282400 -10.987800 -19.096200
H -5.189500 -11.122100 -17.537200
H -10.358200 -10.603400 -18.080400
H -10.312600 -11.345100 -19.366500
N -10.113900 -11.236000 -18.651100
N -9.422700 -11.178600 -16.067600
H -9.417500 -10.447200 -14.251500
C -9.339200 -12.234800 -18.249800
C -9.083300 -11.139900 -14.774900
O -8.955100 -13.162400 -18.990900
C -8.932400 -12.197300 -16.800000
C -8.256500 -12.082400 -14.172900
C -8.108900 -13.189200 -16.285400
H -8.040400 -12.016000 -13.270400
H -7.798400 -13.880000 -16.824900
C -7.761500 -13.119600 -14.940700
H -7.204200 -13.761700 -14.563300
