21
Fragment
H -9.875700 -5.826900 -19.453800
C -9.334400 -6.506200 -19.123100
N -8.995500 -6.604500 -17.836400
H -8.926400 -7.576100 -20.748100
N -8.821900 -7.479100 -19.899600
H -8.308700 -8.266800 -14.841800
C -8.220100 -7.717200 -17.811200
H -8.213500 -6.824000 -15.447400
C -8.094100 -8.287000 -19.052200
C -7.772800 -7.673400 -15.373400
N -7.589700 -8.244900 -16.707400
C -7.308000 -9.446800 -19.288900
O -7.149900 -10.035800 -20.362300
H -6.916500 -7.554500 -14.955500
C -6.786200 -9.359000 -16.840400
N -6.671500 -9.902800 -18.132600
H -6.320700 -11.871500 -18.323000
O -6.202200 -9.839900 -15.884200
C -5.789200 -11.072900 -18.285800
H -5.282400 -10.987800 -19.096200
H -5.189500 -11.122100 -17.537200
21
Fragment
H -9.860300 -3.233700 -25.401600
H -9.770300 -4.376300 -26.471400
C -9.262300 -3.794900 -25.900500
N -8.982900 -3.246500 -23.011000
H -8.847700 -2.795900 -21.066800
H -8.682200 -3.247400 -26.435400
C -8.589100 -3.378700 -21.744100
N -8.459000 -4.599600 -24.974500
C -8.374800 -4.288800 -23.636800
N -7.781900 -4.435400 -21.537900
O -7.752900 -5.952600 -26.659500
C -7.739400 -5.660000 -25.473100
C -7.624700 -5.043500 -22.769000
H -7.434000 -4.682300 -20.791100
N -6.956800 -6.386600 -24.558300
C -6.870700 -6.173000 -23.173900
H -6.643500 -8.288100 -25.106400
O -6.184200 -6.914500 -22.463300
C -6.143200 -7.469200 -25.123200
H -5.910800 -7.255400 -26.029400
H -5.342900 -7.572000 -24.603400
42
Fragment
H -9.875700 -5.826900 -19.453800
C -9.334400 -6.506200 -19.123100
N -8.995500 -6.604500 -17.836400
H -8.926400 -7.576100 -20.748100
N -8.821900 -7.479100 -19.899600
H -8.308700 -8.266800 -14.841800
C -8.220100 -7.717200 -17.811200
H -8.213500 -6.824000 -15.447400
C -8.094100 -8.287000 -19.052200
C -7.772800 -7.673400 -15.373400
N -7.589700 -8.244900 -16.707400
C -7.308000 -9.446800 -19.288900
O -7.149900 -10.035800 -20.362300
H -6.916500 -7.554500 -14.955500
C -6.786200 -9.359000 -16.840400
N -6.671500 -9.902800 -18.132600
H -6.320700 -11.871500 -18.323000
O -6.202200 -9.839900 -15.884200
C -5.789200 -11.072900 -18.285800
H -5.282400 -10.987800 -19.096200
H -5.189500 -11.122100 -17.537200
H -9.860300 -3.233700 -25.401600
H -9.770300 -4.376300 -26.471400
C -9.262300 -3.794900 -25.900500
N -8.982900 -3.246500 -23.011000
H -8.847700 -2.795900 -21.066800
H -8.682200 -3.247400 -26.435400
C -8.589100 -3.378700 -21.744100
N -8.459000 -4.599600 -24.974500
C -8.374800 -4.288800 -23.636800
N -7.781900 -4.435400 -21.537900
O -7.752900 -5.952600 -26.659500
C -7.739400 -5.660000 -25.473100
C -7.624700 -5.043500 -22.769000
H -7.434000 -4.682300 -20.791100
N -6.956800 -6.386600 -24.558300
C -6.870700 -6.173000 -23.173900
H -6.643500 -8.288100 -25.106400
O -6.184200 -6.914500 -22.463300
C -6.143200 -7.469200 -25.123200
H -5.910800 -7.255400 -26.029400
H -5.342900 -7.572000 -24.603400
