21
Fragment
H -17.857800 -34.340900 -16.013200
H -17.578600 -32.516800 -20.944700
O -17.375500 -32.334400 -17.936600
C -16.904900 -34.224500 -16.038600
C -16.774000 -33.328900 -18.307200
C -16.710200 -32.375800 -20.560100
H -16.708000 -31.549900 -20.069200
H -16.678600 -33.358700 -15.691700
H -16.485300 -34.903400 -15.505100
N -16.436100 -34.333800 -17.425500
N -16.391400 -33.487500 -19.650000
H -16.053000 -32.335400 -21.259100
C -15.818600 -35.464800 -17.904600
C -15.763700 -34.608500 -20.205600
O -15.516200 -34.668000 -21.413500
C -15.497400 -35.606300 -19.231000
N -15.479200 -36.578000 -17.193700
C -14.947700 -37.392300 -18.116000
N -14.936100 -36.861600 -19.342400
H -14.637400 -37.229800 -20.059200
H -14.619600 -38.240000 -17.922100
21
Fragment
H -19.893600 -35.645200 -21.112700
H -19.468000 -38.051200 -15.970100
H -19.462900 -36.493800 -16.146700
O -19.385800 -35.364500 -18.231800
C -18.963000 -35.580500 -20.885600
C -18.957400 -37.299000 -16.278300
C -18.916400 -36.425200 -18.592100
H -18.792100 -34.730000 -20.474000
N -18.659200 -37.461500 -17.709800
N -18.610300 -36.659400 -19.948700
H -18.433000 -35.662900 -21.682500
H -18.136300 -37.245900 -15.785000
C -18.033800 -38.589100 -18.170500
C -17.984700 -37.786300 -20.479300
O -17.723300 -37.854200 -21.684800
C -17.703000 -38.764000 -19.488700
N -17.626600 -39.651400 -17.421200
N -17.050800 -39.979800 -19.548800
C -17.038100 -40.465400 -18.305600
H -16.718300 -40.351400 -20.250100
H -16.660500 -41.283500 -18.077100
42
Fragment
H -17.857800 -34.340900 -16.013200
H -17.578600 -32.516800 -20.944700
O -17.375500 -32.334400 -17.936600
C -16.904900 -34.224500 -16.038600
C -16.774000 -33.328900 -18.307200
C -16.710200 -32.375800 -20.560100
H -16.708000 -31.549900 -20.069200
H -16.678600 -33.358700 -15.691700
H -16.485300 -34.903400 -15.505100
N -16.436100 -34.333800 -17.425500
N -16.391400 -33.487500 -19.650000
H -16.053000 -32.335400 -21.259100
C -15.818600 -35.464800 -17.904600
C -15.763700 -34.608500 -20.205600
O -15.516200 -34.668000 -21.413500
C -15.497400 -35.606300 -19.231000
N -15.479200 -36.578000 -17.193700
C -14.947700 -37.392300 -18.116000
N -14.936100 -36.861600 -19.342400
H -14.637400 -37.229800 -20.059200
H -14.619600 -38.240000 -17.922100
H -19.893600 -35.645200 -21.112700
H -19.468000 -38.051200 -15.970100
H -19.462900 -36.493800 -16.146700
O -19.385800 -35.364500 -18.231800
C -18.963000 -35.580500 -20.885600
C -18.957400 -37.299000 -16.278300
C -18.916400 -36.425200 -18.592100
H -18.792100 -34.730000 -20.474000
N -18.659200 -37.461500 -17.709800
N -18.610300 -36.659400 -19.948700
H -18.433000 -35.662900 -21.682500
H -18.136300 -37.245900 -15.785000
C -18.033800 -38.589100 -18.170500
C -17.984700 -37.786300 -20.479300
O -17.723300 -37.854200 -21.684800
C -17.703000 -38.764000 -19.488700
N -17.626600 -39.651400 -17.421200
N -17.050800 -39.979800 -19.548800
C -17.038100 -40.465400 -18.305600
H -16.718300 -40.351400 -20.250100
H -16.660500 -41.283500 -18.077100
