21
Fragment
H -17.857800 -34.340900 -16.013200
H -17.578600 -32.516800 -20.944700
O -17.375500 -32.334400 -17.936600
C -16.904900 -34.224500 -16.038600
C -16.774000 -33.328900 -18.307200
C -16.710200 -32.375800 -20.560100
H -16.708000 -31.549900 -20.069200
H -16.678600 -33.358700 -15.691700
H -16.485300 -34.903400 -15.505100
N -16.436100 -34.333800 -17.425500
N -16.391400 -33.487500 -19.650000
H -16.053000 -32.335400 -21.259100
C -15.818600 -35.464800 -17.904600
C -15.763700 -34.608500 -20.205600
O -15.516200 -34.668000 -21.413500
C -15.497400 -35.606300 -19.231000
N -15.479200 -36.578000 -17.193700
C -14.947700 -37.392300 -18.116000
N -14.936100 -36.861600 -19.342400
H -14.637400 -37.229800 -20.059200
H -14.619600 -38.240000 -17.922100
17
Fragment
H -15.318800 -29.246100 -16.313200
H -14.966200 -30.893100 -14.727200
C -14.879800 -30.031800 -16.547500
Cl -14.779700 -28.979100 -19.007300
C -14.669200 -31.020600 -15.598500
C -14.431800 -30.219000 -17.849200
O -14.321500 -32.975800 -13.749200
H -14.105300 -33.538400 -13.192900
C -14.017700 -32.201400 -15.938000
C -13.778800 -31.407300 -18.184300
C -13.769300 -33.272600 -14.913200
C -13.573600 -32.408600 -17.243800
O -13.344900 -32.779000 -19.985400
N -13.245600 -31.641800 -19.536500
H -13.148800 -33.202100 -17.480000
O -13.137500 -34.276900 -15.127900
O -12.717500 -30.707100 -20.118600
38
Fragment
H -17.857800 -34.340900 -16.013200
H -17.578600 -32.516800 -20.944700
O -17.375500 -32.334400 -17.936600
C -16.904900 -34.224500 -16.038600
C -16.774000 -33.328900 -18.307200
C -16.710200 -32.375800 -20.560100
H -16.708000 -31.549900 -20.069200
H -16.678600 -33.358700 -15.691700
H -16.485300 -34.903400 -15.505100
N -16.436100 -34.333800 -17.425500
N -16.391400 -33.487500 -19.650000
H -16.053000 -32.335400 -21.259100
C -15.818600 -35.464800 -17.904600
C -15.763700 -34.608500 -20.205600
O -15.516200 -34.668000 -21.413500
C -15.497400 -35.606300 -19.231000
N -15.479200 -36.578000 -17.193700
C -14.947700 -37.392300 -18.116000
N -14.936100 -36.861600 -19.342400
H -14.637400 -37.229800 -20.059200
H -14.619600 -38.240000 -17.922100
H -15.318800 -29.246100 -16.313200
H -14.966200 -30.893100 -14.727200
C -14.879800 -30.031800 -16.547500
Cl -14.779700 -28.979100 -19.007300
C -14.669200 -31.020600 -15.598500
C -14.431800 -30.219000 -17.849200
O -14.321500 -32.975800 -13.749200
H -14.105300 -33.538400 -13.192900
C -14.017700 -32.201400 -15.938000
C -13.778800 -31.407300 -18.184300
C -13.769300 -33.272600 -14.913200
C -13.573600 -32.408600 -17.243800
O -13.344900 -32.779000 -19.985400
N -13.245600 -31.641800 -19.536500
H -13.148800 -33.202100 -17.480000
O -13.137500 -34.276900 -15.127900
O -12.717500 -30.707100 -20.118600
