21
Fragment
H -17.857800 -34.340900 -16.013200
H -17.578600 -32.516800 -20.944700
O -17.375500 -32.334400 -17.936600
C -16.904900 -34.224500 -16.038600
C -16.774000 -33.328900 -18.307200
C -16.710200 -32.375800 -20.560100
H -16.708000 -31.549900 -20.069200
H -16.678600 -33.358700 -15.691700
H -16.485300 -34.903400 -15.505100
N -16.436100 -34.333800 -17.425500
N -16.391400 -33.487500 -19.650000
H -16.053000 -32.335400 -21.259100
C -15.818600 -35.464800 -17.904600
C -15.763700 -34.608500 -20.205600
O -15.516200 -34.668000 -21.413500
C -15.497400 -35.606300 -19.231000
N -15.479200 -36.578000 -17.193700
C -14.947700 -37.392300 -18.116000
N -14.936100 -36.861600 -19.342400
H -14.637400 -37.229800 -20.059200
H -14.619600 -38.240000 -17.922100
17
Fragment
O -19.916500 -25.668500 -18.663800
O -19.839500 -25.152900 -16.573500
H -19.798300 -27.161400 -15.245300
O -19.765300 -28.775900 -13.237700
N -19.673500 -25.941100 -17.495500
C -19.369200 -27.715200 -15.857300
C -19.169600 -27.284200 -17.163100
C -19.169300 -29.437000 -14.066000
C -18.927800 -28.973700 -15.468200
H -18.768300 -30.833200 -13.053700
O -18.660800 -30.633600 -13.841400
C -18.531200 -28.105400 -18.103500
C -18.292200 -29.796700 -16.396800
Cl -18.203800 -27.676600 -19.741100
C -18.098000 -29.362900 -17.696700
H -17.997700 -30.640800 -16.142400
H -17.671100 -29.920200 -18.306700
38
Fragment
H -17.857800 -34.340900 -16.013200
H -17.578600 -32.516800 -20.944700
O -17.375500 -32.334400 -17.936600
C -16.904900 -34.224500 -16.038600
C -16.774000 -33.328900 -18.307200
C -16.710200 -32.375800 -20.560100
H -16.708000 -31.549900 -20.069200
H -16.678600 -33.358700 -15.691700
H -16.485300 -34.903400 -15.505100
N -16.436100 -34.333800 -17.425500
N -16.391400 -33.487500 -19.650000
H -16.053000 -32.335400 -21.259100
C -15.818600 -35.464800 -17.904600
C -15.763700 -34.608500 -20.205600
O -15.516200 -34.668000 -21.413500
C -15.497400 -35.606300 -19.231000
N -15.479200 -36.578000 -17.193700
C -14.947700 -37.392300 -18.116000
N -14.936100 -36.861600 -19.342400
H -14.637400 -37.229800 -20.059200
H -14.619600 -38.240000 -17.922100
O -19.916500 -25.668500 -18.663800
O -19.839500 -25.152900 -16.573500
H -19.798300 -27.161400 -15.245300
O -19.765300 -28.775900 -13.237700
N -19.673500 -25.941100 -17.495500
C -19.369200 -27.715200 -15.857300
C -19.169600 -27.284200 -17.163100
C -19.169300 -29.437000 -14.066000
C -18.927800 -28.973700 -15.468200
H -18.768300 -30.833200 -13.053700
O -18.660800 -30.633600 -13.841400
C -18.531200 -28.105400 -18.103500
C -18.292200 -29.796700 -16.396800
Cl -18.203800 -27.676600 -19.741100
C -18.098000 -29.362900 -17.696700
H -17.997700 -30.640800 -16.142400
H -17.671100 -29.920200 -18.306700
