15
Fragment
Cl -3.829300 -7.199000 -13.300100
Cl -3.519800 -8.810200 -15.990600
C -2.346700 -7.994800 -13.693300
C -2.215200 -8.722400 -14.860200
H -1.376000 -7.414600 -12.026400
C -1.280700 -7.897600 -12.815900
C -1.032200 -9.374200 -15.131100
H -0.948300 -9.884900 -15.904300
C -0.072000 -8.517000 -13.101800
C 0.026400 -9.266600 -14.258200
H 0.821600 -9.708300 -14.449200
O 0.868200 -7.676100 -11.130500
C 1.117200 -8.364600 -12.219700
H 1.556300 -7.600800 -10.691600
O 2.193600 -8.821100 -12.499800
15
Fragment
O -2.430900 -9.221000 -8.956400
H -2.215000 -8.022200 -7.037100
C -1.482600 -9.111800 -8.217800
O -1.481500 -8.375700 -7.128500
H -0.792700 -10.537300 -10.261000
C -0.189800 -9.804000 -8.482900
C -0.074000 -10.500200 -9.671800
H 0.796100 -9.286000 -6.790500
C 0.873800 -9.753900 -7.590400
C 1.117100 -11.146400 -9.984300
Cl 1.219400 -12.002300 -11.482800
C 2.052300 -10.410900 -7.909900
C 2.180900 -11.098200 -9.095300
H 2.766400 -10.386500 -7.314900
Cl 3.663300 -11.899500 -9.480100
30
Fragment
Cl -3.829300 -7.199000 -13.300100
Cl -3.519800 -8.810200 -15.990600
C -2.346700 -7.994800 -13.693300
C -2.215200 -8.722400 -14.860200
H -1.376000 -7.414600 -12.026400
C -1.280700 -7.897600 -12.815900
C -1.032200 -9.374200 -15.131100
H -0.948300 -9.884900 -15.904300
C -0.072000 -8.517000 -13.101800
C 0.026400 -9.266600 -14.258200
H 0.821600 -9.708300 -14.449200
O 0.868200 -7.676100 -11.130500
C 1.117200 -8.364600 -12.219700
H 1.556300 -7.600800 -10.691600
O 2.193600 -8.821100 -12.499800
O -2.430900 -9.221000 -8.956400
H -2.215000 -8.022200 -7.037100
C -1.482600 -9.111800 -8.217800
O -1.481500 -8.375700 -7.128500
H -0.792700 -10.537300 -10.261000
C -0.189800 -9.804000 -8.482900
C -0.074000 -10.500200 -9.671800
H 0.796100 -9.286000 -6.790500
C 0.873800 -9.753900 -7.590400
C 1.117100 -11.146400 -9.984300
Cl 1.219400 -12.002300 -11.482800
C 2.052300 -10.410900 -7.909900
C 2.180900 -11.098200 -9.095300
H 2.766400 -10.386500 -7.314900
Cl 3.663300 -11.899500 -9.480100
