15
Fragment
Cl -3.829300 -7.199000 -13.300100
Cl -3.519800 -8.810200 -15.990600
C -2.346700 -7.994800 -13.693300
C -2.215200 -8.722400 -14.860200
H -1.376000 -7.414600 -12.026400
C -1.280700 -7.897600 -12.815900
C -1.032200 -9.374200 -15.131100
H -0.948300 -9.884900 -15.904300
C -0.072000 -8.517000 -13.101800
C 0.026400 -9.266600 -14.258200
H 0.821600 -9.708300 -14.449200
O 0.868200 -7.676100 -11.130500
C 1.117200 -8.364600 -12.219700
H 1.556300 -7.600800 -10.691600
O 2.193600 -8.821100 -12.499800
15
Fragment
Cl 4.344000 -10.904300 -13.672000
H 5.240900 -12.417400 -15.837200
C 5.826400 -11.705600 -14.056800
C 5.955000 -12.392900 -15.242200
Cl 6.787900 -10.801500 -11.669400
C 6.890300 -11.657500 -13.167800
C 7.133500 -13.049900 -15.561700
H 7.211300 -13.517800 -16.361600
C 8.081300 -12.303700 -13.480300
C 8.197200 -12.999900 -14.669200
H 8.800000 -12.266600 -12.891100
O 9.488900 -14.428100 -16.023600
C 9.489900 -13.692100 -14.934300
H 10.222300 -14.781700 -16.115000
O 10.438200 -13.582800 -14.195700
30
Fragment
Cl -3.829300 -7.199000 -13.300100
Cl -3.519800 -8.810200 -15.990600
C -2.346700 -7.994800 -13.693300
C -2.215200 -8.722400 -14.860200
H -1.376000 -7.414600 -12.026400
C -1.280700 -7.897600 -12.815900
C -1.032200 -9.374200 -15.131100
H -0.948300 -9.884900 -15.904300
C -0.072000 -8.517000 -13.101800
C 0.026400 -9.266600 -14.258200
H 0.821600 -9.708300 -14.449200
O 0.868200 -7.676100 -11.130500
C 1.117200 -8.364600 -12.219700
H 1.556300 -7.600800 -10.691600
O 2.193600 -8.821100 -12.499800
Cl 4.344000 -10.904300 -13.672000
H 5.240900 -12.417400 -15.837200
C 5.826400 -11.705600 -14.056800
C 5.955000 -12.392900 -15.242200
Cl 6.787900 -10.801500 -11.669400
C 6.890300 -11.657500 -13.167800
C 7.133500 -13.049900 -15.561700
H 7.211300 -13.517800 -16.361600
C 8.081300 -12.303700 -13.480300
C 8.197200 -12.999900 -14.669200
H 8.800000 -12.266600 -12.891100
O 9.488900 -14.428100 -16.023600
C 9.489900 -13.692100 -14.934300
H 10.222300 -14.781700 -16.115000
O 10.438200 -13.582800 -14.195700
