15
Fragment
Cl -3.829300 -7.199000 -13.300100
Cl -3.519800 -8.810200 -15.990600
C -2.346700 -7.994800 -13.693300
C -2.215200 -8.722400 -14.860200
H -1.376000 -7.414600 -12.026400
C -1.280700 -7.897600 -12.815900
C -1.032200 -9.374200 -15.131100
H -0.948300 -9.884900 -15.904300
C -0.072000 -8.517000 -13.101800
C 0.026400 -9.266600 -14.258200
H 0.821600 -9.708300 -14.449200
O 0.868200 -7.676100 -11.130500
C 1.117200 -8.364600 -12.219700
H 1.556300 -7.600800 -10.691600
O 2.193600 -8.821100 -12.499800
15
Fragment
O -7.684500 -4.060400 -10.652300
H -7.047300 -5.280800 -12.460500
C -6.608200 -4.516900 -10.932400
O -6.359100 -5.205400 -12.021600
H -6.312500 -3.173200 -8.702900
C -5.517400 -3.614900 -8.893900
C -5.418900 -4.364500 -10.050300
H -4.542700 -2.996700 -7.247800
C -4.458800 -3.507300 -8.021000
C -4.210300 -4.984000 -10.336300
H -4.114900 -5.466900 -11.125700
C -3.275700 -4.159100 -8.291900
C -3.144200 -4.886700 -9.458800
Cl -1.971100 -4.071300 -7.161500
Cl -1.661600 -5.682600 -9.852000
30
Fragment
Cl -3.829300 -7.199000 -13.300100
Cl -3.519800 -8.810200 -15.990600
C -2.346700 -7.994800 -13.693300
C -2.215200 -8.722400 -14.860200
H -1.376000 -7.414600 -12.026400
C -1.280700 -7.897600 -12.815900
C -1.032200 -9.374200 -15.131100
H -0.948300 -9.884900 -15.904300
C -0.072000 -8.517000 -13.101800
C 0.026400 -9.266600 -14.258200
H 0.821600 -9.708300 -14.449200
O 0.868200 -7.676100 -11.130500
C 1.117200 -8.364600 -12.219700
H 1.556300 -7.600800 -10.691600
O 2.193600 -8.821100 -12.499800
O -7.684500 -4.060400 -10.652300
H -7.047300 -5.280800 -12.460500
C -6.608200 -4.516900 -10.932400
O -6.359100 -5.205400 -12.021600
H -6.312500 -3.173200 -8.702900
C -5.517400 -3.614900 -8.893900
C -5.418900 -4.364500 -10.050300
H -4.542700 -2.996700 -7.247800
C -4.458800 -3.507300 -8.021000
C -4.210300 -4.984000 -10.336300
H -4.114900 -5.466900 -11.125700
C -3.275700 -4.159100 -8.291900
C -3.144200 -4.886700 -9.458800
Cl -1.971100 -4.071300 -7.161500
Cl -1.661600 -5.682600 -9.852000
