15
Fragment
Cl -3.829300 -7.199000 -13.300100
Cl -3.519800 -8.810200 -15.990600
C -2.346700 -7.994800 -13.693300
C -2.215200 -8.722400 -14.860200
H -1.376000 -7.414600 -12.026400
C -1.280700 -7.897600 -12.815900
C -1.032200 -9.374200 -15.131100
H -0.948300 -9.884900 -15.904300
C -0.072000 -8.517000 -13.101800
C 0.026400 -9.266600 -14.258200
H 0.821600 -9.708300 -14.449200
O 0.868200 -7.676100 -11.130500
C 1.117200 -8.364600 -12.219700
H 1.556300 -7.600800 -10.691600
O 2.193600 -8.821100 -12.499800
21
Fragment
O -11.963000 -5.767400 -16.655500
H -11.492900 -4.377100 -13.983900
H -11.064500 -6.853200 -18.653700
H -11.038700 -8.247800 -17.939400
C -10.826300 -6.007400 -16.243500
N -10.694500 -4.739000 -14.044100
C -10.513800 -7.483100 -18.182500
C -10.214500 -5.524700 -15.063900
N -9.975100 -6.851800 -16.969300
H -9.789000 -7.758400 -18.748600
H -9.783300 -4.160100 -12.359800
C -9.711400 -4.639600 -13.153900
C -8.943700 -5.849400 -14.700400
C -8.662300 -7.201000 -16.619700
N -8.612400 -5.300600 -13.519700
N -8.144900 -6.651600 -15.480700
O -8.014900 -7.957300 -17.312000
H -6.784900 -7.476100 -14.253600
C -6.769400 -6.994300 -15.083600
H -6.366900 -7.541000 -15.763100
H -6.257100 -6.188800 -14.977100
36
Fragment
Cl -3.829300 -7.199000 -13.300100
Cl -3.519800 -8.810200 -15.990600
C -2.346700 -7.994800 -13.693300
C -2.215200 -8.722400 -14.860200
H -1.376000 -7.414600 -12.026400
C -1.280700 -7.897600 -12.815900
C -1.032200 -9.374200 -15.131100
H -0.948300 -9.884900 -15.904300
C -0.072000 -8.517000 -13.101800
C 0.026400 -9.266600 -14.258200
H 0.821600 -9.708300 -14.449200
O 0.868200 -7.676100 -11.130500
C 1.117200 -8.364600 -12.219700
H 1.556300 -7.600800 -10.691600
O 2.193600 -8.821100 -12.499800
O -11.963000 -5.767400 -16.655500
H -11.492900 -4.377100 -13.983900
H -11.064500 -6.853200 -18.653700
H -11.038700 -8.247800 -17.939400
C -10.826300 -6.007400 -16.243500
N -10.694500 -4.739000 -14.044100
C -10.513800 -7.483100 -18.182500
C -10.214500 -5.524700 -15.063900
N -9.975100 -6.851800 -16.969300
H -9.789000 -7.758400 -18.748600
H -9.783300 -4.160100 -12.359800
C -9.711400 -4.639600 -13.153900
C -8.943700 -5.849400 -14.700400
C -8.662300 -7.201000 -16.619700
N -8.612400 -5.300600 -13.519700
N -8.144900 -6.651600 -15.480700
O -8.014900 -7.957300 -17.312000
H -6.784900 -7.476100 -14.253600
C -6.769400 -6.994300 -15.083600
H -6.366900 -7.541000 -15.763100
H -6.257100 -6.188800 -14.977100
