21
Fragment
H -9.875700 -5.826900 -19.453800
C -9.334400 -6.506200 -19.123100
N -8.995500 -6.604500 -17.836400
H -8.926400 -7.576100 -20.748100
N -8.821900 -7.479100 -19.899600
H -8.308700 -8.266800 -14.841800
C -8.220100 -7.717200 -17.811200
H -8.213500 -6.824000 -15.447400
C -8.094100 -8.287000 -19.052200
C -7.772800 -7.673400 -15.373400
N -7.589700 -8.244900 -16.707400
C -7.308000 -9.446800 -19.288900
O -7.149900 -10.035800 -20.362300
H -6.916500 -7.554500 -14.955500
C -6.786200 -9.359000 -16.840400
N -6.671500 -9.902800 -18.132600
H -6.320700 -11.871500 -18.323000
O -6.202200 -9.839900 -15.884200
C -5.789200 -11.072900 -18.285800
H -5.282400 -10.987800 -19.096200
H -5.189500 -11.122100 -17.537200
21
Fragment
H -7.590000 -12.566700 -25.401600
H -7.500000 -13.709300 -26.471400
C -6.992000 -13.127800 -25.900500
N -6.712600 -12.579400 -23.011000
H -6.577400 -12.128900 -21.066800
H -6.412000 -12.580400 -26.435400
C -6.318800 -12.711700 -21.744100
N -6.188700 -13.932500 -24.974500
C -6.104500 -13.621700 -23.636800
N -5.511600 -13.768300 -21.537900
O -5.482600 -15.285600 -26.659500
C -5.469100 -14.992900 -25.473100
C -5.354400 -14.376400 -22.769000
H -5.163700 -14.015200 -20.791100
N -4.686500 -15.719600 -24.558300
C -4.600400 -15.505900 -23.173900
H -4.373200 -17.621000 -25.106400
O -3.913900 -16.247400 -22.463300
C -3.872900 -16.802100 -25.123200
H -3.640500 -16.588300 -26.029400
H -3.072600 -16.904900 -24.603400
42
Fragment
H -9.875700 -5.826900 -19.453800
C -9.334400 -6.506200 -19.123100
N -8.995500 -6.604500 -17.836400
H -8.926400 -7.576100 -20.748100
N -8.821900 -7.479100 -19.899600
H -8.308700 -8.266800 -14.841800
C -8.220100 -7.717200 -17.811200
H -8.213500 -6.824000 -15.447400
C -8.094100 -8.287000 -19.052200
C -7.772800 -7.673400 -15.373400
N -7.589700 -8.244900 -16.707400
C -7.308000 -9.446800 -19.288900
O -7.149900 -10.035800 -20.362300
H -6.916500 -7.554500 -14.955500
C -6.786200 -9.359000 -16.840400
N -6.671500 -9.902800 -18.132600
H -6.320700 -11.871500 -18.323000
O -6.202200 -9.839900 -15.884200
C -5.789200 -11.072900 -18.285800
H -5.282400 -10.987800 -19.096200
H -5.189500 -11.122100 -17.537200
H -7.590000 -12.566700 -25.401600
H -7.500000 -13.709300 -26.471400
C -6.992000 -13.127800 -25.900500
N -6.712600 -12.579400 -23.011000
H -6.577400 -12.128900 -21.066800
H -6.412000 -12.580400 -26.435400
C -6.318800 -12.711700 -21.744100
N -6.188700 -13.932500 -24.974500
C -6.104500 -13.621700 -23.636800
N -5.511600 -13.768300 -21.537900
O -5.482600 -15.285600 -26.659500
C -5.469100 -14.992900 -25.473100
C -5.354400 -14.376400 -22.769000
H -5.163700 -14.015200 -20.791100
N -4.686500 -15.719600 -24.558300
C -4.600400 -15.505900 -23.173900
H -4.373200 -17.621000 -25.106400
O -3.913900 -16.247400 -22.463300
C -3.872900 -16.802100 -25.123200
H -3.640500 -16.588300 -26.029400
H -3.072600 -16.904900 -24.603400
