15
Fragment
Cl -3.829300 -7.199000 -13.300100
Cl -3.519800 -8.810200 -15.990600
C -2.346700 -7.994800 -13.693300
C -2.215200 -8.722400 -14.860200
H -1.376000 -7.414600 -12.026400
C -1.280700 -7.897600 -12.815900
C -1.032200 -9.374200 -15.131100
H -0.948300 -9.884900 -15.904300
C -0.072000 -8.517000 -13.101800
C 0.026400 -9.266600 -14.258200
H 0.821600 -9.708300 -14.449200
O 0.868200 -7.676100 -11.130500
C 1.117200 -8.364600 -12.219700
H 1.556300 -7.600800 -10.691600
O 2.193600 -8.821100 -12.499800
15
Fragment
O -8.483600 -5.739500 -20.532500
H -8.267700 -4.540600 -18.613100
C -7.535300 -5.630200 -19.793900
O -7.534300 -4.894100 -18.704600
H -6.845400 -7.055700 -21.837100
C -6.242600 -6.322400 -20.059000
C -6.126700 -7.018600 -21.247900
H -5.256700 -5.804500 -18.366600
C -5.178900 -6.272300 -19.166500
C -4.935700 -7.664800 -21.560400
Cl -4.833300 -8.520700 -23.058800
C -4.000400 -6.929400 -19.486000
C -3.871800 -7.616700 -20.671400
H -3.286300 -6.904900 -18.891000
Cl -2.389400 -8.418000 -21.056200
30
Fragment
Cl -3.829300 -7.199000 -13.300100
Cl -3.519800 -8.810200 -15.990600
C -2.346700 -7.994800 -13.693300
C -2.215200 -8.722400 -14.860200
H -1.376000 -7.414600 -12.026400
C -1.280700 -7.897600 -12.815900
C -1.032200 -9.374200 -15.131100
H -0.948300 -9.884900 -15.904300
C -0.072000 -8.517000 -13.101800
C 0.026400 -9.266600 -14.258200
H 0.821600 -9.708300 -14.449200
O 0.868200 -7.676100 -11.130500
C 1.117200 -8.364600 -12.219700
H 1.556300 -7.600800 -10.691600
O 2.193600 -8.821100 -12.499800
O -8.483600 -5.739500 -20.532500
H -8.267700 -4.540600 -18.613100
C -7.535300 -5.630200 -19.793900
O -7.534300 -4.894100 -18.704600
H -6.845400 -7.055700 -21.837100
C -6.242600 -6.322400 -20.059000
C -6.126700 -7.018600 -21.247900
H -5.256700 -5.804500 -18.366600
C -5.178900 -6.272300 -19.166500
C -4.935700 -7.664800 -21.560400
Cl -4.833300 -8.520700 -23.058800
C -4.000400 -6.929400 -19.486000
C -3.871800 -7.616700 -20.671400
H -3.286300 -6.904900 -18.891000
Cl -2.389400 -8.418000 -21.056200
