15
Fragment
Cl -3.829300 -7.199000 -13.300100
Cl -3.519800 -8.810200 -15.990600
C -2.346700 -7.994800 -13.693300
C -2.215200 -8.722400 -14.860200
H -1.376000 -7.414600 -12.026400
C -1.280700 -7.897600 -12.815900
C -1.032200 -9.374200 -15.131100
H -0.948300 -9.884900 -15.904300
C -0.072000 -8.517000 -13.101800
C 0.026400 -9.266600 -14.258200
H 0.821600 -9.708300 -14.449200
O 0.868200 -7.676100 -11.130500
C 1.117200 -8.364600 -12.219700
H 1.556300 -7.600800 -10.691600
O 2.193600 -8.821100 -12.499800
21
Fragment
H -9.424800 -6.692700 -8.175000
H -9.315100 -5.340500 -7.389000
C -8.912500 -5.887300 -8.068500
H -8.897000 -5.405500 -8.898500
O -7.667000 -4.924300 -5.840100
N -7.537000 -6.229900 -7.671500
N -7.069600 -7.581000 -9.632400
C -7.019600 -5.680500 -6.532400
C -6.738200 -7.032200 -8.451700
C -5.970500 -8.241900 -9.998200
H -5.898600 -8.721500 -10.792400
H -5.893000 -5.123100 -4.403500
N -5.706800 -6.029700 -6.182800
C -5.467500 -7.356800 -8.088200
C -5.168100 -5.398400 -4.969600
N -4.987400 -8.142500 -9.108000
C -4.855700 -6.874100 -6.908600
H -4.643200 -4.633700 -5.212700
H -4.617400 -6.028300 -4.498500
H -4.189000 -8.504400 -9.168200
O -3.718900 -7.114100 -6.496600
36
Fragment
Cl -3.829300 -7.199000 -13.300100
Cl -3.519800 -8.810200 -15.990600
C -2.346700 -7.994800 -13.693300
C -2.215200 -8.722400 -14.860200
H -1.376000 -7.414600 -12.026400
C -1.280700 -7.897600 -12.815900
C -1.032200 -9.374200 -15.131100
H -0.948300 -9.884900 -15.904300
C -0.072000 -8.517000 -13.101800
C 0.026400 -9.266600 -14.258200
H 0.821600 -9.708300 -14.449200
O 0.868200 -7.676100 -11.130500
C 1.117200 -8.364600 -12.219700
H 1.556300 -7.600800 -10.691600
O 2.193600 -8.821100 -12.499800
H -9.424800 -6.692700 -8.175000
H -9.315100 -5.340500 -7.389000
C -8.912500 -5.887300 -8.068500
H -8.897000 -5.405500 -8.898500
O -7.667000 -4.924300 -5.840100
N -7.537000 -6.229900 -7.671500
N -7.069600 -7.581000 -9.632400
C -7.019600 -5.680500 -6.532400
C -6.738200 -7.032200 -8.451700
C -5.970500 -8.241900 -9.998200
H -5.898600 -8.721500 -10.792400
H -5.893000 -5.123100 -4.403500
N -5.706800 -6.029700 -6.182800
C -5.467500 -7.356800 -8.088200
C -5.168100 -5.398400 -4.969600
N -4.987400 -8.142500 -9.108000
C -4.855700 -6.874100 -6.908600
H -4.643200 -4.633700 -5.212700
H -4.617400 -6.028300 -4.498500
H -4.189000 -8.504400 -9.168200
O -3.718900 -7.114100 -6.496600
