14
Fragment
H -12.641800 -23.465900 -9.383800
N -11.872500 -23.443300 -8.997600
N -11.244500 -24.555900 -8.661200
N -11.182800 -22.327500 -8.856300
C -10.037700 -24.137000 -8.261600
C -9.998500 -22.738600 -8.380300
O -9.404400 -26.318500 -7.742400
O -9.198500 -20.540600 -8.219900
C -8.991500 -25.091500 -7.814000
C -8.948100 -21.724400 -8.100000
H -8.753100 -26.887400 -7.501900
O -7.851600 -24.709800 -7.557300
O -7.760200 -22.148200 -7.733500
H -7.726700 -23.027400 -7.663000
14
Fragment
H -19.507000 -23.465900 -9.383800
N -18.737700 -23.443300 -8.997600
N -18.109700 -24.555900 -8.661200
N -18.048000 -22.327500 -8.856300
C -16.902900 -24.137000 -8.261600
C -16.863700 -22.738600 -8.380300
O -16.269600 -26.318500 -7.742400
O -16.063700 -20.540600 -8.219900
C -15.856700 -25.091500 -7.814000
C -15.813300 -21.724400 -8.100000
H -15.618300 -26.887400 -7.501900
O -14.716800 -24.709800 -7.557300
O -14.625400 -22.148200 -7.733500
H -14.591900 -23.027400 -7.663000
28
Fragment
H -12.641800 -23.465900 -9.383800
N -11.872500 -23.443300 -8.997600
N -11.244500 -24.555900 -8.661200
N -11.182800 -22.327500 -8.856300
C -10.037700 -24.137000 -8.261600
C -9.998500 -22.738600 -8.380300
O -9.404400 -26.318500 -7.742400
O -9.198500 -20.540600 -8.219900
C -8.991500 -25.091500 -7.814000
C -8.948100 -21.724400 -8.100000
H -8.753100 -26.887400 -7.501900
O -7.851600 -24.709800 -7.557300
O -7.760200 -22.148200 -7.733500
H -7.726700 -23.027400 -7.663000
H -19.507000 -23.465900 -9.383800
N -18.737700 -23.443300 -8.997600
N -18.109700 -24.555900 -8.661200
N -18.048000 -22.327500 -8.856300
C -16.902900 -24.137000 -8.261600
C -16.863700 -22.738600 -8.380300
O -16.269600 -26.318500 -7.742400
O -16.063700 -20.540600 -8.219900
C -15.856700 -25.091500 -7.814000
C -15.813300 -21.724400 -8.100000
H -15.618300 -26.887400 -7.501900
O -14.716800 -24.709800 -7.557300
O -14.625400 -22.148200 -7.733500
H -14.591900 -23.027400 -7.663000
