14
Fragment
H -12.641800 -23.465900 -9.383800
N -11.872500 -23.443300 -8.997600
N -11.244500 -24.555900 -8.661200
N -11.182800 -22.327500 -8.856300
C -10.037700 -24.137000 -8.261600
C -9.998500 -22.738600 -8.380300
O -9.404400 -26.318500 -7.742400
O -9.198500 -20.540600 -8.219900
C -8.991500 -25.091500 -7.814000
C -8.948100 -21.724400 -8.100000
H -8.753100 -26.887400 -7.501900
O -7.851600 -24.709800 -7.557300
O -7.760200 -22.148200 -7.733500
H -7.726700 -23.027400 -7.663000
14
Fragment
H -11.836700 -31.525900 -8.449200
O -11.803200 -30.646600 -8.378700
O -11.711800 -33.208200 -8.554900
H -10.810300 -35.385800 -8.610400
C -10.615300 -30.222900 -8.012200
C -10.571900 -33.590000 -8.298200
O -10.364900 -29.039000 -7.892300
O -10.159000 -34.817000 -8.369800
C -9.564900 -31.237100 -7.731900
C -9.525800 -32.635400 -7.850600
N -8.380600 -30.825900 -7.255900
N -8.318900 -33.054400 -7.451000
N -7.690900 -31.941800 -7.114600
H -6.921600 -31.964400 -6.728500
28
Fragment
H -12.641800 -23.465900 -9.383800
N -11.872500 -23.443300 -8.997600
N -11.244500 -24.555900 -8.661200
N -11.182800 -22.327500 -8.856300
C -10.037700 -24.137000 -8.261600
C -9.998500 -22.738600 -8.380300
O -9.404400 -26.318500 -7.742400
O -9.198500 -20.540600 -8.219900
C -8.991500 -25.091500 -7.814000
C -8.948100 -21.724400 -8.100000
H -8.753100 -26.887400 -7.501900
O -7.851600 -24.709800 -7.557300
O -7.760200 -22.148200 -7.733500
H -7.726700 -23.027400 -7.663000
H -11.836700 -31.525900 -8.449200
O -11.803200 -30.646600 -8.378700
O -11.711800 -33.208200 -8.554900
H -10.810300 -35.385800 -8.610400
C -10.615300 -30.222900 -8.012200
C -10.571900 -33.590000 -8.298200
O -10.364900 -29.039000 -7.892300
O -10.159000 -34.817000 -8.369800
C -9.564900 -31.237100 -7.731900
C -9.525800 -32.635400 -7.850600
N -8.380600 -30.825900 -7.255900
N -8.318900 -33.054400 -7.451000
N -7.690900 -31.941800 -7.114600
H -6.921600 -31.964400 -6.728500
