14
Fragment
H -12.641800 -23.465900 -9.383800
N -11.872500 -23.443300 -8.997600
N -11.244500 -24.555900 -8.661200
N -11.182800 -22.327500 -8.856300
C -10.037700 -24.137000 -8.261600
C -9.998500 -22.738600 -8.380300
O -9.404400 -26.318500 -7.742400
O -9.198500 -20.540600 -8.219900
C -8.991500 -25.091500 -7.814000
C -8.948100 -21.724400 -8.100000
H -8.753100 -26.887400 -7.501900
O -7.851600 -24.709800 -7.557300
O -7.760200 -22.148200 -7.733500
H -7.726700 -23.027400 -7.663000
3
Fragment
H -12.682700 -19.252400 -8.745700
O -11.937700 -19.416400 -9.112200
H -11.735000 -20.228000 -8.964800
17
Fragment
H -12.641800 -23.465900 -9.383800
N -11.872500 -23.443300 -8.997600
N -11.244500 -24.555900 -8.661200
N -11.182800 -22.327500 -8.856300
C -10.037700 -24.137000 -8.261600
C -9.998500 -22.738600 -8.380300
O -9.404400 -26.318500 -7.742400
O -9.198500 -20.540600 -8.219900
C -8.991500 -25.091500 -7.814000
C -8.948100 -21.724400 -8.100000
H -8.753100 -26.887400 -7.501900
O -7.851600 -24.709800 -7.557300
O -7.760200 -22.148200 -7.733500
H -7.726700 -23.027400 -7.663000
H -12.682700 -19.252400 -8.745700
O -11.937700 -19.416400 -9.112200
H -11.735000 -20.228000 -8.964800
