14
Fragment
H -12.641800 -23.465900 -9.383800
N -11.872500 -23.443300 -8.997600
N -11.244500 -24.555900 -8.661200
N -11.182800 -22.327500 -8.856300
C -10.037700 -24.137000 -8.261600
C -9.998500 -22.738600 -8.380300
O -9.404400 -26.318500 -7.742400
O -9.198500 -20.540600 -8.219900
C -8.991500 -25.091500 -7.814000
C -8.948100 -21.724400 -8.100000
H -8.753100 -26.887400 -7.501900
O -7.851600 -24.709800 -7.557300
O -7.760200 -22.148200 -7.733500
H -7.726700 -23.027400 -7.663000
14
Fragment
H -12.043100 -27.963300 -5.226800
O -12.009700 -28.842500 -5.156200
O -11.918300 -26.280900 -5.332500
H -11.016700 -24.103300 -5.387900
C -10.821800 -29.266300 -4.789800
C -10.778300 -25.899200 -5.075700
O -10.571300 -30.450100 -4.669900
O -10.365500 -24.672200 -5.147400
C -9.771400 -28.252100 -4.509500
C -9.732200 -26.853700 -4.628200
N -8.587000 -28.663200 -4.033500
N -8.525400 -26.434800 -4.228600
N -7.897300 -27.547400 -3.892200
H -7.128000 -27.524800 -3.506000
28
Fragment
H -12.641800 -23.465900 -9.383800
N -11.872500 -23.443300 -8.997600
N -11.244500 -24.555900 -8.661200
N -11.182800 -22.327500 -8.856300
C -10.037700 -24.137000 -8.261600
C -9.998500 -22.738600 -8.380300
O -9.404400 -26.318500 -7.742400
O -9.198500 -20.540600 -8.219900
C -8.991500 -25.091500 -7.814000
C -8.948100 -21.724400 -8.100000
H -8.753100 -26.887400 -7.501900
O -7.851600 -24.709800 -7.557300
O -7.760200 -22.148200 -7.733500
H -7.726700 -23.027400 -7.663000
H -12.043100 -27.963300 -5.226800
O -12.009700 -28.842500 -5.156200
O -11.918300 -26.280900 -5.332500
H -11.016700 -24.103300 -5.387900
C -10.821800 -29.266300 -4.789800
C -10.778300 -25.899200 -5.075700
O -10.571300 -30.450100 -4.669900
O -10.365500 -24.672200 -5.147400
C -9.771400 -28.252100 -4.509500
C -9.732200 -26.853700 -4.628200
N -8.587000 -28.663200 -4.033500
N -8.525400 -26.434800 -4.228600
N -7.897300 -27.547400 -3.892200
H -7.128000 -27.524800 -3.506000
