14
Fragment
H -12.641800 -23.465900 -9.383800
N -11.872500 -23.443300 -8.997600
N -11.244500 -24.555900 -8.661200
N -11.182800 -22.327500 -8.856300
C -10.037700 -24.137000 -8.261600
C -9.998500 -22.738600 -8.380300
O -9.404400 -26.318500 -7.742400
O -9.198500 -20.540600 -8.219900
C -8.991500 -25.091500 -7.814000
C -8.948100 -21.724400 -8.100000
H -8.753100 -26.887400 -7.501900
O -7.851600 -24.709800 -7.557300
O -7.760200 -22.148200 -7.733500
H -7.726700 -23.027400 -7.663000
14
Fragment
H -12.435400 -19.026300 -12.606200
N -11.666100 -19.048900 -12.220000
N -11.038100 -17.936300 -11.883700
N -10.976400 -20.164800 -12.078800
C -9.831200 -18.355300 -11.484000
C -9.792000 -19.753600 -11.602700
O -9.197900 -16.173700 -10.964800
O -8.992100 -21.951700 -11.442300
C -8.785100 -17.400700 -11.036500
C -8.741600 -20.767800 -11.322400
H -8.546700 -15.604900 -10.724300
O -7.645200 -17.782500 -10.779700
O -7.553700 -20.344100 -10.956000
H -7.520300 -19.464800 -10.885400
28
Fragment
H -12.641800 -23.465900 -9.383800
N -11.872500 -23.443300 -8.997600
N -11.244500 -24.555900 -8.661200
N -11.182800 -22.327500 -8.856300
C -10.037700 -24.137000 -8.261600
C -9.998500 -22.738600 -8.380300
O -9.404400 -26.318500 -7.742400
O -9.198500 -20.540600 -8.219900
C -8.991500 -25.091500 -7.814000
C -8.948100 -21.724400 -8.100000
H -8.753100 -26.887400 -7.501900
O -7.851600 -24.709800 -7.557300
O -7.760200 -22.148200 -7.733500
H -7.726700 -23.027400 -7.663000
H -12.435400 -19.026300 -12.606200
N -11.666100 -19.048900 -12.220000
N -11.038100 -17.936300 -11.883700
N -10.976400 -20.164800 -12.078800
C -9.831200 -18.355300 -11.484000
C -9.792000 -19.753600 -11.602700
O -9.197900 -16.173700 -10.964800
O -8.992100 -21.951700 -11.442300
C -8.785100 -17.400700 -11.036500
C -8.741600 -20.767800 -11.322400
H -8.546700 -15.604900 -10.724300
O -7.645200 -17.782500 -10.779700
O -7.553700 -20.344100 -10.956000
H -7.520300 -19.464800 -10.885400
