8
Fragment
H -7.616100 -27.363700 -10.324100
O -7.158900 -26.727700 -10.082800
C -6.249900 -27.137700 -9.260400
O -6.050100 -28.302100 -9.030400
H -6.006000 -25.313600 -8.388900
C -5.431800 -26.044300 -8.629400
H -4.998700 -26.383300 -7.842400
H -4.769100 -25.740000 -9.252800
33
Fragment
H -8.229600 -28.927200 -14.422000
H -7.566800 -30.261100 -14.909000
C -7.419300 -29.326300 -14.745400
H -7.153900 -28.898000 -15.561900
H -6.789300 -32.294800 -8.423600
O -6.557900 -26.902600 -13.929800
N -6.365600 -29.167700 -13.746600
O -6.239800 -31.440100 -13.520400
C -5.995000 -27.852000 -13.435200
C -5.954500 -31.966800 -8.792200
H -5.899700 -31.010100 -8.646700
O -5.849600 -32.278400 -10.170300
C -5.817100 -30.350400 -13.203000
H -5.071500 -25.698100 -12.511000
H -5.010600 -33.579500 -7.923000
N -4.925500 -27.693500 -12.599900
C -4.780800 -32.672000 -8.180800
C -4.745500 -30.060700 -12.309700
H -4.729100 -33.851000 -10.486100
C -4.596100 -32.885200 -10.380600
H -4.448300 -32.194600 -7.405100
C -4.394400 -26.352300 -12.328600
H -4.348000 -32.692100 -12.385100
C -4.298200 -28.801500 -12.038300
H -4.130500 -26.294000 -11.408100
C -3.895600 -32.365900 -11.592000
N -3.859300 -30.875200 -11.628200
O -3.842200 -32.662900 -9.227200
H -3.632900 -26.191900 -12.890900
N -3.242900 -28.794200 -11.237000
C -3.006600 -30.091600 -11.010100
H -2.987400 -32.706600 -11.604900
H -2.313900 -30.405100 -10.473300
41
Fragment
H -7.616100 -27.363700 -10.324100
O -7.158900 -26.727700 -10.082800
C -6.249900 -27.137700 -9.260400
O -6.050100 -28.302100 -9.030400
H -6.006000 -25.313600 -8.388900
C -5.431800 -26.044300 -8.629400
H -4.998700 -26.383300 -7.842400
H -4.769100 -25.740000 -9.252800
H -8.229600 -28.927200 -14.422000
H -7.566800 -30.261100 -14.909000
C -7.419300 -29.326300 -14.745400
H -7.153900 -28.898000 -15.561900
H -6.789300 -32.294800 -8.423600
O -6.557900 -26.902600 -13.929800
N -6.365600 -29.167700 -13.746600
O -6.239800 -31.440100 -13.520400
C -5.995000 -27.852000 -13.435200
C -5.954500 -31.966800 -8.792200
H -5.899700 -31.010100 -8.646700
O -5.849600 -32.278400 -10.170300
C -5.817100 -30.350400 -13.203000
H -5.071500 -25.698100 -12.511000
H -5.010600 -33.579500 -7.923000
N -4.925500 -27.693500 -12.599900
C -4.780800 -32.672000 -8.180800
C -4.745500 -30.060700 -12.309700
H -4.729100 -33.851000 -10.486100
C -4.596100 -32.885200 -10.380600
H -4.448300 -32.194600 -7.405100
C -4.394400 -26.352300 -12.328600
H -4.348000 -32.692100 -12.385100
C -4.298200 -28.801500 -12.038300
H -4.130500 -26.294000 -11.408100
C -3.895600 -32.365900 -11.592000
N -3.859300 -30.875200 -11.628200
O -3.842200 -32.662900 -9.227200
H -3.632900 -26.191900 -12.890900
N -3.242900 -28.794200 -11.237000
C -3.006600 -30.091600 -11.010100
H -2.987400 -32.706600 -11.604900
H -2.313900 -30.405100 -10.473300
