8
Fragment
H -7.616100 -27.363700 -10.324100
O -7.158900 -26.727700 -10.082800
C -6.249900 -27.137700 -9.260400
O -6.050100 -28.302100 -9.030400
H -6.006000 -25.313600 -8.388900
C -5.431800 -26.044300 -8.629400
H -4.998700 -26.383300 -7.842400
H -4.769100 -25.740000 -9.252800
33
Fragment
H -13.602000 -28.927200 -14.422000
H -12.939200 -30.261100 -14.909000
C -12.791700 -29.326300 -14.745400
H -12.526300 -28.898000 -15.561900
H -12.161700 -32.294800 -8.423600
O -11.930300 -26.902600 -13.929800
N -11.738000 -29.167700 -13.746600
O -11.612200 -31.440100 -13.520400
C -11.367400 -27.852000 -13.435200
C -11.326900 -31.966800 -8.792200
H -11.272100 -31.010100 -8.646700
O -11.222000 -32.278400 -10.170300
C -11.189500 -30.350400 -13.203000
H -10.443900 -25.698100 -12.511000
H -10.383000 -33.579500 -7.923000
N -10.297900 -27.693500 -12.599900
C -10.153200 -32.672000 -8.180800
C -10.117900 -30.060700 -12.309700
H -10.101500 -33.851000 -10.486100
C -9.968500 -32.885200 -10.380600
H -9.820700 -32.194600 -7.405100
C -9.766800 -26.352300 -12.328600
H -9.720400 -32.692100 -12.385100
C -9.670600 -28.801500 -12.038300
H -9.502900 -26.294000 -11.408100
C -9.268000 -32.365900 -11.592000
N -9.231700 -30.875200 -11.628200
O -9.214600 -32.662900 -9.227200
H -9.005300 -26.191900 -12.890900
N -8.615300 -28.794200 -11.237000
C -8.379000 -30.091600 -11.010100
H -8.359800 -32.706600 -11.604900
H -7.686300 -30.405100 -10.473300
41
Fragment
H -7.616100 -27.363700 -10.324100
O -7.158900 -26.727700 -10.082800
C -6.249900 -27.137700 -9.260400
O -6.050100 -28.302100 -9.030400
H -6.006000 -25.313600 -8.388900
C -5.431800 -26.044300 -8.629400
H -4.998700 -26.383300 -7.842400
H -4.769100 -25.740000 -9.252800
H -13.602000 -28.927200 -14.422000
H -12.939200 -30.261100 -14.909000
C -12.791700 -29.326300 -14.745400
H -12.526300 -28.898000 -15.561900
H -12.161700 -32.294800 -8.423600
O -11.930300 -26.902600 -13.929800
N -11.738000 -29.167700 -13.746600
O -11.612200 -31.440100 -13.520400
C -11.367400 -27.852000 -13.435200
C -11.326900 -31.966800 -8.792200
H -11.272100 -31.010100 -8.646700
O -11.222000 -32.278400 -10.170300
C -11.189500 -30.350400 -13.203000
H -10.443900 -25.698100 -12.511000
H -10.383000 -33.579500 -7.923000
N -10.297900 -27.693500 -12.599900
C -10.153200 -32.672000 -8.180800
C -10.117900 -30.060700 -12.309700
H -10.101500 -33.851000 -10.486100
C -9.968500 -32.885200 -10.380600
H -9.820700 -32.194600 -7.405100
C -9.766800 -26.352300 -12.328600
H -9.720400 -32.692100 -12.385100
C -9.670600 -28.801500 -12.038300
H -9.502900 -26.294000 -11.408100
C -9.268000 -32.365900 -11.592000
N -9.231700 -30.875200 -11.628200
O -9.214600 -32.662900 -9.227200
H -9.005300 -26.191900 -12.890900
N -8.615300 -28.794200 -11.237000
C -8.379000 -30.091600 -11.010100
H -8.359800 -32.706600 -11.604900
H -7.686300 -30.405100 -10.473300
