8
Fragment
H -7.616100 -27.363700 -10.324100
O -7.158900 -26.727700 -10.082800
C -6.249900 -27.137700 -9.260400
O -6.050100 -28.302100 -9.030400
H -6.006000 -25.313600 -8.388900
C -5.431800 -26.044300 -8.629400
H -4.998700 -26.383300 -7.842400
H -4.769100 -25.740000 -9.252800
33
Fragment
H -9.622300 -21.293600 -12.142400
H -8.948800 -23.595100 -11.010800
C -8.929700 -20.980100 -11.605600
N -8.693300 -19.682700 -11.378700
H -8.303400 -17.080400 -9.724700
O -8.094000 -23.551400 -13.388500
N -8.076900 -21.763700 -10.987500
C -8.040700 -23.254400 -11.023600
H -7.805800 -17.182500 -11.207600
C -7.638100 -19.690000 -10.577400
H -7.588300 -23.580600 -10.230600
C -7.541800 -17.240800 -10.287100
H -7.488000 -23.083100 -15.210600
C -7.340200 -23.773700 -12.235100
H -7.207100 -24.739500 -12.129500
C -7.190700 -20.949200 -10.306000
C -7.155400 -23.560500 -14.434800
N -7.010700 -18.582000 -10.015700
H -6.925600 -24.468000 -14.692700
H -6.864800 -16.586600 -10.104700
C -6.119200 -21.238900 -9.412600
O -6.086600 -23.166900 -12.445400
H -6.036500 -21.898600 -13.969000
C -5.981700 -22.855300 -13.823500
C -5.941300 -18.740500 -9.180500
O -5.696500 -22.328600 -9.095300
N -5.570700 -20.056200 -8.869100
O -5.378400 -17.791100 -8.685900
H -5.147000 -23.183300 -14.192100
H -4.782400 -19.786500 -7.053800
C -4.517000 -20.214800 -7.870300
H -4.369400 -21.149600 -7.706700
H -3.706700 -19.815700 -8.193700
41
Fragment
H -7.616100 -27.363700 -10.324100
O -7.158900 -26.727700 -10.082800
C -6.249900 -27.137700 -9.260400
O -6.050100 -28.302100 -9.030400
H -6.006000 -25.313600 -8.388900
C -5.431800 -26.044300 -8.629400
H -4.998700 -26.383300 -7.842400
H -4.769100 -25.740000 -9.252800
H -9.622300 -21.293600 -12.142400
H -8.948800 -23.595100 -11.010800
C -8.929700 -20.980100 -11.605600
N -8.693300 -19.682700 -11.378700
H -8.303400 -17.080400 -9.724700
O -8.094000 -23.551400 -13.388500
N -8.076900 -21.763700 -10.987500
C -8.040700 -23.254400 -11.023600
H -7.805800 -17.182500 -11.207600
C -7.638100 -19.690000 -10.577400
H -7.588300 -23.580600 -10.230600
C -7.541800 -17.240800 -10.287100
H -7.488000 -23.083100 -15.210600
C -7.340200 -23.773700 -12.235100
H -7.207100 -24.739500 -12.129500
C -7.190700 -20.949200 -10.306000
C -7.155400 -23.560500 -14.434800
N -7.010700 -18.582000 -10.015700
H -6.925600 -24.468000 -14.692700
H -6.864800 -16.586600 -10.104700
C -6.119200 -21.238900 -9.412600
O -6.086600 -23.166900 -12.445400
H -6.036500 -21.898600 -13.969000
C -5.981700 -22.855300 -13.823500
C -5.941300 -18.740500 -9.180500
O -5.696500 -22.328600 -9.095300
N -5.570700 -20.056200 -8.869100
O -5.378400 -17.791100 -8.685900
H -5.147000 -23.183300 -14.192100
H -4.782400 -19.786500 -7.053800
C -4.517000 -20.214800 -7.870300
H -4.369400 -21.149600 -7.706700
H -3.706700 -19.815700 -8.193700
