8
Fragment
H -7.616100 -27.363700 -10.324100
O -7.158900 -26.727700 -10.082800
C -6.249900 -27.137700 -9.260400
O -6.050100 -28.302100 -9.030400
H -6.006000 -25.313600 -8.388900
C -5.431800 -26.044300 -8.629400
H -4.998700 -26.383300 -7.842400
H -4.769100 -25.740000 -9.252800
33
Fragment
H -5.643600 -21.293600 -4.603800
H -4.970100 -23.595100 -3.472300
C -4.950900 -20.980100 -4.067100
N -4.714600 -19.682700 -3.840100
H -4.324600 -17.080400 -2.186200
O -4.115200 -23.551400 -5.849900
N -4.098200 -21.763700 -3.448900
C -4.061900 -23.254400 -3.485100
H -3.827000 -17.182500 -3.669000
C -3.659300 -19.690000 -3.038800
H -3.609500 -23.580600 -2.692000
C -3.563100 -17.240800 -2.748600
H -3.509200 -23.083100 -7.672000
C -3.361400 -23.773700 -4.696500
H -3.228400 -24.739500 -4.591000
C -3.212000 -20.949200 -2.767400
C -3.176700 -23.560500 -6.896300
N -3.032000 -18.582000 -2.477200
H -2.946900 -24.468000 -7.154100
H -2.886000 -16.586600 -2.566100
C -2.140400 -21.238900 -1.874100
O -2.107900 -23.166900 -4.906800
H -2.057800 -21.898600 -6.430400
C -2.003000 -22.855300 -6.284900
C -1.962500 -18.740500 -1.641900
O -1.717700 -22.328600 -1.556700
N -1.591900 -20.056200 -1.330600
O -1.399600 -17.791100 -1.147400
H -1.168200 -23.183300 -6.653500
H -0.803600 -19.786500 0.484700
C -0.538200 -20.214800 -0.331700
H -0.390700 -21.149600 -0.168100
H 0.272100 -19.815700 -0.655100
41
Fragment
H -7.616100 -27.363700 -10.324100
O -7.158900 -26.727700 -10.082800
C -6.249900 -27.137700 -9.260400
O -6.050100 -28.302100 -9.030400
H -6.006000 -25.313600 -8.388900
C -5.431800 -26.044300 -8.629400
H -4.998700 -26.383300 -7.842400
H -4.769100 -25.740000 -9.252800
H -5.643600 -21.293600 -4.603800
H -4.970100 -23.595100 -3.472300
C -4.950900 -20.980100 -4.067100
N -4.714600 -19.682700 -3.840100
H -4.324600 -17.080400 -2.186200
O -4.115200 -23.551400 -5.849900
N -4.098200 -21.763700 -3.448900
C -4.061900 -23.254400 -3.485100
H -3.827000 -17.182500 -3.669000
C -3.659300 -19.690000 -3.038800
H -3.609500 -23.580600 -2.692000
C -3.563100 -17.240800 -2.748600
H -3.509200 -23.083100 -7.672000
C -3.361400 -23.773700 -4.696500
H -3.228400 -24.739500 -4.591000
C -3.212000 -20.949200 -2.767400
C -3.176700 -23.560500 -6.896300
N -3.032000 -18.582000 -2.477200
H -2.946900 -24.468000 -7.154100
H -2.886000 -16.586600 -2.566100
C -2.140400 -21.238900 -1.874100
O -2.107900 -23.166900 -4.906800
H -2.057800 -21.898600 -6.430400
C -2.003000 -22.855300 -6.284900
C -1.962500 -18.740500 -1.641900
O -1.717700 -22.328600 -1.556700
N -1.591900 -20.056200 -1.330600
O -1.399600 -17.791100 -1.147400
H -1.168200 -23.183300 -6.653500
H -0.803600 -19.786500 0.484700
C -0.538200 -20.214800 -0.331700
H -0.390700 -21.149600 -0.168100
H 0.272100 -19.815700 -0.655100
