8
Fragment
H -7.616100 -27.363700 -10.324100
O -7.158900 -26.727700 -10.082800
C -6.249900 -27.137700 -9.260400
O -6.050100 -28.302100 -9.030400
H -6.006000 -25.313600 -8.388900
C -5.431800 -26.044300 -8.629400
H -4.998700 -26.383300 -7.842400
H -4.769100 -25.740000 -9.252800
33
Fragment
H -11.016000 -21.293600 -4.603800
H -10.342500 -23.595100 -3.472300
C -10.323300 -20.980100 -4.067100
N -10.087000 -19.682700 -3.840100
H -9.697000 -17.080400 -2.186200
O -9.487600 -23.551400 -5.849900
N -9.470600 -21.763700 -3.448900
C -9.434300 -23.254400 -3.485100
H -9.199400 -17.182500 -3.669000
C -9.031700 -19.690000 -3.038800
H -8.981900 -23.580600 -2.692000
C -8.935500 -17.240800 -2.748600
H -8.881600 -23.083100 -7.672000
C -8.733800 -23.773700 -4.696500
H -8.600800 -24.739500 -4.591000
C -8.584400 -20.949200 -2.767400
C -8.549100 -23.560500 -6.896300
N -8.404400 -18.582000 -2.477200
H -8.319300 -24.468000 -7.154100
H -8.258400 -16.586600 -2.566100
C -7.512800 -21.238900 -1.874100
O -7.480300 -23.166900 -4.906800
H -7.430200 -21.898600 -6.430400
C -7.375400 -22.855300 -6.284900
C -7.334900 -18.740500 -1.641900
O -7.090100 -22.328600 -1.556700
N -6.964300 -20.056200 -1.330600
O -6.772000 -17.791100 -1.147400
H -6.540600 -23.183300 -6.653500
H -6.176000 -19.786500 0.484700
C -5.910600 -20.214800 -0.331700
H -5.763100 -21.149600 -0.168100
H -5.100300 -19.815700 -0.655100
41
Fragment
H -7.616100 -27.363700 -10.324100
O -7.158900 -26.727700 -10.082800
C -6.249900 -27.137700 -9.260400
O -6.050100 -28.302100 -9.030400
H -6.006000 -25.313600 -8.388900
C -5.431800 -26.044300 -8.629400
H -4.998700 -26.383300 -7.842400
H -4.769100 -25.740000 -9.252800
H -11.016000 -21.293600 -4.603800
H -10.342500 -23.595100 -3.472300
C -10.323300 -20.980100 -4.067100
N -10.087000 -19.682700 -3.840100
H -9.697000 -17.080400 -2.186200
O -9.487600 -23.551400 -5.849900
N -9.470600 -21.763700 -3.448900
C -9.434300 -23.254400 -3.485100
H -9.199400 -17.182500 -3.669000
C -9.031700 -19.690000 -3.038800
H -8.981900 -23.580600 -2.692000
C -8.935500 -17.240800 -2.748600
H -8.881600 -23.083100 -7.672000
C -8.733800 -23.773700 -4.696500
H -8.600800 -24.739500 -4.591000
C -8.584400 -20.949200 -2.767400
C -8.549100 -23.560500 -6.896300
N -8.404400 -18.582000 -2.477200
H -8.319300 -24.468000 -7.154100
H -8.258400 -16.586600 -2.566100
C -7.512800 -21.238900 -1.874100
O -7.480300 -23.166900 -4.906800
H -7.430200 -21.898600 -6.430400
C -7.375400 -22.855300 -6.284900
C -7.334900 -18.740500 -1.641900
O -7.090100 -22.328600 -1.556700
N -6.964300 -20.056200 -1.330600
O -6.772000 -17.791100 -1.147400
H -6.540600 -23.183300 -6.653500
H -6.176000 -19.786500 0.484700
C -5.910600 -20.214800 -0.331700
H -5.763100 -21.149600 -0.168100
H -5.100300 -19.815700 -0.655100
