8
Fragment
H -7.616100 -27.363700 -10.324100
O -7.158900 -26.727700 -10.082800
C -6.249900 -27.137700 -9.260400
O -6.050100 -28.302100 -9.030400
H -6.006000 -25.313600 -8.388900
C -5.431800 -26.044300 -8.629400
H -4.998700 -26.383300 -7.842400
H -4.769100 -25.740000 -9.252800
33
Fragment
H -9.623200 -28.927200 -6.883500
H -8.960500 -30.261100 -7.370500
C -8.812900 -29.326300 -7.206900
H -8.547500 -28.898000 -8.023300
H -8.182900 -32.294800 -0.885000
O -7.951500 -26.902600 -6.391200
N -7.759200 -29.167700 -6.208000
O -7.633400 -31.440100 -5.981800
C -7.388600 -27.852000 -5.896700
C -7.348200 -31.966800 -1.253700
H -7.293400 -31.010100 -1.108200
O -7.243300 -32.278400 -2.631700
C -7.210700 -30.350400 -5.664500
H -6.465100 -25.698100 -4.972400
H -6.404300 -33.579500 -0.384500
N -6.319200 -27.693500 -5.061400
C -6.174500 -32.672000 -0.642300
C -6.139100 -30.060700 -4.771200
H -6.122800 -33.851000 -2.947600
C -5.989700 -32.885200 -2.842000
H -5.841900 -32.194600 0.133400
C -5.788100 -26.352300 -4.790000
H -5.741600 -32.692100 -4.846500
C -5.691800 -28.801500 -4.499800
H -5.524100 -26.294000 -3.869500
C -5.289200 -32.365900 -4.053500
N -5.253000 -30.875200 -4.089700
O -5.235900 -32.662900 -1.688600
H -5.026500 -26.191900 -5.352400
N -4.636600 -28.794200 -3.698400
C -4.400200 -30.091600 -3.471500
H -4.381100 -32.706600 -4.066300
H -3.707600 -30.405100 -2.934800
41
Fragment
H -7.616100 -27.363700 -10.324100
O -7.158900 -26.727700 -10.082800
C -6.249900 -27.137700 -9.260400
O -6.050100 -28.302100 -9.030400
H -6.006000 -25.313600 -8.388900
C -5.431800 -26.044300 -8.629400
H -4.998700 -26.383300 -7.842400
H -4.769100 -25.740000 -9.252800
H -9.623200 -28.927200 -6.883500
H -8.960500 -30.261100 -7.370500
C -8.812900 -29.326300 -7.206900
H -8.547500 -28.898000 -8.023300
H -8.182900 -32.294800 -0.885000
O -7.951500 -26.902600 -6.391200
N -7.759200 -29.167700 -6.208000
O -7.633400 -31.440100 -5.981800
C -7.388600 -27.852000 -5.896700
C -7.348200 -31.966800 -1.253700
H -7.293400 -31.010100 -1.108200
O -7.243300 -32.278400 -2.631700
C -7.210700 -30.350400 -5.664500
H -6.465100 -25.698100 -4.972400
H -6.404300 -33.579500 -0.384500
N -6.319200 -27.693500 -5.061400
C -6.174500 -32.672000 -0.642300
C -6.139100 -30.060700 -4.771200
H -6.122800 -33.851000 -2.947600
C -5.989700 -32.885200 -2.842000
H -5.841900 -32.194600 0.133400
C -5.788100 -26.352300 -4.790000
H -5.741600 -32.692100 -4.846500
C -5.691800 -28.801500 -4.499800
H -5.524100 -26.294000 -3.869500
C -5.289200 -32.365900 -4.053500
N -5.253000 -30.875200 -4.089700
O -5.235900 -32.662900 -1.688600
H -5.026500 -26.191900 -5.352400
N -4.636600 -28.794200 -3.698400
C -4.400200 -30.091600 -3.471500
H -4.381100 -32.706600 -4.066300
H -3.707600 -30.405100 -2.934800
