14
Fragment
H -27.686300 -18.035700 -14.074300
H -27.444600 -17.594900 -15.704500
C -26.969500 -17.862600 -14.811400
H -26.641000 -15.882000 -14.286900
O -26.217300 -19.049300 -15.025100
C -26.080200 -16.768000 -14.394300
H -25.647700 -17.009600 -13.456600
H -25.613700 -18.617800 -16.919500
C -25.181300 -18.859400 -15.981900
O -25.044100 -16.578100 -15.351100
H -24.620400 -19.745400 -16.089200
C -24.291900 -17.764800 -15.564700
H -23.816800 -18.032500 -14.671700
H -23.575100 -17.591700 -16.301900
28
Fragment
O -33.739700 -25.757400 -18.416100
O -33.681900 -23.089500 -18.828200
O -33.530100 -22.356600 -16.799000
N -33.316600 -23.107000 -17.717400
O -32.847700 -25.937000 -15.875600
N -32.586200 -25.390900 -18.346200
N -32.547000 -24.789100 -15.977900
O -32.347100 -24.034000 -15.106100
C -32.319100 -24.245000 -17.397400
O -31.654000 -25.819400 -18.928400
O -31.353600 -20.121500 -19.623000
C -30.897500 -23.696800 -17.502700
N -30.772500 -22.593500 -18.216600
N -30.488800 -19.946600 -18.868700
O -30.482100 -19.211600 -18.041400
N -29.970800 -24.392100 -16.879000
C -29.518000 -22.171900 -18.220600
C -29.271000 -20.888400 -18.995200
N -29.079100 -21.153800 -20.476600
O -29.076600 -20.207600 -21.214700
O -28.942900 -22.297300 -20.785400
C -28.748400 -23.850300 -16.997500
N -28.470800 -22.721300 -17.674900
O -28.025600 -19.890500 -17.371100
N -28.019800 -20.184500 -18.514300
H -27.864800 -25.346000 -16.089200
O -27.730700 -24.449400 -16.459800
O -27.104100 -20.105500 -19.232200
42
Fragment
H -27.686300 -18.035700 -14.074300
H -27.444600 -17.594900 -15.704500
C -26.969500 -17.862600 -14.811400
H -26.641000 -15.882000 -14.286900
O -26.217300 -19.049300 -15.025100
C -26.080200 -16.768000 -14.394300
H -25.647700 -17.009600 -13.456600
H -25.613700 -18.617800 -16.919500
C -25.181300 -18.859400 -15.981900
O -25.044100 -16.578100 -15.351100
H -24.620400 -19.745400 -16.089200
C -24.291900 -17.764800 -15.564700
H -23.816800 -18.032500 -14.671700
H -23.575100 -17.591700 -16.301900
O -33.739700 -25.757400 -18.416100
O -33.681900 -23.089500 -18.828200
O -33.530100 -22.356600 -16.799000
N -33.316600 -23.107000 -17.717400
O -32.847700 -25.937000 -15.875600
N -32.586200 -25.390900 -18.346200
N -32.547000 -24.789100 -15.977900
O -32.347100 -24.034000 -15.106100
C -32.319100 -24.245000 -17.397400
O -31.654000 -25.819400 -18.928400
O -31.353600 -20.121500 -19.623000
C -30.897500 -23.696800 -17.502700
N -30.772500 -22.593500 -18.216600
N -30.488800 -19.946600 -18.868700
O -30.482100 -19.211600 -18.041400
N -29.970800 -24.392100 -16.879000
C -29.518000 -22.171900 -18.220600
C -29.271000 -20.888400 -18.995200
N -29.079100 -21.153800 -20.476600
O -29.076600 -20.207600 -21.214700
O -28.942900 -22.297300 -20.785400
C -28.748400 -23.850300 -16.997500
N -28.470800 -22.721300 -17.674900
O -28.025600 -19.890500 -17.371100
N -28.019800 -20.184500 -18.514300
H -27.864800 -25.346000 -16.089200
O -27.730700 -24.449400 -16.459800
O -27.104100 -20.105500 -19.232200
