14
Fragment
H -27.686300 -18.035700 -14.074300
H -27.444600 -17.594900 -15.704500
C -26.969500 -17.862600 -14.811400
H -26.641000 -15.882000 -14.286900
O -26.217300 -19.049300 -15.025100
C -26.080200 -16.768000 -14.394300
H -25.647700 -17.009600 -13.456600
H -25.613700 -18.617800 -16.919500
C -25.181300 -18.859400 -15.981900
O -25.044100 -16.578100 -15.351100
H -24.620400 -19.745400 -16.089200
C -24.291900 -17.764800 -15.564700
H -23.816800 -18.032500 -14.671700
H -23.575100 -17.591700 -16.301900
28
Fragment
O -30.737200 -23.936600 -8.290700
O -30.679400 -21.268700 -8.702800
O -30.527500 -20.535800 -6.673600
N -30.314100 -21.286100 -7.592000
O -29.845100 -24.116200 -5.750200
N -29.583700 -23.570100 -8.220800
N -29.544500 -22.968200 -5.852500
O -29.344500 -22.213200 -4.980700
C -29.316600 -22.424100 -7.272100
O -28.651500 -23.998500 -8.803000
O -28.351100 -18.300600 -9.497600
C -27.895000 -21.876000 -7.377400
N -27.769900 -20.772600 -8.091200
N -27.486300 -18.125800 -8.743300
O -27.479600 -17.390800 -7.916000
N -26.968300 -22.571200 -6.753600
C -26.515500 -20.351000 -8.095200
C -26.268500 -19.067500 -8.869800
N -26.076600 -19.332900 -10.351200
O -26.074100 -18.386800 -11.089300
O -25.940400 -20.476400 -10.660000
C -25.745900 -22.029400 -6.872100
N -25.468300 -20.900400 -7.549500
O -25.023100 -18.069600 -7.245700
N -25.017300 -18.363700 -8.388900
H -24.862300 -23.525200 -5.963900
O -24.728100 -22.628600 -6.334400
O -24.101500 -18.284600 -9.106800
42
Fragment
H -27.686300 -18.035700 -14.074300
H -27.444600 -17.594900 -15.704500
C -26.969500 -17.862600 -14.811400
H -26.641000 -15.882000 -14.286900
O -26.217300 -19.049300 -15.025100
C -26.080200 -16.768000 -14.394300
H -25.647700 -17.009600 -13.456600
H -25.613700 -18.617800 -16.919500
C -25.181300 -18.859400 -15.981900
O -25.044100 -16.578100 -15.351100
H -24.620400 -19.745400 -16.089200
C -24.291900 -17.764800 -15.564700
H -23.816800 -18.032500 -14.671700
H -23.575100 -17.591700 -16.301900
O -30.737200 -23.936600 -8.290700
O -30.679400 -21.268700 -8.702800
O -30.527500 -20.535800 -6.673600
N -30.314100 -21.286100 -7.592000
O -29.845100 -24.116200 -5.750200
N -29.583700 -23.570100 -8.220800
N -29.544500 -22.968200 -5.852500
O -29.344500 -22.213200 -4.980700
C -29.316600 -22.424100 -7.272100
O -28.651500 -23.998500 -8.803000
O -28.351100 -18.300600 -9.497600
C -27.895000 -21.876000 -7.377400
N -27.769900 -20.772600 -8.091200
N -27.486300 -18.125800 -8.743300
O -27.479600 -17.390800 -7.916000
N -26.968300 -22.571200 -6.753600
C -26.515500 -20.351000 -8.095200
C -26.268500 -19.067500 -8.869800
N -26.076600 -19.332900 -10.351200
O -26.074100 -18.386800 -11.089300
O -25.940400 -20.476400 -10.660000
C -25.745900 -22.029400 -6.872100
N -25.468300 -20.900400 -7.549500
O -25.023100 -18.069600 -7.245700
N -25.017300 -18.363700 -8.388900
H -24.862300 -23.525200 -5.963900
O -24.728100 -22.628600 -6.334400
O -24.101500 -18.284600 -9.106800
