22
Fragment
H -6.143600 -7.775200 -14.425200
H -5.733100 -10.277000 -14.357000
H -5.341300 -8.460300 -12.933400
C -5.295900 -8.351500 -13.940100
H -5.061500 -7.526200 -16.565000
C -5.031500 -9.660000 -14.608400
N -4.895100 -9.571500 -16.064600
C -4.855500 -8.471900 -16.897200
C -4.678200 -10.651800 -16.874400
H -4.643100 -7.762300 -14.122000
N -4.642500 -8.771400 -18.156200
N -4.620800 -11.944700 -16.444000
C -4.528400 -10.170100 -18.146400
H -4.392500 -14.390800 -16.391900
C -4.389000 -12.775000 -17.458000
N -4.300200 -14.099600 -17.218000
C -4.292900 -11.071900 -19.215100
N -4.240500 -12.392300 -18.755000
H -4.184800 -9.991600 -14.254700
O -4.126500 -10.829500 -20.429100
H -4.024600 -14.723400 -17.962000
H -3.999700 -13.053200 -19.354000
3
Fragment
H -4.258600 -10.597800 -23.583000
O -3.535500 -10.057100 -24.044900
H -3.475200 -10.306200 -24.846200
25
Fragment
H -6.143600 -7.775200 -14.425200
H -5.733100 -10.277000 -14.357000
H -5.341300 -8.460300 -12.933400
C -5.295900 -8.351500 -13.940100
H -5.061500 -7.526200 -16.565000
C -5.031500 -9.660000 -14.608400
N -4.895100 -9.571500 -16.064600
C -4.855500 -8.471900 -16.897200
C -4.678200 -10.651800 -16.874400
H -4.643100 -7.762300 -14.122000
N -4.642500 -8.771400 -18.156200
N -4.620800 -11.944700 -16.444000
C -4.528400 -10.170100 -18.146400
H -4.392500 -14.390800 -16.391900
C -4.389000 -12.775000 -17.458000
N -4.300200 -14.099600 -17.218000
C -4.292900 -11.071900 -19.215100
N -4.240500 -12.392300 -18.755000
H -4.184800 -9.991600 -14.254700
O -4.126500 -10.829500 -20.429100
H -4.024600 -14.723400 -17.962000
H -3.999700 -13.053200 -19.354000
H -4.258600 -10.597800 -23.583000
O -3.535500 -10.057100 -24.044900
H -3.475200 -10.306200 -24.846200
