22
Fragment
H -6.143600 -7.775200 -14.425200
H -5.733100 -10.277000 -14.357000
H -5.341300 -8.460300 -12.933400
C -5.295900 -8.351500 -13.940100
H -5.061500 -7.526200 -16.565000
C -5.031500 -9.660000 -14.608400
N -4.895100 -9.571500 -16.064600
C -4.855500 -8.471900 -16.897200
C -4.678200 -10.651800 -16.874400
H -4.643100 -7.762300 -14.122000
N -4.642500 -8.771400 -18.156200
N -4.620800 -11.944700 -16.444000
C -4.528400 -10.170100 -18.146400
H -4.392500 -14.390800 -16.391900
C -4.389000 -12.775000 -17.458000
N -4.300200 -14.099600 -17.218000
C -4.292900 -11.071900 -19.215100
N -4.240500 -12.392300 -18.755000
H -4.184800 -9.991600 -14.254700
O -4.126500 -10.829500 -20.429100
H -4.024600 -14.723400 -17.962000
H -3.999700 -13.053200 -19.354000
22
Fragment
H -7.299900 -14.399700 -18.540500
H -7.275000 -12.729500 -19.932500
O -7.173100 -16.623300 -17.465500
H -7.114800 -17.461300 -23.639900
N -7.059100 -15.060600 -19.139500
C -7.006700 -16.381000 -18.679500
N -6.999400 -13.353300 -20.676500
C -6.910500 -14.677900 -20.436500
H -6.907100 -13.062100 -21.502600
C -6.771200 -17.282700 -19.748100
N -6.678800 -15.508200 -21.450600
N -6.657100 -18.681500 -19.738400
H -6.656500 -19.690600 -23.772500
C -6.621400 -16.801100 -21.020100
C -6.444100 -18.981000 -20.997400
N -6.404500 -17.881300 -21.829900
C -6.268000 -17.792900 -23.286200
H -6.238100 -19.926600 -21.329600
C -6.003600 -19.101400 -23.954400
H -5.958200 -18.992500 -24.961100
H -5.566400 -17.175900 -23.537600
H -5.156000 -19.677700 -23.469400
44
Fragment
H -6.143600 -7.775200 -14.425200
H -5.733100 -10.277000 -14.357000
H -5.341300 -8.460300 -12.933400
C -5.295900 -8.351500 -13.940100
H -5.061500 -7.526200 -16.565000
C -5.031500 -9.660000 -14.608400
N -4.895100 -9.571500 -16.064600
C -4.855500 -8.471900 -16.897200
C -4.678200 -10.651800 -16.874400
H -4.643100 -7.762300 -14.122000
N -4.642500 -8.771400 -18.156200
N -4.620800 -11.944700 -16.444000
C -4.528400 -10.170100 -18.146400
H -4.392500 -14.390800 -16.391900
C -4.389000 -12.775000 -17.458000
N -4.300200 -14.099600 -17.218000
C -4.292900 -11.071900 -19.215100
N -4.240500 -12.392300 -18.755000
H -4.184800 -9.991600 -14.254700
O -4.126500 -10.829500 -20.429100
H -4.024600 -14.723400 -17.962000
H -3.999700 -13.053200 -19.354000
H -7.299900 -14.399700 -18.540500
H -7.275000 -12.729500 -19.932500
O -7.173100 -16.623300 -17.465500
H -7.114800 -17.461300 -23.639900
N -7.059100 -15.060600 -19.139500
C -7.006700 -16.381000 -18.679500
N -6.999400 -13.353300 -20.676500
C -6.910500 -14.677900 -20.436500
H -6.907100 -13.062100 -21.502600
C -6.771200 -17.282700 -19.748100
N -6.678800 -15.508200 -21.450600
N -6.657100 -18.681500 -19.738400
H -6.656500 -19.690600 -23.772500
C -6.621400 -16.801100 -21.020100
C -6.444100 -18.981000 -20.997400
N -6.404500 -17.881300 -21.829900
C -6.268000 -17.792900 -23.286200
H -6.238100 -19.926600 -21.329600
C -6.003600 -19.101400 -23.954400
H -5.958200 -18.992500 -24.961100
H -5.566400 -17.175900 -23.537600
H -5.156000 -19.677700 -23.469400
