22
Fragment
H -6.143600 -7.775200 -14.425200
H -5.733100 -10.277000 -14.357000
H -5.341300 -8.460300 -12.933400
C -5.295900 -8.351500 -13.940100
H -5.061500 -7.526200 -16.565000
C -5.031500 -9.660000 -14.608400
N -4.895100 -9.571500 -16.064600
C -4.855500 -8.471900 -16.897200
C -4.678200 -10.651800 -16.874400
H -4.643100 -7.762300 -14.122000
N -4.642500 -8.771400 -18.156200
N -4.620800 -11.944700 -16.444000
C -4.528400 -10.170100 -18.146400
H -4.392500 -14.390800 -16.391900
C -4.389000 -12.775000 -17.458000
N -4.300200 -14.099600 -17.218000
C -4.292900 -11.071900 -19.215100
N -4.240500 -12.392300 -18.755000
H -4.184800 -9.991600 -14.254700
O -4.126500 -10.829500 -20.429100
H -4.024600 -14.723400 -17.962000
H -3.999700 -13.053200 -19.354000
22
Fragment
H -2.635000 -11.836200 -13.666000
H -2.475800 -14.320500 -13.760800
H -2.131000 -13.761400 -12.385200
C -1.873100 -13.817200 -13.321200
H -1.787600 -7.503800 -15.367500
C -1.763600 -12.391700 -13.829000
N -1.612000 -7.726000 -16.183500
N -1.606700 -9.941600 -15.525800
H -1.503500 -7.020600 -16.822700
C -1.486600 -9.031700 -16.489200
N -1.467400 -12.345300 -15.267800
C -1.417400 -11.199900 -16.019300
N -1.234700 -9.314600 -17.813100
C -1.213300 -13.376500 -16.139300
H -1.211000 -14.367000 -15.774200
C -1.142300 -11.580900 -17.309000
H -1.097200 -8.567300 -18.452100
C -1.056300 -10.608200 -18.318200
N -1.013800 -12.974800 -17.379800
H -0.998600 -11.889600 -13.289600
H -0.911400 -14.373600 -13.398300
O -0.863500 -10.778500 -19.530700
44
Fragment
H -6.143600 -7.775200 -14.425200
H -5.733100 -10.277000 -14.357000
H -5.341300 -8.460300 -12.933400
C -5.295900 -8.351500 -13.940100
H -5.061500 -7.526200 -16.565000
C -5.031500 -9.660000 -14.608400
N -4.895100 -9.571500 -16.064600
C -4.855500 -8.471900 -16.897200
C -4.678200 -10.651800 -16.874400
H -4.643100 -7.762300 -14.122000
N -4.642500 -8.771400 -18.156200
N -4.620800 -11.944700 -16.444000
C -4.528400 -10.170100 -18.146400
H -4.392500 -14.390800 -16.391900
C -4.389000 -12.775000 -17.458000
N -4.300200 -14.099600 -17.218000
C -4.292900 -11.071900 -19.215100
N -4.240500 -12.392300 -18.755000
H -4.184800 -9.991600 -14.254700
O -4.126500 -10.829500 -20.429100
H -4.024600 -14.723400 -17.962000
H -3.999700 -13.053200 -19.354000
H -2.635000 -11.836200 -13.666000
H -2.475800 -14.320500 -13.760800
H -2.131000 -13.761400 -12.385200
C -1.873100 -13.817200 -13.321200
H -1.787600 -7.503800 -15.367500
C -1.763600 -12.391700 -13.829000
N -1.612000 -7.726000 -16.183500
N -1.606700 -9.941600 -15.525800
H -1.503500 -7.020600 -16.822700
C -1.486600 -9.031700 -16.489200
N -1.467400 -12.345300 -15.267800
C -1.417400 -11.199900 -16.019300
N -1.234700 -9.314600 -17.813100
C -1.213300 -13.376500 -16.139300
H -1.211000 -14.367000 -15.774200
C -1.142300 -11.580900 -17.309000
H -1.097200 -8.567300 -18.452100
C -1.056300 -10.608200 -18.318200
N -1.013800 -12.974800 -17.379800
H -0.998600 -11.889600 -13.289600
H -0.911400 -14.373600 -13.398300
O -0.863500 -10.778500 -19.530700
