34
Fragment
H -17.836600 -14.021000 -29.629200
H -17.821100 -11.261800 -21.537900
H -17.816900 -13.344600 -27.397600
H -17.525100 -15.611600 -31.363100
H -17.364300 -14.093600 -31.843900
H -17.346800 -12.079100 -23.673300
O -17.290000 -10.363300 -19.315800
C -17.023000 -14.022600 -29.137700
C -17.005200 -13.615700 -27.810400
C -16.935000 -11.510900 -21.772700
C -16.924600 -14.968100 -31.794100
H -16.834900 -13.013100 -25.398800
H -16.710600 -15.277400 -32.699000
C -16.648300 -11.991800 -23.036100
N -16.200000 -10.892600 -19.516400
C -15.938800 -13.133900 -25.690500
C -15.903600 -11.399300 -20.854400
C -15.846200 -14.430800 -29.739300
C -15.820300 -13.595800 -27.066900
O -15.721500 -14.853700 -31.032700
O -15.349200 -11.024700 -18.641100
C -15.338300 -12.352600 -23.388400
C -15.010200 -12.845800 -24.752700
C -14.649800 -14.450800 -28.998700
C -14.636800 -14.033200 -27.685200
C -14.604100 -11.752700 -21.159100
C -14.331000 -12.226500 -22.429200
H -13.913400 -11.671900 -20.510700
H -13.822900 -14.041100 -27.195200
H -13.644100 -15.240300 -30.298800
C -13.600200 -12.958400 -25.019700
O -13.482900 -14.878700 -29.558000
H -13.440800 -12.471200 -22.654500
N -12.462100 -13.005400 -25.171500
34
Fragment
H -16.714300 -11.124500 -12.761800
H -16.698700 -8.365300 -4.670600
H -16.694600 -10.448000 -10.530300
H -16.402800 -12.715000 -14.495800
H -16.242000 -11.197000 -14.976500
H -16.224400 -9.182600 -6.806000
O -16.167700 -7.466700 -2.448500
C -15.900600 -11.126100 -12.270300
C -15.882900 -10.719200 -10.943000
C -15.812600 -8.614300 -4.905400
C -15.802300 -12.071600 -14.926800
H -15.712600 -10.116600 -8.531500
H -15.588300 -12.380900 -15.831700
C -15.526000 -9.095200 -6.168700
N -15.077700 -7.996100 -2.649000
C -14.816500 -10.237400 -8.823100
C -14.781300 -8.502700 -3.987100
C -14.723900 -11.534300 -12.872000
C -14.698000 -10.699200 -10.199500
O -14.599200 -11.957100 -14.165400
O -14.226900 -8.128200 -1.773800
C -14.216000 -9.456100 -6.521100
C -13.887800 -9.949300 -7.885300
C -13.527500 -11.554200 -12.131300
C -13.514500 -11.136600 -10.817900
C -13.481700 -8.856200 -4.291700
C -13.208700 -9.329900 -5.561800
H -12.791100 -8.775300 -3.643300
H -12.700600 -11.144600 -10.327900
H -12.521800 -12.343700 -13.431500
C -12.477900 -10.061800 -8.152300
O -12.360600 -11.982200 -12.690600
H -12.318500 -9.574600 -5.787200
N -11.339800 -10.108800 -8.304100
68
Fragment
H -17.836600 -14.021000 -29.629200
H -17.821100 -11.261800 -21.537900
H -17.816900 -13.344600 -27.397600
H -17.525100 -15.611600 -31.363100
H -17.364300 -14.093600 -31.843900
H -17.346800 -12.079100 -23.673300
O -17.290000 -10.363300 -19.315800
C -17.023000 -14.022600 -29.137700
C -17.005200 -13.615700 -27.810400
C -16.935000 -11.510900 -21.772700
C -16.924600 -14.968100 -31.794100
H -16.834900 -13.013100 -25.398800
H -16.710600 -15.277400 -32.699000
C -16.648300 -11.991800 -23.036100
N -16.200000 -10.892600 -19.516400
C -15.938800 -13.133900 -25.690500
C -15.903600 -11.399300 -20.854400
C -15.846200 -14.430800 -29.739300
C -15.820300 -13.595800 -27.066900
O -15.721500 -14.853700 -31.032700
O -15.349200 -11.024700 -18.641100
C -15.338300 -12.352600 -23.388400
C -15.010200 -12.845800 -24.752700
C -14.649800 -14.450800 -28.998700
C -14.636800 -14.033200 -27.685200
C -14.604100 -11.752700 -21.159100
C -14.331000 -12.226500 -22.429200
H -13.913400 -11.671900 -20.510700
H -13.822900 -14.041100 -27.195200
H -13.644100 -15.240300 -30.298800
C -13.600200 -12.958400 -25.019700
O -13.482900 -14.878700 -29.558000
H -13.440800 -12.471200 -22.654500
N -12.462100 -13.005400 -25.171500
H -16.714300 -11.124500 -12.761800
H -16.698700 -8.365300 -4.670600
H -16.694600 -10.448000 -10.530300
H -16.402800 -12.715000 -14.495800
H -16.242000 -11.197000 -14.976500
H -16.224400 -9.182600 -6.806000
O -16.167700 -7.466700 -2.448500
C -15.900600 -11.126100 -12.270300
C -15.882900 -10.719200 -10.943000
C -15.812600 -8.614300 -4.905400
C -15.802300 -12.071600 -14.926800
H -15.712600 -10.116600 -8.531500
H -15.588300 -12.380900 -15.831700
C -15.526000 -9.095200 -6.168700
N -15.077700 -7.996100 -2.649000
C -14.816500 -10.237400 -8.823100
C -14.781300 -8.502700 -3.987100
C -14.723900 -11.534300 -12.872000
C -14.698000 -10.699200 -10.199500
O -14.599200 -11.957100 -14.165400
O -14.226900 -8.128200 -1.773800
C -14.216000 -9.456100 -6.521100
C -13.887800 -9.949300 -7.885300
C -13.527500 -11.554200 -12.131300
C -13.514500 -11.136600 -10.817900
C -13.481700 -8.856200 -4.291700
C -13.208700 -9.329900 -5.561800
H -12.791100 -8.775300 -3.643300
H -12.700600 -11.144600 -10.327900
H -12.521800 -12.343700 -13.431500
C -12.477900 -10.061800 -8.152300
O -12.360600 -11.982200 -12.690600
H -12.318500 -9.574600 -5.787200
N -11.339800 -10.108800 -8.304100
