34
Fragment
H -17.836600 -14.021000 -29.629200
H -17.821100 -11.261800 -21.537900
H -17.816900 -13.344600 -27.397600
H -17.525100 -15.611600 -31.363100
H -17.364300 -14.093600 -31.843900
H -17.346800 -12.079100 -23.673300
O -17.290000 -10.363300 -19.315800
C -17.023000 -14.022600 -29.137700
C -17.005200 -13.615700 -27.810400
C -16.935000 -11.510900 -21.772700
C -16.924600 -14.968100 -31.794100
H -16.834900 -13.013100 -25.398800
H -16.710600 -15.277400 -32.699000
C -16.648300 -11.991800 -23.036100
N -16.200000 -10.892600 -19.516400
C -15.938800 -13.133900 -25.690500
C -15.903600 -11.399300 -20.854400
C -15.846200 -14.430800 -29.739300
C -15.820300 -13.595800 -27.066900
O -15.721500 -14.853700 -31.032700
O -15.349200 -11.024700 -18.641100
C -15.338300 -12.352600 -23.388400
C -15.010200 -12.845800 -24.752700
C -14.649800 -14.450800 -28.998700
C -14.636800 -14.033200 -27.685200
C -14.604100 -11.752700 -21.159100
C -14.331000 -12.226500 -22.429200
H -13.913400 -11.671900 -20.510700
H -13.822900 -14.041100 -27.195200
H -13.644100 -15.240300 -30.298800
C -13.600200 -12.958400 -25.019700
O -13.482900 -14.878700 -29.558000
H -13.440800 -12.471200 -22.654500
N -12.462100 -13.005400 -25.171500
6
Fragment
H -19.947800 -10.320100 -17.402000
H -19.947200 -11.388900 -16.211200
C -19.450500 -11.056100 -16.987800
C -19.282300 -12.133200 -17.953800
N -19.154400 -12.974400 -18.715300
H -18.570800 -10.734700 -16.700400
40
Fragment
H -17.836600 -14.021000 -29.629200
H -17.821100 -11.261800 -21.537900
H -17.816900 -13.344600 -27.397600
H -17.525100 -15.611600 -31.363100
H -17.364300 -14.093600 -31.843900
H -17.346800 -12.079100 -23.673300
O -17.290000 -10.363300 -19.315800
C -17.023000 -14.022600 -29.137700
C -17.005200 -13.615700 -27.810400
C -16.935000 -11.510900 -21.772700
C -16.924600 -14.968100 -31.794100
H -16.834900 -13.013100 -25.398800
H -16.710600 -15.277400 -32.699000
C -16.648300 -11.991800 -23.036100
N -16.200000 -10.892600 -19.516400
C -15.938800 -13.133900 -25.690500
C -15.903600 -11.399300 -20.854400
C -15.846200 -14.430800 -29.739300
C -15.820300 -13.595800 -27.066900
O -15.721500 -14.853700 -31.032700
O -15.349200 -11.024700 -18.641100
C -15.338300 -12.352600 -23.388400
C -15.010200 -12.845800 -24.752700
C -14.649800 -14.450800 -28.998700
C -14.636800 -14.033200 -27.685200
C -14.604100 -11.752700 -21.159100
C -14.331000 -12.226500 -22.429200
H -13.913400 -11.671900 -20.510700
H -13.822900 -14.041100 -27.195200
H -13.644100 -15.240300 -30.298800
C -13.600200 -12.958400 -25.019700
O -13.482900 -14.878700 -29.558000
H -13.440800 -12.471200 -22.654500
N -12.462100 -13.005400 -25.171500
H -19.947800 -10.320100 -17.402000
H -19.947200 -11.388900 -16.211200
C -19.450500 -11.056100 -16.987800
C -19.282300 -12.133200 -17.953800
N -19.154400 -12.974400 -18.715300
H -18.570800 -10.734700 -16.700400
