16
Fragment
H -25.547000 -9.911600 -23.295600
H -24.883300 -11.999300 -24.201300
C -24.591400 -10.216800 -23.268100
N -24.301000 -11.432700 -23.806000
N -23.518900 -9.633000 -22.781700
C -22.957800 -11.653800 -23.660200
H -22.905500 -13.626000 -24.201300
C -22.483300 -10.525400 -23.031100
C -22.300000 -12.904200 -24.120600
H -21.867000 -12.802800 -24.995900
H -21.591000 -13.165000 -23.554200
H -21.578400 -8.614200 -21.676200
C -21.100800 -10.243900 -22.632700
N -20.891600 -9.138900 -21.922100
O -20.164400 -11.016500 -22.962900
H -20.082700 -9.009400 -21.579400
16
Fragment
H -24.987300 -12.302300 -28.981500
O -24.905600 -14.309400 -27.598000
N -24.178400 -12.431800 -28.638900
C -23.969200 -13.536800 -27.928300
H -23.491500 -11.907100 -28.884700
H -23.478900 -16.457900 -27.006700
H -23.203000 -16.095700 -25.565000
C -22.769900 -16.197100 -26.440300
C -22.586700 -13.818300 -27.529800
H -22.164400 -16.918900 -26.359600
C -22.112100 -14.946700 -26.900700
N -21.551000 -12.925900 -27.779200
N -20.768900 -14.725600 -26.755000
C -20.478500 -13.509700 -27.292800
H -20.186600 -15.292200 -26.359600
H -19.523000 -13.204500 -27.265300
32
Fragment
H -25.547000 -9.911600 -23.295600
H -24.883300 -11.999300 -24.201300
C -24.591400 -10.216800 -23.268100
N -24.301000 -11.432700 -23.806000
N -23.518900 -9.633000 -22.781700
C -22.957800 -11.653800 -23.660200
H -22.905500 -13.626000 -24.201300
C -22.483300 -10.525400 -23.031100
C -22.300000 -12.904200 -24.120600
H -21.867000 -12.802800 -24.995900
H -21.591000 -13.165000 -23.554200
H -21.578400 -8.614200 -21.676200
C -21.100800 -10.243900 -22.632700
N -20.891600 -9.138900 -21.922100
O -20.164400 -11.016500 -22.962900
H -20.082700 -9.009400 -21.579400
H -24.987300 -12.302300 -28.981500
O -24.905600 -14.309400 -27.598000
N -24.178400 -12.431800 -28.638900
C -23.969200 -13.536800 -27.928300
H -23.491500 -11.907100 -28.884700
H -23.478900 -16.457900 -27.006700
H -23.203000 -16.095700 -25.565000
C -22.769900 -16.197100 -26.440300
C -22.586700 -13.818300 -27.529800
H -22.164400 -16.918900 -26.359600
C -22.112100 -14.946700 -26.900700
N -21.551000 -12.925900 -27.779200
N -20.768900 -14.725600 -26.755000
C -20.478500 -13.509700 -27.292800
H -20.186600 -15.292200 -26.359600
H -19.523000 -13.204500 -27.265300
