16
Fragment
H -25.547000 -9.911600 -23.295600
H -24.883300 -11.999300 -24.201300
C -24.591400 -10.216800 -23.268100
N -24.301000 -11.432700 -23.806000
N -23.518900 -9.633000 -22.781700
C -22.957800 -11.653800 -23.660200
H -22.905500 -13.626000 -24.201300
C -22.483300 -10.525400 -23.031100
C -22.300000 -12.904200 -24.120600
H -21.867000 -12.802800 -24.995900
H -21.591000 -13.165000 -23.554200
H -21.578400 -8.614200 -21.676200
C -21.100800 -10.243900 -22.632700
N -20.891600 -9.138900 -21.922100
O -20.164400 -11.016500 -22.962900
H -20.082700 -9.009400 -21.579400
16
Fragment
H -32.545400 -6.618700 -23.295600
H -31.881700 -8.706400 -24.201300
C -31.589800 -6.923900 -23.268100
N -31.299400 -8.139800 -23.806000
N -30.517300 -6.340100 -22.781700
C -29.956200 -8.360900 -23.660200
H -29.903900 -10.333100 -24.201300
C -29.481700 -7.232500 -23.031100
C -29.298400 -9.611300 -24.120600
H -28.865400 -9.509900 -24.995900
H -28.589400 -9.872100 -23.554200
H -28.576800 -5.321300 -21.676200
C -28.099200 -6.951000 -22.632700
N -27.890000 -5.846000 -21.922100
O -27.162800 -7.723600 -22.962900
H -27.081100 -5.716500 -21.579400
32
Fragment
H -25.547000 -9.911600 -23.295600
H -24.883300 -11.999300 -24.201300
C -24.591400 -10.216800 -23.268100
N -24.301000 -11.432700 -23.806000
N -23.518900 -9.633000 -22.781700
C -22.957800 -11.653800 -23.660200
H -22.905500 -13.626000 -24.201300
C -22.483300 -10.525400 -23.031100
C -22.300000 -12.904200 -24.120600
H -21.867000 -12.802800 -24.995900
H -21.591000 -13.165000 -23.554200
H -21.578400 -8.614200 -21.676200
C -21.100800 -10.243900 -22.632700
N -20.891600 -9.138900 -21.922100
O -20.164400 -11.016500 -22.962900
H -20.082700 -9.009400 -21.579400
H -32.545400 -6.618700 -23.295600
H -31.881700 -8.706400 -24.201300
C -31.589800 -6.923900 -23.268100
N -31.299400 -8.139800 -23.806000
N -30.517300 -6.340100 -22.781700
C -29.956200 -8.360900 -23.660200
H -29.903900 -10.333100 -24.201300
C -29.481700 -7.232500 -23.031100
C -29.298400 -9.611300 -24.120600
H -28.865400 -9.509900 -24.995900
H -28.589400 -9.872100 -23.554200
H -28.576800 -5.321300 -21.676200
C -28.099200 -6.951000 -22.632700
N -27.890000 -5.846000 -21.922100
O -27.162800 -7.723600 -22.962900
H -27.081100 -5.716500 -21.579400
