16
Fragment
H -25.547000 -9.911600 -23.295600
H -24.883300 -11.999300 -24.201300
C -24.591400 -10.216800 -23.268100
N -24.301000 -11.432700 -23.806000
N -23.518900 -9.633000 -22.781700
C -22.957800 -11.653800 -23.660200
H -22.905500 -13.626000 -24.201300
C -22.483300 -10.525400 -23.031100
C -22.300000 -12.904200 -24.120600
H -21.867000 -12.802800 -24.995900
H -21.591000 -13.165000 -23.554200
H -21.578400 -8.614200 -21.676200
C -21.100800 -10.243900 -22.632700
N -20.891600 -9.138900 -21.922100
O -20.164400 -11.016500 -22.962900
H -20.082700 -9.009400 -21.579400
16
Fragment
H -25.547100 -7.455100 -21.758500
O -25.465400 -5.448000 -20.375000
N -24.738200 -7.325600 -21.415900
C -24.529000 -6.220600 -20.705300
H -24.051400 -7.850300 -21.661700
H -24.038800 -3.299500 -19.783800
H -23.762800 -3.661700 -18.342100
C -23.329800 -3.560300 -19.217300
C -23.146500 -5.939100 -20.306800
H -22.724200 -2.838500 -19.136600
C -22.671900 -4.810700 -19.677700
N -22.110900 -6.831500 -20.556200
N -21.328800 -5.031800 -19.532000
C -21.038400 -6.247700 -20.069800
H -20.746500 -4.465200 -19.136600
H -20.082800 -6.552900 -20.042300
32
Fragment
H -25.547000 -9.911600 -23.295600
H -24.883300 -11.999300 -24.201300
C -24.591400 -10.216800 -23.268100
N -24.301000 -11.432700 -23.806000
N -23.518900 -9.633000 -22.781700
C -22.957800 -11.653800 -23.660200
H -22.905500 -13.626000 -24.201300
C -22.483300 -10.525400 -23.031100
C -22.300000 -12.904200 -24.120600
H -21.867000 -12.802800 -24.995900
H -21.591000 -13.165000 -23.554200
H -21.578400 -8.614200 -21.676200
C -21.100800 -10.243900 -22.632700
N -20.891600 -9.138900 -21.922100
O -20.164400 -11.016500 -22.962900
H -20.082700 -9.009400 -21.579400
H -25.547100 -7.455100 -21.758500
O -25.465400 -5.448000 -20.375000
N -24.738200 -7.325600 -21.415900
C -24.529000 -6.220600 -20.705300
H -24.051400 -7.850300 -21.661700
H -24.038800 -3.299500 -19.783800
H -23.762800 -3.661700 -18.342100
C -23.329800 -3.560300 -19.217300
C -23.146500 -5.939100 -20.306800
H -22.724200 -2.838500 -19.136600
C -22.671900 -4.810700 -19.677700
N -22.110900 -6.831500 -20.556200
N -21.328800 -5.031800 -19.532000
C -21.038400 -6.247700 -20.069800
H -20.746500 -4.465200 -19.136600
H -20.082800 -6.552900 -20.042300
