15
Fragment
H -10.341900 -4.436700 -27.198800
H -10.306600 -3.539400 -25.928400
N -9.986800 -4.205300 -26.382900
N -9.806900 -3.061300 -23.668000
O -9.800200 -2.269200 -22.489700
C -9.089900 -5.023400 -25.807500
C -8.870900 -3.938600 -23.472300
C -8.838300 -2.736800 -21.636700
O -8.621900 -2.229300 -20.564300
C -8.550800 -4.926700 -24.482100
N -8.546900 -6.061300 -26.397200
N -8.256600 -3.794100 -22.266900
N -7.688800 -5.880800 -24.283800
O -7.658700 -6.601100 -25.447900
H -7.626400 -4.302100 -21.906500
3
Fragment
H -7.470100 -4.337000 -29.102700
O -7.077500 -4.994500 -29.444300
H -6.867900 -4.780600 -30.227700
18
Fragment
H -10.341900 -4.436700 -27.198800
H -10.306600 -3.539400 -25.928400
N -9.986800 -4.205300 -26.382900
N -9.806900 -3.061300 -23.668000
O -9.800200 -2.269200 -22.489700
C -9.089900 -5.023400 -25.807500
C -8.870900 -3.938600 -23.472300
C -8.838300 -2.736800 -21.636700
O -8.621900 -2.229300 -20.564300
C -8.550800 -4.926700 -24.482100
N -8.546900 -6.061300 -26.397200
N -8.256600 -3.794100 -22.266900
N -7.688800 -5.880800 -24.283800
O -7.658700 -6.601100 -25.447900
H -7.626400 -4.302100 -21.906500
H -7.470100 -4.337000 -29.102700
O -7.077500 -4.994500 -29.444300
H -6.867900 -4.780600 -30.227700
