15
Fragment
H -10.341900 -4.436700 -27.198800
H -10.306600 -3.539400 -25.928400
N -9.986800 -4.205300 -26.382900
N -9.806900 -3.061300 -23.668000
O -9.800200 -2.269200 -22.489700
C -9.089900 -5.023400 -25.807500
C -8.870900 -3.938600 -23.472300
C -8.838300 -2.736800 -21.636700
O -8.621900 -2.229300 -20.564300
C -8.550800 -4.926700 -24.482100
N -8.546900 -6.061300 -26.397200
N -8.256600 -3.794100 -22.266900
N -7.688800 -5.880800 -24.283800
O -7.658700 -6.601100 -25.447900
H -7.626400 -4.302100 -21.906500
15
Fragment
H -14.349100 -5.667900 -28.241900
O -14.316700 -3.368900 -24.700400
N -14.286600 -4.089200 -25.864500
N -13.718800 -6.175900 -27.881500
N -13.428500 -3.908700 -23.751100
C -13.424700 -5.043300 -25.666300
O -13.353600 -7.740700 -29.584000
C -13.137100 -7.233200 -28.511700
C -13.104600 -6.031400 -26.676100
C -12.885500 -4.946600 -24.340800
O -12.175300 -7.700800 -27.658600
N -12.168600 -6.908700 -26.480300
N -11.988700 -5.764700 -23.765500
H -11.668900 -6.430600 -24.220000
H -11.633500 -5.533400 -22.949500
30
Fragment
H -10.341900 -4.436700 -27.198800
H -10.306600 -3.539400 -25.928400
N -9.986800 -4.205300 -26.382900
N -9.806900 -3.061300 -23.668000
O -9.800200 -2.269200 -22.489700
C -9.089900 -5.023400 -25.807500
C -8.870900 -3.938600 -23.472300
C -8.838300 -2.736800 -21.636700
O -8.621900 -2.229300 -20.564300
C -8.550800 -4.926700 -24.482100
N -8.546900 -6.061300 -26.397200
N -8.256600 -3.794100 -22.266900
N -7.688800 -5.880800 -24.283800
O -7.658700 -6.601100 -25.447900
H -7.626400 -4.302100 -21.906500
H -14.349100 -5.667900 -28.241900
O -14.316700 -3.368900 -24.700400
N -14.286600 -4.089200 -25.864500
N -13.718800 -6.175900 -27.881500
N -13.428500 -3.908700 -23.751100
C -13.424700 -5.043300 -25.666300
O -13.353600 -7.740700 -29.584000
C -13.137100 -7.233200 -28.511700
C -13.104600 -6.031400 -26.676100
C -12.885500 -4.946600 -24.340800
O -12.175300 -7.700800 -27.658600
N -12.168600 -6.908700 -26.480300
N -11.988700 -5.764700 -23.765500
H -11.668900 -6.430600 -24.220000
H -11.633500 -5.533400 -22.949500
