44
Fragment
H -10.500900 -65.866200 -13.350000
H -10.288700 -74.567900 -5.759100
H -10.135200 -61.762900 -12.149900
H -10.127700 -72.283900 -5.326200
C -10.077100 -65.680400 -12.543600
H -10.024900 -67.572700 -11.904200
O -10.023700 -63.441600 -13.174300
C -9.961800 -73.993900 -6.412900
H -9.918300 -61.541400 -13.686900
C -9.870100 -72.613100 -6.156600
C -9.796600 -66.698600 -11.674700
C -9.731600 -64.373000 -12.227700
C -9.671100 -62.078100 -12.929500
H -9.639500 -75.397300 -7.764600
C -9.575500 -74.481100 -7.607200
C -9.410500 -71.756400 -7.107000
H -9.395500 -69.148900 -10.688800
H -9.369300 -70.846700 -6.917900
C -9.176100 -66.452400 -10.455500
C -9.116600 -64.105900 -11.021000
C -9.072900 -73.636500 -8.633400
C -8.988800 -72.223100 -8.388600
C -8.967100 -68.940000 -9.890100
H -8.885300 -63.234900 -10.794400
C -8.850600 -65.138900 -10.157000
C -8.822400 -67.519300 -9.496500
H -8.734900 -75.049900 -10.019700
H -8.724600 -62.014700 -12.786400
C -8.683200 -74.133700 -9.868000
C -8.544400 -71.363400 -9.419700
C -8.503100 -69.920500 -9.135500
H -8.437900 -64.950000 -9.344800
O -8.381700 -67.240500 -8.389600
C -8.218000 -73.313500 -10.886600
C -8.142500 -71.891400 -10.671500
H -8.104600 -69.670000 -8.333900
H -7.837900 -74.754600 -12.291100
C -7.794000 -73.839300 -12.145100
C -7.613400 -71.099000 -11.731400
H -7.527200 -70.182300 -11.611400
C -7.331400 -73.039900 -13.125300
C -7.232600 -71.652200 -12.910300
H -7.077100 -73.404200 -13.943300
H -6.902100 -71.107200 -13.587100
44
Fragment
H -10.361400 -86.109400 -18.150000
H -10.149300 -77.407700 -10.559200
H -9.995700 -90.212700 -16.950000
H -9.988200 -79.691700 -10.126200
C -9.937600 -86.295200 -17.343600
H -9.885400 -84.402900 -16.704300
O -9.884300 -88.534000 -17.974400
C -9.822400 -77.981700 -11.213000
H -9.778900 -90.434200 -18.487000
C -9.730600 -79.362500 -10.956700
C -9.657100 -85.277000 -16.474800
C -9.592200 -87.602600 -17.027800
C -9.531700 -89.897500 -17.729600
H -9.500000 -76.578300 -12.564700
C -9.436000 -77.494500 -12.407200
C -9.271100 -80.219200 -11.907100
H -9.256000 -82.826700 -15.488900
H -9.229900 -81.128900 -11.717900
C -9.036600 -85.523200 -15.255600
C -8.977200 -87.869700 -15.821000
C -8.933400 -78.339100 -13.433500
C -8.849300 -79.752500 -13.188700
C -8.827600 -83.035600 -14.690100
H -8.745900 -88.740700 -15.594500
C -8.711200 -86.836700 -14.957000
C -8.682900 -84.456300 -14.296500
H -8.595500 -76.925700 -14.819800
H -8.585200 -89.960900 -17.586500
C -8.543700 -77.841900 -14.668100
C -8.405000 -80.612200 -14.219700
C -8.363600 -82.055100 -13.935600
H -8.298400 -87.025600 -14.144900
O -8.242300 -84.735100 -13.189600
C -8.078500 -78.662100 -15.686600
C -8.003100 -80.084200 -15.471600
H -7.965200 -82.305600 -13.134000
H -7.698500 -77.221000 -17.091100
C -7.654600 -78.136300 -16.945200
C -7.474000 -80.876600 -16.531500
H -7.387700 -81.793300 -16.411500
C -7.192000 -78.935700 -17.925400
C -7.093100 -80.323400 -17.710400
H -6.937600 -78.571400 -18.743300
H -6.762700 -80.868400 -18.387200
88
Fragment
H -10.500900 -65.866200 -13.350000
H -10.288700 -74.567900 -5.759100
H -10.135200 -61.762900 -12.149900
H -10.127700 -72.283900 -5.326200
C -10.077100 -65.680400 -12.543600
H -10.024900 -67.572700 -11.904200
O -10.023700 -63.441600 -13.174300
C -9.961800 -73.993900 -6.412900
H -9.918300 -61.541400 -13.686900
C -9.870100 -72.613100 -6.156600
C -9.796600 -66.698600 -11.674700
C -9.731600 -64.373000 -12.227700
C -9.671100 -62.078100 -12.929500
H -9.639500 -75.397300 -7.764600
C -9.575500 -74.481100 -7.607200
C -9.410500 -71.756400 -7.107000
H -9.395500 -69.148900 -10.688800
H -9.369300 -70.846700 -6.917900
C -9.176100 -66.452400 -10.455500
C -9.116600 -64.105900 -11.021000
C -9.072900 -73.636500 -8.633400
C -8.988800 -72.223100 -8.388600
C -8.967100 -68.940000 -9.890100
H -8.885300 -63.234900 -10.794400
C -8.850600 -65.138900 -10.157000
C -8.822400 -67.519300 -9.496500
H -8.734900 -75.049900 -10.019700
H -8.724600 -62.014700 -12.786400
C -8.683200 -74.133700 -9.868000
C -8.544400 -71.363400 -9.419700
C -8.503100 -69.920500 -9.135500
H -8.437900 -64.950000 -9.344800
O -8.381700 -67.240500 -8.389600
C -8.218000 -73.313500 -10.886600
C -8.142500 -71.891400 -10.671500
H -8.104600 -69.670000 -8.333900
H -7.837900 -74.754600 -12.291100
C -7.794000 -73.839300 -12.145100
C -7.613400 -71.099000 -11.731400
H -7.527200 -70.182300 -11.611400
C -7.331400 -73.039900 -13.125300
C -7.232600 -71.652200 -12.910300
H -7.077100 -73.404200 -13.943300
H -6.902100 -71.107200 -13.587100
H -10.361400 -86.109400 -18.150000
H -10.149300 -77.407700 -10.559200
H -9.995700 -90.212700 -16.950000
H -9.988200 -79.691700 -10.126200
C -9.937600 -86.295200 -17.343600
H -9.885400 -84.402900 -16.704300
O -9.884300 -88.534000 -17.974400
C -9.822400 -77.981700 -11.213000
H -9.778900 -90.434200 -18.487000
C -9.730600 -79.362500 -10.956700
C -9.657100 -85.277000 -16.474800
C -9.592200 -87.602600 -17.027800
C -9.531700 -89.897500 -17.729600
H -9.500000 -76.578300 -12.564700
C -9.436000 -77.494500 -12.407200
C -9.271100 -80.219200 -11.907100
H -9.256000 -82.826700 -15.488900
H -9.229900 -81.128900 -11.717900
C -9.036600 -85.523200 -15.255600
C -8.977200 -87.869700 -15.821000
C -8.933400 -78.339100 -13.433500
C -8.849300 -79.752500 -13.188700
C -8.827600 -83.035600 -14.690100
H -8.745900 -88.740700 -15.594500
C -8.711200 -86.836700 -14.957000
C -8.682900 -84.456300 -14.296500
H -8.595500 -76.925700 -14.819800
H -8.585200 -89.960900 -17.586500
C -8.543700 -77.841900 -14.668100
C -8.405000 -80.612200 -14.219700
C -8.363600 -82.055100 -13.935600
H -8.298400 -87.025600 -14.144900
O -8.242300 -84.735100 -13.189600
C -8.078500 -78.662100 -15.686600
C -8.003100 -80.084200 -15.471600
H -7.965200 -82.305600 -13.134000
H -7.698500 -77.221000 -17.091100
C -7.654600 -78.136300 -16.945200
C -7.474000 -80.876600 -16.531500
H -7.387700 -81.793300 -16.411500
C -7.192000 -78.935700 -17.925400
C -7.093100 -80.323400 -17.710400
H -6.937600 -78.571400 -18.743300
H -6.762700 -80.868400 -18.387200
