44
Fragment
H -10.500900 -65.866200 -13.350000
H -10.288700 -74.567900 -5.759100
H -10.135200 -61.762900 -12.149900
H -10.127700 -72.283900 -5.326200
C -10.077100 -65.680400 -12.543600
H -10.024900 -67.572700 -11.904200
O -10.023700 -63.441600 -13.174300
C -9.961800 -73.993900 -6.412900
H -9.918300 -61.541400 -13.686900
C -9.870100 -72.613100 -6.156600
C -9.796600 -66.698600 -11.674700
C -9.731600 -64.373000 -12.227700
C -9.671100 -62.078100 -12.929500
H -9.639500 -75.397300 -7.764600
C -9.575500 -74.481100 -7.607200
C -9.410500 -71.756400 -7.107000
H -9.395500 -69.148900 -10.688800
H -9.369300 -70.846700 -6.917900
C -9.176100 -66.452400 -10.455500
C -9.116600 -64.105900 -11.021000
C -9.072900 -73.636500 -8.633400
C -8.988800 -72.223100 -8.388600
C -8.967100 -68.940000 -9.890100
H -8.885300 -63.234900 -10.794400
C -8.850600 -65.138900 -10.157000
C -8.822400 -67.519300 -9.496500
H -8.734900 -75.049900 -10.019700
H -8.724600 -62.014700 -12.786400
C -8.683200 -74.133700 -9.868000
C -8.544400 -71.363400 -9.419700
C -8.503100 -69.920500 -9.135500
H -8.437900 -64.950000 -9.344800
O -8.381700 -67.240500 -8.389600
C -8.218000 -73.313500 -10.886600
C -8.142500 -71.891400 -10.671500
H -8.104600 -69.670000 -8.333900
H -7.837900 -74.754600 -12.291100
C -7.794000 -73.839300 -12.145100
C -7.613400 -71.099000 -11.731400
H -7.527200 -70.182300 -11.611400
C -7.331400 -73.039900 -13.125300
C -7.232600 -71.652200 -12.910300
H -7.077100 -73.404200 -13.943300
H -6.902100 -71.107200 -13.587100
44
Fragment
H -14.149500 -59.157600 -15.213400
H -13.974500 -56.860600 -14.857200
C -13.819000 -58.612600 -15.890200
C -13.720200 -57.224900 -15.675100
H -13.524500 -60.082500 -17.189100
C -13.438200 -59.165800 -17.069100
C -13.257600 -56.425500 -16.655300
H -13.213700 -55.510200 -16.509400
H -12.947000 -60.594800 -20.466600
C -12.909100 -58.373400 -18.128900
C -12.833600 -56.951300 -17.913900
O -12.669900 -63.024300 -20.410900
H -12.613700 -65.314800 -19.455700
C -12.548600 -60.344300 -19.664900
C -12.507200 -58.901400 -19.380800
C -12.368500 -56.131100 -18.932500
H -12.327000 -68.250100 -16.014000
H -12.316700 -55.214900 -18.780800
C -12.229300 -62.745500 -19.304000
C -12.201000 -65.125900 -18.643500
H -12.166300 -67.029900 -18.006000
C -12.084600 -61.324800 -18.910400
C -12.062800 -58.041700 -20.411800
C -11.978800 -56.628300 -20.167000
C -11.935000 -66.158900 -17.779500
C -11.875500 -63.812400 -18.344900
H -11.682300 -59.418100 -21.882600
H -11.656100 -61.115900 -18.111600
C -11.641100 -58.508400 -21.693500
C -11.476200 -55.783700 -21.193300
H -11.412100 -54.867500 -21.035800
C -11.380500 -68.186700 -15.871000
C -11.320000 -65.891800 -16.572700
C -11.255000 -63.566200 -17.125700
C -11.181600 -57.651700 -22.643900
H -11.133300 -68.723400 -15.113500
C -11.089800 -56.270900 -22.387500
O -11.027900 -66.823200 -15.626200
H -11.026800 -62.692100 -16.896300
C -10.974600 -64.584400 -16.256900
H -10.924000 -57.980900 -23.474300
H -10.916500 -68.501900 -16.650500
H -10.762900 -55.696900 -23.041300
H -10.550800 -64.398600 -15.450500
88
Fragment
H -10.500900 -65.866200 -13.350000
H -10.288700 -74.567900 -5.759100
H -10.135200 -61.762900 -12.149900
H -10.127700 -72.283900 -5.326200
C -10.077100 -65.680400 -12.543600
H -10.024900 -67.572700 -11.904200
O -10.023700 -63.441600 -13.174300
C -9.961800 -73.993900 -6.412900
H -9.918300 -61.541400 -13.686900
C -9.870100 -72.613100 -6.156600
C -9.796600 -66.698600 -11.674700
C -9.731600 -64.373000 -12.227700
C -9.671100 -62.078100 -12.929500
H -9.639500 -75.397300 -7.764600
C -9.575500 -74.481100 -7.607200
C -9.410500 -71.756400 -7.107000
H -9.395500 -69.148900 -10.688800
H -9.369300 -70.846700 -6.917900
C -9.176100 -66.452400 -10.455500
C -9.116600 -64.105900 -11.021000
C -9.072900 -73.636500 -8.633400
C -8.988800 -72.223100 -8.388600
C -8.967100 -68.940000 -9.890100
H -8.885300 -63.234900 -10.794400
C -8.850600 -65.138900 -10.157000
C -8.822400 -67.519300 -9.496500
H -8.734900 -75.049900 -10.019700
H -8.724600 -62.014700 -12.786400
C -8.683200 -74.133700 -9.868000
C -8.544400 -71.363400 -9.419700
C -8.503100 -69.920500 -9.135500
H -8.437900 -64.950000 -9.344800
O -8.381700 -67.240500 -8.389600
C -8.218000 -73.313500 -10.886600
C -8.142500 -71.891400 -10.671500
H -8.104600 -69.670000 -8.333900
H -7.837900 -74.754600 -12.291100
C -7.794000 -73.839300 -12.145100
C -7.613400 -71.099000 -11.731400
H -7.527200 -70.182300 -11.611400
C -7.331400 -73.039900 -13.125300
C -7.232600 -71.652200 -12.910300
H -7.077100 -73.404200 -13.943300
H -6.902100 -71.107200 -13.587100
H -14.149500 -59.157600 -15.213400
H -13.974500 -56.860600 -14.857200
C -13.819000 -58.612600 -15.890200
C -13.720200 -57.224900 -15.675100
H -13.524500 -60.082500 -17.189100
C -13.438200 -59.165800 -17.069100
C -13.257600 -56.425500 -16.655300
H -13.213700 -55.510200 -16.509400
H -12.947000 -60.594800 -20.466600
C -12.909100 -58.373400 -18.128900
C -12.833600 -56.951300 -17.913900
O -12.669900 -63.024300 -20.410900
H -12.613700 -65.314800 -19.455700
C -12.548600 -60.344300 -19.664900
C -12.507200 -58.901400 -19.380800
C -12.368500 -56.131100 -18.932500
H -12.327000 -68.250100 -16.014000
H -12.316700 -55.214900 -18.780800
C -12.229300 -62.745500 -19.304000
C -12.201000 -65.125900 -18.643500
H -12.166300 -67.029900 -18.006000
C -12.084600 -61.324800 -18.910400
C -12.062800 -58.041700 -20.411800
C -11.978800 -56.628300 -20.167000
C -11.935000 -66.158900 -17.779500
C -11.875500 -63.812400 -18.344900
H -11.682300 -59.418100 -21.882600
H -11.656100 -61.115900 -18.111600
C -11.641100 -58.508400 -21.693500
C -11.476200 -55.783700 -21.193300
H -11.412100 -54.867500 -21.035800
C -11.380500 -68.186700 -15.871000
C -11.320000 -65.891800 -16.572700
C -11.255000 -63.566200 -17.125700
C -11.181600 -57.651700 -22.643900
H -11.133300 -68.723400 -15.113500
C -11.089800 -56.270900 -22.387500
O -11.027900 -66.823200 -15.626200
H -11.026800 -62.692100 -16.896300
C -10.974600 -64.584400 -16.256900
H -10.924000 -57.980900 -23.474300
H -10.916500 -68.501900 -16.650500
H -10.762900 -55.696900 -23.041300
H -10.550800 -64.398600 -15.450500
