44
Fragment
H -10.500900 -65.866200 -13.350000
H -10.288700 -74.567900 -5.759100
H -10.135200 -61.762900 -12.149900
H -10.127700 -72.283900 -5.326200
C -10.077100 -65.680400 -12.543600
H -10.024900 -67.572700 -11.904200
O -10.023700 -63.441600 -13.174300
C -9.961800 -73.993900 -6.412900
H -9.918300 -61.541400 -13.686900
C -9.870100 -72.613100 -6.156600
C -9.796600 -66.698600 -11.674700
C -9.731600 -64.373000 -12.227700
C -9.671100 -62.078100 -12.929500
H -9.639500 -75.397300 -7.764600
C -9.575500 -74.481100 -7.607200
C -9.410500 -71.756400 -7.107000
H -9.395500 -69.148900 -10.688800
H -9.369300 -70.846700 -6.917900
C -9.176100 -66.452400 -10.455500
C -9.116600 -64.105900 -11.021000
C -9.072900 -73.636500 -8.633400
C -8.988800 -72.223100 -8.388600
C -8.967100 -68.940000 -9.890100
H -8.885300 -63.234900 -10.794400
C -8.850600 -65.138900 -10.157000
C -8.822400 -67.519300 -9.496500
H -8.734900 -75.049900 -10.019700
H -8.724600 -62.014700 -12.786400
C -8.683200 -74.133700 -9.868000
C -8.544400 -71.363400 -9.419700
C -8.503100 -69.920500 -9.135500
H -8.437900 -64.950000 -9.344800
O -8.381700 -67.240500 -8.389600
C -8.218000 -73.313500 -10.886600
C -8.142500 -71.891400 -10.671500
H -8.104600 -69.670000 -8.333900
H -7.837900 -74.754600 -12.291100
C -7.794000 -73.839300 -12.145100
C -7.613400 -71.099000 -11.731400
H -7.527200 -70.182300 -11.611400
C -7.331400 -73.039900 -13.125300
C -7.232600 -71.652200 -12.910300
H -7.077100 -73.404200 -13.943300
H -6.902100 -71.107200 -13.587100
44
Fragment
H -7.132300 -59.157600 -5.613200
H -6.957300 -56.860600 -5.257000
C -6.801800 -58.612600 -6.290000
C -6.703000 -57.224900 -6.075000
H -6.507300 -60.082500 -7.588900
C -6.421000 -59.165800 -7.468900
C -6.240400 -56.425500 -7.055200
H -6.196500 -55.510200 -6.909200
H -5.929800 -60.594800 -10.866400
C -5.891900 -58.373400 -8.528800
C -5.816400 -56.951300 -8.313700
O -5.652700 -63.024300 -10.810700
H -5.596500 -65.314800 -9.855500
C -5.531400 -60.344300 -10.064800
C -5.490000 -58.901400 -9.780600
C -5.351300 -56.131100 -9.332300
H -5.309800 -68.250100 -6.413900
H -5.299500 -55.214900 -9.180600
C -5.212100 -62.745500 -9.703800
C -5.183800 -65.125900 -9.043300
H -5.149100 -67.029900 -8.405900
C -5.067400 -61.324800 -9.310200
C -5.045600 -58.041700 -10.811700
C -4.961500 -56.628300 -10.566900
C -4.917800 -66.158900 -8.179300
C -4.858300 -63.812400 -8.744800
H -4.665100 -59.418100 -12.282400
H -4.638900 -61.115900 -8.511500
C -4.623900 -58.508400 -12.093300
C -4.458900 -55.783700 -11.593100
H -4.394900 -54.867500 -11.435700
C -4.363300 -68.186700 -6.270800
C -4.302800 -65.891800 -6.972600
C -4.237800 -63.566200 -7.525600
C -4.164400 -57.651700 -13.043700
H -4.116100 -68.723400 -5.513400
C -4.072600 -56.270900 -12.787400
O -4.010700 -66.823200 -6.026000
H -4.009600 -62.692100 -7.296100
C -3.957400 -64.584400 -6.656700
H -3.906800 -57.980900 -13.874100
H -3.899200 -68.501900 -7.050400
H -3.745700 -55.696900 -13.441200
H -3.533500 -64.398600 -5.850300
88
Fragment
H -10.500900 -65.866200 -13.350000
H -10.288700 -74.567900 -5.759100
H -10.135200 -61.762900 -12.149900
H -10.127700 -72.283900 -5.326200
C -10.077100 -65.680400 -12.543600
H -10.024900 -67.572700 -11.904200
O -10.023700 -63.441600 -13.174300
C -9.961800 -73.993900 -6.412900
H -9.918300 -61.541400 -13.686900
C -9.870100 -72.613100 -6.156600
C -9.796600 -66.698600 -11.674700
C -9.731600 -64.373000 -12.227700
C -9.671100 -62.078100 -12.929500
H -9.639500 -75.397300 -7.764600
C -9.575500 -74.481100 -7.607200
C -9.410500 -71.756400 -7.107000
H -9.395500 -69.148900 -10.688800
H -9.369300 -70.846700 -6.917900
C -9.176100 -66.452400 -10.455500
C -9.116600 -64.105900 -11.021000
C -9.072900 -73.636500 -8.633400
C -8.988800 -72.223100 -8.388600
C -8.967100 -68.940000 -9.890100
H -8.885300 -63.234900 -10.794400
C -8.850600 -65.138900 -10.157000
C -8.822400 -67.519300 -9.496500
H -8.734900 -75.049900 -10.019700
H -8.724600 -62.014700 -12.786400
C -8.683200 -74.133700 -9.868000
C -8.544400 -71.363400 -9.419700
C -8.503100 -69.920500 -9.135500
H -8.437900 -64.950000 -9.344800
O -8.381700 -67.240500 -8.389600
C -8.218000 -73.313500 -10.886600
C -8.142500 -71.891400 -10.671500
H -8.104600 -69.670000 -8.333900
H -7.837900 -74.754600 -12.291100
C -7.794000 -73.839300 -12.145100
C -7.613400 -71.099000 -11.731400
H -7.527200 -70.182300 -11.611400
C -7.331400 -73.039900 -13.125300
C -7.232600 -71.652200 -12.910300
H -7.077100 -73.404200 -13.943300
H -6.902100 -71.107200 -13.587100
H -7.132300 -59.157600 -5.613200
H -6.957300 -56.860600 -5.257000
C -6.801800 -58.612600 -6.290000
C -6.703000 -57.224900 -6.075000
H -6.507300 -60.082500 -7.588900
C -6.421000 -59.165800 -7.468900
C -6.240400 -56.425500 -7.055200
H -6.196500 -55.510200 -6.909200
H -5.929800 -60.594800 -10.866400
C -5.891900 -58.373400 -8.528800
C -5.816400 -56.951300 -8.313700
O -5.652700 -63.024300 -10.810700
H -5.596500 -65.314800 -9.855500
C -5.531400 -60.344300 -10.064800
C -5.490000 -58.901400 -9.780600
C -5.351300 -56.131100 -9.332300
H -5.309800 -68.250100 -6.413900
H -5.299500 -55.214900 -9.180600
C -5.212100 -62.745500 -9.703800
C -5.183800 -65.125900 -9.043300
H -5.149100 -67.029900 -8.405900
C -5.067400 -61.324800 -9.310200
C -5.045600 -58.041700 -10.811700
C -4.961500 -56.628300 -10.566900
C -4.917800 -66.158900 -8.179300
C -4.858300 -63.812400 -8.744800
H -4.665100 -59.418100 -12.282400
H -4.638900 -61.115900 -8.511500
C -4.623900 -58.508400 -12.093300
C -4.458900 -55.783700 -11.593100
H -4.394900 -54.867500 -11.435700
C -4.363300 -68.186700 -6.270800
C -4.302800 -65.891800 -6.972600
C -4.237800 -63.566200 -7.525600
C -4.164400 -57.651700 -13.043700
H -4.116100 -68.723400 -5.513400
C -4.072600 -56.270900 -12.787400
O -4.010700 -66.823200 -6.026000
H -4.009600 -62.692100 -7.296100
C -3.957400 -64.584400 -6.656700
H -3.906800 -57.980900 -13.874100
H -3.899200 -68.501900 -7.050400
H -3.745700 -55.696900 -13.441200
H -3.533500 -64.398600 -5.850300
