44
Fragment
H -10.500900 -65.866200 -13.350000
H -10.288700 -74.567900 -5.759100
H -10.135200 -61.762900 -12.149900
H -10.127700 -72.283900 -5.326200
C -10.077100 -65.680400 -12.543600
H -10.024900 -67.572700 -11.904200
O -10.023700 -63.441600 -13.174300
C -9.961800 -73.993900 -6.412900
H -9.918300 -61.541400 -13.686900
C -9.870100 -72.613100 -6.156600
C -9.796600 -66.698600 -11.674700
C -9.731600 -64.373000 -12.227700
C -9.671100 -62.078100 -12.929500
H -9.639500 -75.397300 -7.764600
C -9.575500 -74.481100 -7.607200
C -9.410500 -71.756400 -7.107000
H -9.395500 -69.148900 -10.688800
H -9.369300 -70.846700 -6.917900
C -9.176100 -66.452400 -10.455500
C -9.116600 -64.105900 -11.021000
C -9.072900 -73.636500 -8.633400
C -8.988800 -72.223100 -8.388600
C -8.967100 -68.940000 -9.890100
H -8.885300 -63.234900 -10.794400
C -8.850600 -65.138900 -10.157000
C -8.822400 -67.519300 -9.496500
H -8.734900 -75.049900 -10.019700
H -8.724600 -62.014700 -12.786400
C -8.683200 -74.133700 -9.868000
C -8.544400 -71.363400 -9.419700
C -8.503100 -69.920500 -9.135500
H -8.437900 -64.950000 -9.344800
O -8.381700 -67.240500 -8.389600
C -8.218000 -73.313500 -10.886600
C -8.142500 -71.891400 -10.671500
H -8.104600 -69.670000 -8.333900
H -7.837900 -74.754600 -12.291100
C -7.794000 -73.839300 -12.145100
C -7.613400 -71.099000 -11.731400
H -7.527200 -70.182300 -11.611400
C -7.331400 -73.039900 -13.125300
C -7.232600 -71.652200 -12.910300
H -7.077100 -73.404200 -13.943300
H -6.902100 -71.107200 -13.587100
16
Fragment
N -10.083900 -59.679500 -16.073500
N -9.760200 -55.611300 -15.739400
C -9.711300 -59.012100 -16.920300
C -9.487300 -56.166700 -16.694700
C -9.240500 -58.231400 -18.033900
C -9.130500 -56.831500 -17.925400
H -8.958800 -59.778500 -19.290500
C -8.888800 -58.854100 -19.215700
C -8.672500 -56.083800 -19.000600
H -8.597300 -55.158500 -18.926700
C -8.433700 -58.110300 -20.288000
C -8.328800 -56.712100 -20.183400
C -8.064700 -58.767200 -21.513900
C -7.858500 -55.947000 -21.303700
N -7.767900 -59.312600 -22.461500
N -7.486100 -55.333900 -22.192700
60
Fragment
H -10.500900 -65.866200 -13.350000
H -10.288700 -74.567900 -5.759100
H -10.135200 -61.762900 -12.149900
H -10.127700 -72.283900 -5.326200
C -10.077100 -65.680400 -12.543600
H -10.024900 -67.572700 -11.904200
O -10.023700 -63.441600 -13.174300
C -9.961800 -73.993900 -6.412900
H -9.918300 -61.541400 -13.686900
C -9.870100 -72.613100 -6.156600
C -9.796600 -66.698600 -11.674700
C -9.731600 -64.373000 -12.227700
C -9.671100 -62.078100 -12.929500
H -9.639500 -75.397300 -7.764600
C -9.575500 -74.481100 -7.607200
C -9.410500 -71.756400 -7.107000
H -9.395500 -69.148900 -10.688800
H -9.369300 -70.846700 -6.917900
C -9.176100 -66.452400 -10.455500
C -9.116600 -64.105900 -11.021000
C -9.072900 -73.636500 -8.633400
C -8.988800 -72.223100 -8.388600
C -8.967100 -68.940000 -9.890100
H -8.885300 -63.234900 -10.794400
C -8.850600 -65.138900 -10.157000
C -8.822400 -67.519300 -9.496500
H -8.734900 -75.049900 -10.019700
H -8.724600 -62.014700 -12.786400
C -8.683200 -74.133700 -9.868000
C -8.544400 -71.363400 -9.419700
C -8.503100 -69.920500 -9.135500
H -8.437900 -64.950000 -9.344800
O -8.381700 -67.240500 -8.389600
C -8.218000 -73.313500 -10.886600
C -8.142500 -71.891400 -10.671500
H -8.104600 -69.670000 -8.333900
H -7.837900 -74.754600 -12.291100
C -7.794000 -73.839300 -12.145100
C -7.613400 -71.099000 -11.731400
H -7.527200 -70.182300 -11.611400
C -7.331400 -73.039900 -13.125300
C -7.232600 -71.652200 -12.910300
H -7.077100 -73.404200 -13.943300
H -6.902100 -71.107200 -13.587100
N -10.083900 -59.679500 -16.073500
N -9.760200 -55.611300 -15.739400
C -9.711300 -59.012100 -16.920300
C -9.487300 -56.166700 -16.694700
C -9.240500 -58.231400 -18.033900
C -9.130500 -56.831500 -17.925400
H -8.958800 -59.778500 -19.290500
C -8.888800 -58.854100 -19.215700
C -8.672500 -56.083800 -19.000600
H -8.597300 -55.158500 -18.926700
C -8.433700 -58.110300 -20.288000
C -8.328800 -56.712100 -20.183400
C -8.064700 -58.767200 -21.513900
C -7.858500 -55.947000 -21.303700
N -7.767900 -59.312600 -22.461500
N -7.486100 -55.333900 -22.192700
