44
Fragment
H -10.500900 -65.866200 -13.350000
H -10.288700 -74.567900 -5.759100
H -10.135200 -61.762900 -12.149900
H -10.127700 -72.283900 -5.326200
C -10.077100 -65.680400 -12.543600
H -10.024900 -67.572700 -11.904200
O -10.023700 -63.441600 -13.174300
C -9.961800 -73.993900 -6.412900
H -9.918300 -61.541400 -13.686900
C -9.870100 -72.613100 -6.156600
C -9.796600 -66.698600 -11.674700
C -9.731600 -64.373000 -12.227700
C -9.671100 -62.078100 -12.929500
H -9.639500 -75.397300 -7.764600
C -9.575500 -74.481100 -7.607200
C -9.410500 -71.756400 -7.107000
H -9.395500 -69.148900 -10.688800
H -9.369300 -70.846700 -6.917900
C -9.176100 -66.452400 -10.455500
C -9.116600 -64.105900 -11.021000
C -9.072900 -73.636500 -8.633400
C -8.988800 -72.223100 -8.388600
C -8.967100 -68.940000 -9.890100
H -8.885300 -63.234900 -10.794400
C -8.850600 -65.138900 -10.157000
C -8.822400 -67.519300 -9.496500
H -8.734900 -75.049900 -10.019700
H -8.724600 -62.014700 -12.786400
C -8.683200 -74.133700 -9.868000
C -8.544400 -71.363400 -9.419700
C -8.503100 -69.920500 -9.135500
H -8.437900 -64.950000 -9.344800
O -8.381700 -67.240500 -8.389600
C -8.218000 -73.313500 -10.886600
C -8.142500 -71.891400 -10.671500
H -8.104600 -69.670000 -8.333900
H -7.837900 -74.754600 -12.291100
C -7.794000 -73.839300 -12.145100
C -7.613400 -71.099000 -11.731400
H -7.527200 -70.182300 -11.611400
C -7.331400 -73.039900 -13.125300
C -7.232600 -71.652200 -12.910300
H -7.077100 -73.404200 -13.943300
H -6.902100 -71.107200 -13.587100
44
Fragment
H -10.222000 -65.866200 -22.950100
H -10.009800 -74.567900 -15.359300
H -9.856300 -61.762900 -21.750100
H -9.848800 -72.283900 -14.926300
C -9.798200 -65.680400 -22.143700
H -9.746000 -67.572700 -21.504300
O -9.744800 -63.441600 -22.774400
C -9.683000 -73.993900 -16.013100
H -9.639500 -61.541400 -23.287100
C -9.591200 -72.613100 -15.756700
C -9.517700 -66.698600 -21.274900
C -9.452700 -64.373000 -21.827900
C -9.392200 -62.078100 -22.529600
H -9.360600 -75.397300 -17.364800
C -9.296600 -74.481100 -17.207300
C -9.131600 -71.756400 -16.707100
H -9.116600 -69.148900 -20.289000
H -9.090400 -70.846700 -16.518000
C -8.897200 -66.452400 -20.055700
C -8.837700 -64.105900 -20.621100
C -8.794000 -73.636500 -18.233600
C -8.709900 -72.223100 -17.988800
C -8.688200 -68.940000 -19.490200
H -8.606500 -63.234900 -20.394600
C -8.571700 -65.138900 -19.757100
C -8.543500 -67.519300 -19.096600
H -8.456000 -75.049900 -19.619800
H -8.445700 -62.014700 -22.386600
C -8.404300 -74.133700 -19.468100
C -8.265500 -71.363400 -19.019800
C -8.224200 -69.920500 -18.735700
H -8.159000 -64.950000 -18.944900
O -8.102800 -67.240500 -17.989700
C -7.939100 -73.313500 -20.486700
C -7.863600 -71.891400 -20.271700
H -7.825700 -69.670000 -17.934000
H -7.559000 -74.754600 -21.891200
C -7.515100 -73.839300 -21.745300
C -7.334500 -71.099000 -21.331500
H -7.248300 -70.182300 -21.211500
C -7.052500 -73.039900 -22.725500
C -6.953700 -71.652200 -22.510400
H -6.798200 -73.404200 -23.543400
H -6.623200 -71.107200 -23.187200
88
Fragment
H -10.500900 -65.866200 -13.350000
H -10.288700 -74.567900 -5.759100
H -10.135200 -61.762900 -12.149900
H -10.127700 -72.283900 -5.326200
C -10.077100 -65.680400 -12.543600
H -10.024900 -67.572700 -11.904200
O -10.023700 -63.441600 -13.174300
C -9.961800 -73.993900 -6.412900
H -9.918300 -61.541400 -13.686900
C -9.870100 -72.613100 -6.156600
C -9.796600 -66.698600 -11.674700
C -9.731600 -64.373000 -12.227700
C -9.671100 -62.078100 -12.929500
H -9.639500 -75.397300 -7.764600
C -9.575500 -74.481100 -7.607200
C -9.410500 -71.756400 -7.107000
H -9.395500 -69.148900 -10.688800
H -9.369300 -70.846700 -6.917900
C -9.176100 -66.452400 -10.455500
C -9.116600 -64.105900 -11.021000
C -9.072900 -73.636500 -8.633400
C -8.988800 -72.223100 -8.388600
C -8.967100 -68.940000 -9.890100
H -8.885300 -63.234900 -10.794400
C -8.850600 -65.138900 -10.157000
C -8.822400 -67.519300 -9.496500
H -8.734900 -75.049900 -10.019700
H -8.724600 -62.014700 -12.786400
C -8.683200 -74.133700 -9.868000
C -8.544400 -71.363400 -9.419700
C -8.503100 -69.920500 -9.135500
H -8.437900 -64.950000 -9.344800
O -8.381700 -67.240500 -8.389600
C -8.218000 -73.313500 -10.886600
C -8.142500 -71.891400 -10.671500
H -8.104600 -69.670000 -8.333900
H -7.837900 -74.754600 -12.291100
C -7.794000 -73.839300 -12.145100
C -7.613400 -71.099000 -11.731400
H -7.527200 -70.182300 -11.611400
C -7.331400 -73.039900 -13.125300
C -7.232600 -71.652200 -12.910300
H -7.077100 -73.404200 -13.943300
H -6.902100 -71.107200 -13.587100
H -10.222000 -65.866200 -22.950100
H -10.009800 -74.567900 -15.359300
H -9.856300 -61.762900 -21.750100
H -9.848800 -72.283900 -14.926300
C -9.798200 -65.680400 -22.143700
H -9.746000 -67.572700 -21.504300
O -9.744800 -63.441600 -22.774400
C -9.683000 -73.993900 -16.013100
H -9.639500 -61.541400 -23.287100
C -9.591200 -72.613100 -15.756700
C -9.517700 -66.698600 -21.274900
C -9.452700 -64.373000 -21.827900
C -9.392200 -62.078100 -22.529600
H -9.360600 -75.397300 -17.364800
C -9.296600 -74.481100 -17.207300
C -9.131600 -71.756400 -16.707100
H -9.116600 -69.148900 -20.289000
H -9.090400 -70.846700 -16.518000
C -8.897200 -66.452400 -20.055700
C -8.837700 -64.105900 -20.621100
C -8.794000 -73.636500 -18.233600
C -8.709900 -72.223100 -17.988800
C -8.688200 -68.940000 -19.490200
H -8.606500 -63.234900 -20.394600
C -8.571700 -65.138900 -19.757100
C -8.543500 -67.519300 -19.096600
H -8.456000 -75.049900 -19.619800
H -8.445700 -62.014700 -22.386600
C -8.404300 -74.133700 -19.468100
C -8.265500 -71.363400 -19.019800
C -8.224200 -69.920500 -18.735700
H -8.159000 -64.950000 -18.944900
O -8.102800 -67.240500 -17.989700
C -7.939100 -73.313500 -20.486700
C -7.863600 -71.891400 -20.271700
H -7.825700 -69.670000 -17.934000
H -7.559000 -74.754600 -21.891200
C -7.515100 -73.839300 -21.745300
C -7.334500 -71.099000 -21.331500
H -7.248300 -70.182300 -21.211500
C -7.052500 -73.039900 -22.725500
C -6.953700 -71.652200 -22.510400
H -6.798200 -73.404200 -23.543400
H -6.623200 -71.107200 -23.187200
