30
Fragment
H -10.930100 -28.935400 -15.734100
H -10.902400 -28.130900 -14.389300
C -10.382100 -28.409900 -15.145600
H -10.158800 -23.075000 -20.473100
N -9.937400 -27.151300 -17.196600
N -9.903500 -24.339900 -19.075200
N -9.882700 -23.879700 -20.353100
C -9.877100 -27.208200 -15.875000
H -9.638400 -28.938400 -14.845800
O -9.585800 -24.030800 -22.573000
C -9.473600 -24.549700 -21.462100
N -9.397600 -25.926800 -17.514600
C -9.386700 -25.512800 -18.868800
C -9.320400 -26.035500 -15.351500
H -9.183000 -25.841900 -14.453100
H -9.070200 -23.233800 -16.648100
C -9.019700 -25.236600 -16.404200
C -8.884800 -25.860600 -21.205900
C -8.816300 -26.340700 -19.895800
H -8.412400 -26.297600 -23.126800
C -8.398400 -23.888900 -16.446700
C -8.355100 -26.612000 -22.254100
C -8.169300 -27.561600 -19.651900
H -8.093900 -27.885900 -18.783800
H -8.005100 -23.691000 -15.593100
C -7.754600 -27.807300 -21.999100
H -7.719500 -23.870600 -17.124700
C -7.651400 -28.269200 -20.698000
H -7.413300 -28.313400 -22.700500
H -7.220400 -29.076400 -20.534600
30
Fragment
H -12.174700 -28.935400 -4.546600
H -12.147000 -28.130900 -3.201900
C -11.626700 -28.409900 -3.958100
H -11.403400 -23.075000 -9.285600
N -11.182000 -27.151300 -6.009100
N -11.148100 -24.339900 -7.887700
N -11.127300 -23.879700 -9.165600
C -11.121700 -27.208200 -4.687600
H -10.883000 -28.938400 -3.658300
O -10.830400 -24.030800 -11.385500
C -10.718200 -24.549700 -10.274600
N -10.642200 -25.926800 -6.327100
C -10.631300 -25.512800 -7.681300
C -10.565000 -26.035500 -4.164000
H -10.427600 -25.841900 -3.265600
H -10.314800 -23.233800 -5.460600
C -10.264300 -25.236600 -5.216700
C -10.129400 -25.860600 -10.018400
C -10.060900 -26.340700 -8.708300
H -9.657000 -26.297600 -11.939300
C -9.643000 -23.888900 -5.259200
C -9.599700 -26.612000 -11.066700
C -9.413900 -27.561600 -8.464400
H -9.338500 -27.885900 -7.596300
H -9.249700 -23.691000 -4.405600
C -8.999200 -27.807300 -10.811600
H -8.964100 -23.870600 -5.937200
C -8.896000 -28.269200 -9.510500
H -8.657800 -28.313400 -11.513000
H -8.465000 -29.076400 -9.347100
60
Fragment
H -10.930100 -28.935400 -15.734100
H -10.902400 -28.130900 -14.389300
C -10.382100 -28.409900 -15.145600
H -10.158800 -23.075000 -20.473100
N -9.937400 -27.151300 -17.196600
N -9.903500 -24.339900 -19.075200
N -9.882700 -23.879700 -20.353100
C -9.877100 -27.208200 -15.875000
H -9.638400 -28.938400 -14.845800
O -9.585800 -24.030800 -22.573000
C -9.473600 -24.549700 -21.462100
N -9.397600 -25.926800 -17.514600
C -9.386700 -25.512800 -18.868800
C -9.320400 -26.035500 -15.351500
H -9.183000 -25.841900 -14.453100
H -9.070200 -23.233800 -16.648100
C -9.019700 -25.236600 -16.404200
C -8.884800 -25.860600 -21.205900
C -8.816300 -26.340700 -19.895800
H -8.412400 -26.297600 -23.126800
C -8.398400 -23.888900 -16.446700
C -8.355100 -26.612000 -22.254100
C -8.169300 -27.561600 -19.651900
H -8.093900 -27.885900 -18.783800
H -8.005100 -23.691000 -15.593100
C -7.754600 -27.807300 -21.999100
H -7.719500 -23.870600 -17.124700
C -7.651400 -28.269200 -20.698000
H -7.413300 -28.313400 -22.700500
H -7.220400 -29.076400 -20.534600
H -12.174700 -28.935400 -4.546600
H -12.147000 -28.130900 -3.201900
C -11.626700 -28.409900 -3.958100
H -11.403400 -23.075000 -9.285600
N -11.182000 -27.151300 -6.009100
N -11.148100 -24.339900 -7.887700
N -11.127300 -23.879700 -9.165600
C -11.121700 -27.208200 -4.687600
H -10.883000 -28.938400 -3.658300
O -10.830400 -24.030800 -11.385500
C -10.718200 -24.549700 -10.274600
N -10.642200 -25.926800 -6.327100
C -10.631300 -25.512800 -7.681300
C -10.565000 -26.035500 -4.164000
H -10.427600 -25.841900 -3.265600
H -10.314800 -23.233800 -5.460600
C -10.264300 -25.236600 -5.216700
C -10.129400 -25.860600 -10.018400
C -10.060900 -26.340700 -8.708300
H -9.657000 -26.297600 -11.939300
C -9.643000 -23.888900 -5.259200
C -9.599700 -26.612000 -11.066700
C -9.413900 -27.561600 -8.464400
H -9.338500 -27.885900 -7.596300
H -9.249700 -23.691000 -4.405600
C -8.999200 -27.807300 -10.811600
H -8.964100 -23.870600 -5.937200
C -8.896000 -28.269200 -9.510500
H -8.657800 -28.313400 -11.513000
H -8.465000 -29.076400 -9.347100
