30
Fragment
H -10.930100 -28.935400 -15.734100
H -10.902400 -28.130900 -14.389300
C -10.382100 -28.409900 -15.145600
H -10.158800 -23.075000 -20.473100
N -9.937400 -27.151300 -17.196600
N -9.903500 -24.339900 -19.075200
N -9.882700 -23.879700 -20.353100
C -9.877100 -27.208200 -15.875000
H -9.638400 -28.938400 -14.845800
O -9.585800 -24.030800 -22.573000
C -9.473600 -24.549700 -21.462100
N -9.397600 -25.926800 -17.514600
C -9.386700 -25.512800 -18.868800
C -9.320400 -26.035500 -15.351500
H -9.183000 -25.841900 -14.453100
H -9.070200 -23.233800 -16.648100
C -9.019700 -25.236600 -16.404200
C -8.884800 -25.860600 -21.205900
C -8.816300 -26.340700 -19.895800
H -8.412400 -26.297600 -23.126800
C -8.398400 -23.888900 -16.446700
C -8.355100 -26.612000 -22.254100
C -8.169300 -27.561600 -19.651900
H -8.093900 -27.885900 -18.783800
H -8.005100 -23.691000 -15.593100
C -7.754600 -27.807300 -21.999100
H -7.719500 -23.870600 -17.124700
C -7.651400 -28.269200 -20.698000
H -7.413300 -28.313400 -22.700500
H -7.220400 -29.076400 -20.534600
30
Fragment
H -7.619000 -36.498400 -18.621600
H -7.426200 -35.735400 -16.455700
C -7.188000 -35.691200 -18.458200
H -7.119900 -31.292600 -22.031500
C -7.084800 -35.229300 -17.157100
H -6.834300 -31.113000 -23.563100
H -6.745500 -35.307900 -20.372400
C -6.670100 -34.983600 -19.504300
C -6.484300 -34.034000 -16.902000
C -6.441000 -31.310900 -22.709500
H -6.427000 -33.719600 -16.029400
C -6.023100 -33.762700 -19.260400
C -5.954600 -33.282600 -17.950300
C -5.819700 -32.658600 -22.752000
H -5.769300 -30.655800 -22.508100
H -5.656400 -33.263900 -24.703100
C -5.519000 -33.457500 -23.804700
C -5.452700 -32.934800 -20.287400
N -5.441800 -33.348800 -21.641600
C -5.365800 -31.971700 -17.694100
O -5.253600 -31.452800 -16.583200
H -5.201000 -36.360400 -24.310400
C -4.962300 -34.630200 -23.281200
N -4.956800 -31.301700 -18.803100
N -4.935900 -31.761900 -20.081000
N -4.902000 -34.573300 -21.959600
H -4.680600 -30.497000 -18.683100
C -4.457300 -35.831900 -24.010600
H -3.937000 -35.552900 -24.766800
H -3.909300 -36.357400 -23.422100
60
Fragment
H -10.930100 -28.935400 -15.734100
H -10.902400 -28.130900 -14.389300
C -10.382100 -28.409900 -15.145600
H -10.158800 -23.075000 -20.473100
N -9.937400 -27.151300 -17.196600
N -9.903500 -24.339900 -19.075200
N -9.882700 -23.879700 -20.353100
C -9.877100 -27.208200 -15.875000
H -9.638400 -28.938400 -14.845800
O -9.585800 -24.030800 -22.573000
C -9.473600 -24.549700 -21.462100
N -9.397600 -25.926800 -17.514600
C -9.386700 -25.512800 -18.868800
C -9.320400 -26.035500 -15.351500
H -9.183000 -25.841900 -14.453100
H -9.070200 -23.233800 -16.648100
C -9.019700 -25.236600 -16.404200
C -8.884800 -25.860600 -21.205900
C -8.816300 -26.340700 -19.895800
H -8.412400 -26.297600 -23.126800
C -8.398400 -23.888900 -16.446700
C -8.355100 -26.612000 -22.254100
C -8.169300 -27.561600 -19.651900
H -8.093900 -27.885900 -18.783800
H -8.005100 -23.691000 -15.593100
C -7.754600 -27.807300 -21.999100
H -7.719500 -23.870600 -17.124700
C -7.651400 -28.269200 -20.698000
H -7.413300 -28.313400 -22.700500
H -7.220400 -29.076400 -20.534600
H -7.619000 -36.498400 -18.621600
H -7.426200 -35.735400 -16.455700
C -7.188000 -35.691200 -18.458200
H -7.119900 -31.292600 -22.031500
C -7.084800 -35.229300 -17.157100
H -6.834300 -31.113000 -23.563100
H -6.745500 -35.307900 -20.372400
C -6.670100 -34.983600 -19.504300
C -6.484300 -34.034000 -16.902000
C -6.441000 -31.310900 -22.709500
H -6.427000 -33.719600 -16.029400
C -6.023100 -33.762700 -19.260400
C -5.954600 -33.282600 -17.950300
C -5.819700 -32.658600 -22.752000
H -5.769300 -30.655800 -22.508100
H -5.656400 -33.263900 -24.703100
C -5.519000 -33.457500 -23.804700
C -5.452700 -32.934800 -20.287400
N -5.441800 -33.348800 -21.641600
C -5.365800 -31.971700 -17.694100
O -5.253600 -31.452800 -16.583200
H -5.201000 -36.360400 -24.310400
C -4.962300 -34.630200 -23.281200
N -4.956800 -31.301700 -18.803100
N -4.935900 -31.761900 -20.081000
N -4.902000 -34.573300 -21.959600
H -4.680600 -30.497000 -18.683100
C -4.457300 -35.831900 -24.010600
H -3.937000 -35.552900 -24.766800
H -3.909300 -36.357400 -23.422100
