30
Fragment
H -10.930100 -28.935400 -15.734100
H -10.902400 -28.130900 -14.389300
C -10.382100 -28.409900 -15.145600
H -10.158800 -23.075000 -20.473100
N -9.937400 -27.151300 -17.196600
N -9.903500 -24.339900 -19.075200
N -9.882700 -23.879700 -20.353100
C -9.877100 -27.208200 -15.875000
H -9.638400 -28.938400 -14.845800
O -9.585800 -24.030800 -22.573000
C -9.473600 -24.549700 -21.462100
N -9.397600 -25.926800 -17.514600
C -9.386700 -25.512800 -18.868800
C -9.320400 -26.035500 -15.351500
H -9.183000 -25.841900 -14.453100
H -9.070200 -23.233800 -16.648100
C -9.019700 -25.236600 -16.404200
C -8.884800 -25.860600 -21.205900
C -8.816300 -26.340700 -19.895800
H -8.412400 -26.297600 -23.126800
C -8.398400 -23.888900 -16.446700
C -8.355100 -26.612000 -22.254100
C -8.169300 -27.561600 -19.651900
H -8.093900 -27.885900 -18.783800
H -8.005100 -23.691000 -15.593100
C -7.754600 -27.807300 -21.999100
H -7.719500 -23.870600 -17.124700
C -7.651400 -28.269200 -20.698000
H -7.413300 -28.313400 -22.700500
H -7.220400 -29.076400 -20.534600
30
Fragment
H -9.685500 -28.935400 -26.921600
H -9.657800 -28.130900 -25.576800
C -9.137500 -28.409900 -26.333100
H -8.914200 -23.075000 -31.660600
N -8.692800 -27.151300 -28.384100
N -8.658900 -24.339900 -30.262700
N -8.638100 -23.879700 -31.540500
C -8.632500 -27.208200 -27.062500
H -8.393800 -28.938400 -26.033300
O -8.341200 -24.030800 -33.760500
C -8.229100 -24.549700 -32.649500
N -8.153000 -25.926800 -28.702000
C -8.142100 -25.512800 -30.056300
C -8.075800 -26.035500 -26.538900
H -7.938500 -25.841900 -25.640600
H -7.825600 -23.233800 -27.835600
C -7.775100 -25.236600 -27.591700
C -7.640200 -25.860600 -32.393400
C -7.571700 -26.340700 -31.083300
H -7.167800 -26.297600 -34.314200
C -7.153900 -23.888900 -27.634200
C -7.110500 -26.612000 -33.441600
C -6.924700 -27.561600 -30.839400
H -6.849300 -27.885900 -29.971300
H -6.760500 -23.691000 -26.780600
C -6.510100 -27.807300 -33.186500
H -6.474900 -23.870600 -28.312200
C -6.406800 -28.269200 -31.885400
H -6.168700 -28.313400 -33.888000
H -5.975800 -29.076400 -31.722100
60
Fragment
H -10.930100 -28.935400 -15.734100
H -10.902400 -28.130900 -14.389300
C -10.382100 -28.409900 -15.145600
H -10.158800 -23.075000 -20.473100
N -9.937400 -27.151300 -17.196600
N -9.903500 -24.339900 -19.075200
N -9.882700 -23.879700 -20.353100
C -9.877100 -27.208200 -15.875000
H -9.638400 -28.938400 -14.845800
O -9.585800 -24.030800 -22.573000
C -9.473600 -24.549700 -21.462100
N -9.397600 -25.926800 -17.514600
C -9.386700 -25.512800 -18.868800
C -9.320400 -26.035500 -15.351500
H -9.183000 -25.841900 -14.453100
H -9.070200 -23.233800 -16.648100
C -9.019700 -25.236600 -16.404200
C -8.884800 -25.860600 -21.205900
C -8.816300 -26.340700 -19.895800
H -8.412400 -26.297600 -23.126800
C -8.398400 -23.888900 -16.446700
C -8.355100 -26.612000 -22.254100
C -8.169300 -27.561600 -19.651900
H -8.093900 -27.885900 -18.783800
H -8.005100 -23.691000 -15.593100
C -7.754600 -27.807300 -21.999100
H -7.719500 -23.870600 -17.124700
C -7.651400 -28.269200 -20.698000
H -7.413300 -28.313400 -22.700500
H -7.220400 -29.076400 -20.534600
H -9.685500 -28.935400 -26.921600
H -9.657800 -28.130900 -25.576800
C -9.137500 -28.409900 -26.333100
H -8.914200 -23.075000 -31.660600
N -8.692800 -27.151300 -28.384100
N -8.658900 -24.339900 -30.262700
N -8.638100 -23.879700 -31.540500
C -8.632500 -27.208200 -27.062500
H -8.393800 -28.938400 -26.033300
O -8.341200 -24.030800 -33.760500
C -8.229100 -24.549700 -32.649500
N -8.153000 -25.926800 -28.702000
C -8.142100 -25.512800 -30.056300
C -8.075800 -26.035500 -26.538900
H -7.938500 -25.841900 -25.640600
H -7.825600 -23.233800 -27.835600
C -7.775100 -25.236600 -27.591700
C -7.640200 -25.860600 -32.393400
C -7.571700 -26.340700 -31.083300
H -7.167800 -26.297600 -34.314200
C -7.153900 -23.888900 -27.634200
C -7.110500 -26.612000 -33.441600
C -6.924700 -27.561600 -30.839400
H -6.849300 -27.885900 -29.971300
H -6.760500 -23.691000 -26.780600
C -6.510100 -27.807300 -33.186500
H -6.474900 -23.870600 -28.312200
C -6.406800 -28.269200 -31.885400
H -6.168700 -28.313400 -33.888000
H -5.975800 -29.076400 -31.722100
