32
Fragment
H -12.013300 -18.711600 -29.067200
O -11.895100 -17.497100 -26.857500
H -11.775500 -17.329200 -26.063200
C -11.555900 -19.214200 -28.432500
C -11.358000 -18.702800 -27.149100
H -11.220600 -20.802600 -29.616900
N -11.111700 -25.120000 -32.525500
C -11.073100 -20.465800 -28.762900
H -11.072900 -23.771700 -31.169300
H -10.834100 -26.673200 -33.600000
N -10.709300 -24.526500 -31.363000
C -10.627600 -19.442900 -26.224000
C -10.560200 -26.247800 -32.819300
H -10.470100 -19.099700 -25.373900
C -10.367100 -21.233500 -27.834200
N -10.153100 -23.174600 -29.222400
C -10.136100 -20.688800 -26.568900
C -9.822200 -22.545700 -28.159600
C -9.791500 -25.007100 -30.479200
H -9.641700 -21.173300 -25.947200
C -9.547000 -26.896200 -32.023300
N -9.489100 -24.399300 -29.353800
H -9.252700 -28.549000 -33.166300
H -9.215000 -22.937500 -27.574900
C -9.139400 -26.263400 -30.842300
C -8.967000 -28.114400 -32.395000
C -8.121300 -26.834900 -30.066900
C -7.973200 -28.670400 -31.622400
H -7.834400 -26.412500 -29.290500
H -7.585500 -29.477400 -31.873600
C -7.547100 -28.023800 -30.458200
H -6.870000 -28.399700 -29.943300
32
Fragment
H -14.079200 -36.254500 -23.737700
C -13.402100 -35.878600 -23.222800
H -13.363700 -37.332200 -21.807400
H -13.114800 -34.267200 -24.390500
C -12.976000 -36.525200 -22.058600
C -12.827900 -34.689700 -23.614100
C -11.982200 -35.969200 -21.286000
C -11.809800 -34.118200 -22.838700
H -11.734200 -30.792300 -26.106100
H -11.696500 -36.403700 -20.514700
N -11.460100 -32.254100 -24.327200
C -11.402200 -34.750900 -21.657700
H -11.307500 -29.028100 -27.733800
C -11.157700 -32.861900 -23.201800
C -11.127000 -30.400500 -25.521500
C -10.813000 -28.543600 -27.112100
N -10.796100 -31.029300 -24.458600
C -10.582100 -29.088300 -25.846800
H -10.479000 -26.954400 -28.307100
C -10.389000 -34.102600 -20.861700
C -10.321600 -27.297700 -27.457000
N -10.239900 -32.381300 -22.318000
H -10.115000 -34.528000 -20.081000
H -9.876300 -31.626500 -22.511700
C -9.876100 -28.320500 -24.918100
N -9.837500 -32.974800 -21.155500
H -9.728600 -28.657400 -24.064100
C -9.591200 -26.557600 -26.531900
C -9.393300 -27.069000 -25.248500
H -9.173700 -25.184000 -27.617800
O -9.054100 -25.351900 -26.823500
H -8.935900 -26.566400 -24.613800
64
Fragment
H -12.013300 -18.711600 -29.067200
O -11.895100 -17.497100 -26.857500
H -11.775500 -17.329200 -26.063200
C -11.555900 -19.214200 -28.432500
C -11.358000 -18.702800 -27.149100
H -11.220600 -20.802600 -29.616900
N -11.111700 -25.120000 -32.525500
C -11.073100 -20.465800 -28.762900
H -11.072900 -23.771700 -31.169300
H -10.834100 -26.673200 -33.600000
N -10.709300 -24.526500 -31.363000
C -10.627600 -19.442900 -26.224000
C -10.560200 -26.247800 -32.819300
H -10.470100 -19.099700 -25.373900
C -10.367100 -21.233500 -27.834200
N -10.153100 -23.174600 -29.222400
C -10.136100 -20.688800 -26.568900
C -9.822200 -22.545700 -28.159600
C -9.791500 -25.007100 -30.479200
H -9.641700 -21.173300 -25.947200
C -9.547000 -26.896200 -32.023300
N -9.489100 -24.399300 -29.353800
H -9.252700 -28.549000 -33.166300
H -9.215000 -22.937500 -27.574900
C -9.139400 -26.263400 -30.842300
C -8.967000 -28.114400 -32.395000
C -8.121300 -26.834900 -30.066900
C -7.973200 -28.670400 -31.622400
H -7.834400 -26.412500 -29.290500
H -7.585500 -29.477400 -31.873600
C -7.547100 -28.023800 -30.458200
H -6.870000 -28.399700 -29.943300
H -14.079200 -36.254500 -23.737700
C -13.402100 -35.878600 -23.222800
H -13.363700 -37.332200 -21.807400
H -13.114800 -34.267200 -24.390500
C -12.976000 -36.525200 -22.058600
C -12.827900 -34.689700 -23.614100
C -11.982200 -35.969200 -21.286000
C -11.809800 -34.118200 -22.838700
H -11.734200 -30.792300 -26.106100
H -11.696500 -36.403700 -20.514700
N -11.460100 -32.254100 -24.327200
C -11.402200 -34.750900 -21.657700
H -11.307500 -29.028100 -27.733800
C -11.157700 -32.861900 -23.201800
C -11.127000 -30.400500 -25.521500
C -10.813000 -28.543600 -27.112100
N -10.796100 -31.029300 -24.458600
C -10.582100 -29.088300 -25.846800
H -10.479000 -26.954400 -28.307100
C -10.389000 -34.102600 -20.861700
C -10.321600 -27.297700 -27.457000
N -10.239900 -32.381300 -22.318000
H -10.115000 -34.528000 -20.081000
H -9.876300 -31.626500 -22.511700
C -9.876100 -28.320500 -24.918100
N -9.837500 -32.974800 -21.155500
H -9.728600 -28.657400 -24.064100
C -9.591200 -26.557600 -26.531900
C -9.393300 -27.069000 -25.248500
H -9.173700 -25.184000 -27.617800
O -9.054100 -25.351900 -26.823500
H -8.935900 -26.566400 -24.613800
