32
Fragment
H -12.013300 -18.711600 -29.067200
O -11.895100 -17.497100 -26.857500
H -11.775500 -17.329200 -26.063200
C -11.555900 -19.214200 -28.432500
C -11.358000 -18.702800 -27.149100
H -11.220600 -20.802600 -29.616900
N -11.111700 -25.120000 -32.525500
C -11.073100 -20.465800 -28.762900
H -11.072900 -23.771700 -31.169300
H -10.834100 -26.673200 -33.600000
N -10.709300 -24.526500 -31.363000
C -10.627600 -19.442900 -26.224000
C -10.560200 -26.247800 -32.819300
H -10.470100 -19.099700 -25.373900
C -10.367100 -21.233500 -27.834200
N -10.153100 -23.174600 -29.222400
C -10.136100 -20.688800 -26.568900
C -9.822200 -22.545700 -28.159600
C -9.791500 -25.007100 -30.479200
H -9.641700 -21.173300 -25.947200
C -9.547000 -26.896200 -32.023300
N -9.489100 -24.399300 -29.353800
H -9.252700 -28.549000 -33.166300
H -9.215000 -22.937500 -27.574900
C -9.139400 -26.263400 -30.842300
C -8.967000 -28.114400 -32.395000
C -8.121300 -26.834900 -30.066900
C -7.973200 -28.670400 -31.622400
H -7.834400 -26.412500 -29.290500
H -7.585500 -29.477400 -31.873600
C -7.547100 -28.023800 -30.458200
H -6.870000 -28.399700 -29.943300
32
Fragment
H -8.991200 -20.243300 -23.686200
C -8.353700 -19.799400 -23.173700
H -8.297700 -21.159200 -21.667800
H -8.133600 -18.238800 -24.424900
C -7.940500 -20.351300 -21.958800
C -7.832900 -18.607600 -23.625000
H -7.168500 -14.371100 -25.895700
H -7.160600 -12.229900 -27.119600
C -6.999200 -19.695700 -21.192400
C -6.843600 -17.949600 -22.874500
H -6.738300 -20.048500 -20.373000
N -6.583000 -16.096800 -24.407700
C -6.437400 -18.499700 -21.650400
C -6.377400 -14.124800 -25.472700
C -6.339400 -12.001300 -26.748800
C -6.215400 -16.702900 -23.304200
H -6.139600 -10.258300 -27.748800
N -5.863900 -14.907400 -24.601100
C -5.748600 -12.854300 -25.819700
C -5.726400 -10.817800 -27.131700
C -5.404200 -17.821700 -20.907900
N -5.237700 -16.212400 -22.484000
H -5.146700 -18.185400 -20.091700
H -4.846500 -15.491200 -22.741400
N -4.815600 -16.745300 -21.300400
C -4.517900 -12.479200 -25.274900
C -4.492500 -10.467000 -26.589500
H -4.158400 -9.029800 -27.630700
H -4.108000 -13.032600 -24.648200
C -3.897800 -11.303600 -25.647900
O -3.834900 -9.330500 -26.939100
H -3.080500 -11.068900 -25.268700
64
Fragment
H -12.013300 -18.711600 -29.067200
O -11.895100 -17.497100 -26.857500
H -11.775500 -17.329200 -26.063200
C -11.555900 -19.214200 -28.432500
C -11.358000 -18.702800 -27.149100
H -11.220600 -20.802600 -29.616900
N -11.111700 -25.120000 -32.525500
C -11.073100 -20.465800 -28.762900
H -11.072900 -23.771700 -31.169300
H -10.834100 -26.673200 -33.600000
N -10.709300 -24.526500 -31.363000
C -10.627600 -19.442900 -26.224000
C -10.560200 -26.247800 -32.819300
H -10.470100 -19.099700 -25.373900
C -10.367100 -21.233500 -27.834200
N -10.153100 -23.174600 -29.222400
C -10.136100 -20.688800 -26.568900
C -9.822200 -22.545700 -28.159600
C -9.791500 -25.007100 -30.479200
H -9.641700 -21.173300 -25.947200
C -9.547000 -26.896200 -32.023300
N -9.489100 -24.399300 -29.353800
H -9.252700 -28.549000 -33.166300
H -9.215000 -22.937500 -27.574900
C -9.139400 -26.263400 -30.842300
C -8.967000 -28.114400 -32.395000
C -8.121300 -26.834900 -30.066900
C -7.973200 -28.670400 -31.622400
H -7.834400 -26.412500 -29.290500
H -7.585500 -29.477400 -31.873600
C -7.547100 -28.023800 -30.458200
H -6.870000 -28.399700 -29.943300
H -8.991200 -20.243300 -23.686200
C -8.353700 -19.799400 -23.173700
H -8.297700 -21.159200 -21.667800
H -8.133600 -18.238800 -24.424900
C -7.940500 -20.351300 -21.958800
C -7.832900 -18.607600 -23.625000
H -7.168500 -14.371100 -25.895700
H -7.160600 -12.229900 -27.119600
C -6.999200 -19.695700 -21.192400
C -6.843600 -17.949600 -22.874500
H -6.738300 -20.048500 -20.373000
N -6.583000 -16.096800 -24.407700
C -6.437400 -18.499700 -21.650400
C -6.377400 -14.124800 -25.472700
C -6.339400 -12.001300 -26.748800
C -6.215400 -16.702900 -23.304200
H -6.139600 -10.258300 -27.748800
N -5.863900 -14.907400 -24.601100
C -5.748600 -12.854300 -25.819700
C -5.726400 -10.817800 -27.131700
C -5.404200 -17.821700 -20.907900
N -5.237700 -16.212400 -22.484000
H -5.146700 -18.185400 -20.091700
H -4.846500 -15.491200 -22.741400
N -4.815600 -16.745300 -21.300400
C -4.517900 -12.479200 -25.274900
C -4.492500 -10.467000 -26.589500
H -4.158400 -9.029800 -27.630700
H -4.108000 -13.032600 -24.648200
C -3.897800 -11.303600 -25.647900
O -3.834900 -9.330500 -26.939100
H -3.080500 -11.068900 -25.268700
