19
Fragment
O -27.449900 -37.570600 -9.562800
N -26.237400 -37.838600 -9.578500
O -25.828600 -38.948500 -9.979200
H -25.579900 -34.683200 -8.224900
N -25.432400 -36.882900 -9.140800
N -24.834300 -34.260100 -8.151000
N -24.683700 -32.982400 -7.768700
C -24.092400 -37.072200 -9.255200
C -23.639100 -34.748300 -8.392800
H -23.509400 -38.801800 -10.018200
N -23.419000 -32.753000 -7.790600
N -23.320800 -36.033400 -8.817500
N -23.299400 -38.029400 -9.703200
N -22.712400 -33.839300 -8.174200
C -22.092300 -37.488900 -9.542200
N -22.000600 -36.307200 -9.031900
O -20.991500 -39.209400 -10.549900
N -20.863100 -38.176300 -9.925100
O -19.818300 -37.650900 -9.634000
19
Fragment
O -32.033900 -37.563900 -6.733700
N -30.977000 -38.150900 -6.859700
O -30.839000 -39.233900 -7.373500
N -29.907400 -36.316700 -5.824000
C -29.793900 -37.486600 -6.368600
N -29.262700 -33.955500 -4.643700
N -28.608100 -36.047700 -5.523900
N -28.601100 -32.906900 -4.116900
N -28.574100 -38.027300 -6.448000
H -28.347200 -38.793700 -6.765300
C -28.313300 -34.803800 -4.941000
C -27.801800 -37.088400 -5.917800
N -27.319100 -33.109900 -4.095000
N -27.125800 -34.333900 -4.632000
N -26.476700 -36.911800 -5.702000
H -26.370800 -34.729100 -4.748400
O -26.041300 -38.952700 -6.578200
N -25.655000 -37.860200 -6.114400
O -24.441800 -37.601600 -6.021300
38
Fragment
O -27.449900 -37.570600 -9.562800
N -26.237400 -37.838600 -9.578500
O -25.828600 -38.948500 -9.979200
H -25.579900 -34.683200 -8.224900
N -25.432400 -36.882900 -9.140800
N -24.834300 -34.260100 -8.151000
N -24.683700 -32.982400 -7.768700
C -24.092400 -37.072200 -9.255200
C -23.639100 -34.748300 -8.392800
H -23.509400 -38.801800 -10.018200
N -23.419000 -32.753000 -7.790600
N -23.320800 -36.033400 -8.817500
N -23.299400 -38.029400 -9.703200
N -22.712400 -33.839300 -8.174200
C -22.092300 -37.488900 -9.542200
N -22.000600 -36.307200 -9.031900
O -20.991500 -39.209400 -10.549900
N -20.863100 -38.176300 -9.925100
O -19.818300 -37.650900 -9.634000
O -32.033900 -37.563900 -6.733700
N -30.977000 -38.150900 -6.859700
O -30.839000 -39.233900 -7.373500
N -29.907400 -36.316700 -5.824000
C -29.793900 -37.486600 -6.368600
N -29.262700 -33.955500 -4.643700
N -28.608100 -36.047700 -5.523900
N -28.601100 -32.906900 -4.116900
N -28.574100 -38.027300 -6.448000
H -28.347200 -38.793700 -6.765300
C -28.313300 -34.803800 -4.941000
C -27.801800 -37.088400 -5.917800
N -27.319100 -33.109900 -4.095000
N -27.125800 -34.333900 -4.632000
N -26.476700 -36.911800 -5.702000
H -26.370800 -34.729100 -4.748400
O -26.041300 -38.952700 -6.578200
N -25.655000 -37.860200 -6.114400
O -24.441800 -37.601600 -6.021300
