19
Fragment
O -27.449900 -37.570600 -9.562800
N -26.237400 -37.838600 -9.578500
O -25.828600 -38.948500 -9.979200
H -25.579900 -34.683200 -8.224900
N -25.432400 -36.882900 -9.140800
N -24.834300 -34.260100 -8.151000
N -24.683700 -32.982400 -7.768700
C -24.092400 -37.072200 -9.255200
C -23.639100 -34.748300 -8.392800
H -23.509400 -38.801800 -10.018200
N -23.419000 -32.753000 -7.790600
N -23.320800 -36.033400 -8.817500
N -23.299400 -38.029400 -9.703200
N -22.712400 -33.839300 -8.174200
C -22.092300 -37.488900 -9.542200
N -22.000600 -36.307200 -9.031900
O -20.991500 -39.209400 -10.549900
N -20.863100 -38.176300 -9.925100
O -19.818300 -37.650900 -9.634000
19
Fragment
O -31.721800 -43.450600 -10.158700
N -30.664800 -42.863600 -10.284800
O -30.526800 -41.780600 -10.798500
N -29.595200 -44.697800 -9.249000
C -29.481800 -43.527900 -9.793600
N -28.950600 -47.059000 -8.068800
N -28.296000 -44.966800 -8.949000
N -28.289000 -48.107600 -7.542000
N -28.261900 -42.987200 -9.873100
H -28.035000 -42.220800 -10.190400
C -28.001200 -46.210700 -8.366000
C -27.489700 -43.926100 -9.342900
N -27.007000 -47.904600 -7.520100
N -26.813700 -46.680600 -8.057100
N -26.164600 -44.102700 -9.127100
H -26.058600 -46.285400 -8.173400
O -25.729200 -42.061800 -10.003200
N -25.342900 -43.154300 -9.539500
O -24.129700 -43.412900 -9.446300
38
Fragment
O -27.449900 -37.570600 -9.562800
N -26.237400 -37.838600 -9.578500
O -25.828600 -38.948500 -9.979200
H -25.579900 -34.683200 -8.224900
N -25.432400 -36.882900 -9.140800
N -24.834300 -34.260100 -8.151000
N -24.683700 -32.982400 -7.768700
C -24.092400 -37.072200 -9.255200
C -23.639100 -34.748300 -8.392800
H -23.509400 -38.801800 -10.018200
N -23.419000 -32.753000 -7.790600
N -23.320800 -36.033400 -8.817500
N -23.299400 -38.029400 -9.703200
N -22.712400 -33.839300 -8.174200
C -22.092300 -37.488900 -9.542200
N -22.000600 -36.307200 -9.031900
O -20.991500 -39.209400 -10.549900
N -20.863100 -38.176300 -9.925100
O -19.818300 -37.650900 -9.634000
O -31.721800 -43.450600 -10.158700
N -30.664800 -42.863600 -10.284800
O -30.526800 -41.780600 -10.798500
N -29.595200 -44.697800 -9.249000
C -29.481800 -43.527900 -9.793600
N -28.950600 -47.059000 -8.068800
N -28.296000 -44.966800 -8.949000
N -28.289000 -48.107600 -7.542000
N -28.261900 -42.987200 -9.873100
H -28.035000 -42.220800 -10.190400
C -28.001200 -46.210700 -8.366000
C -27.489700 -43.926100 -9.342900
N -27.007000 -47.904600 -7.520100
N -26.813700 -46.680600 -8.057100
N -26.164600 -44.102700 -9.127100
H -26.058600 -46.285400 -8.173400
O -25.729200 -42.061800 -10.003200
N -25.342900 -43.154300 -9.539500
O -24.129700 -43.412900 -9.446300
