19
Fragment
O -27.449900 -37.570600 -9.562800
N -26.237400 -37.838600 -9.578500
O -25.828600 -38.948500 -9.979200
H -25.579900 -34.683200 -8.224900
N -25.432400 -36.882900 -9.140800
N -24.834300 -34.260100 -8.151000
N -24.683700 -32.982400 -7.768700
C -24.092400 -37.072200 -9.255200
C -23.639100 -34.748300 -8.392800
H -23.509400 -38.801800 -10.018200
N -23.419000 -32.753000 -7.790600
N -23.320800 -36.033400 -8.817500
N -23.299400 -38.029400 -9.703200
N -22.712400 -33.839300 -8.174200
C -22.092300 -37.488900 -9.542200
N -22.000600 -36.307200 -9.031900
O -20.991500 -39.209400 -10.549900
N -20.863100 -38.176300 -9.925100
O -19.818300 -37.650900 -9.634000
19
Fragment
O -31.409600 -37.563900 -13.583800
N -30.352700 -38.150900 -13.709800
O -30.214700 -39.233900 -14.223600
N -29.283100 -36.316700 -12.674100
C -29.169700 -37.486600 -13.218700
N -28.638500 -33.955500 -11.493800
N -27.983900 -36.047700 -12.374000
N -27.976900 -32.906900 -10.967000
N -27.949800 -38.027300 -13.298100
H -27.722900 -38.793700 -13.615400
C -27.689000 -34.803800 -11.791100
C -27.177600 -37.088400 -12.767900
N -26.694800 -33.109900 -10.945100
N -26.501500 -34.333900 -11.482200
N -25.852400 -36.911800 -12.552200
H -25.746500 -34.729100 -11.598500
O -25.417000 -38.952700 -13.428300
N -25.030800 -37.860200 -12.964500
O -23.817500 -37.601600 -12.871400
38
Fragment
O -27.449900 -37.570600 -9.562800
N -26.237400 -37.838600 -9.578500
O -25.828600 -38.948500 -9.979200
H -25.579900 -34.683200 -8.224900
N -25.432400 -36.882900 -9.140800
N -24.834300 -34.260100 -8.151000
N -24.683700 -32.982400 -7.768700
C -24.092400 -37.072200 -9.255200
C -23.639100 -34.748300 -8.392800
H -23.509400 -38.801800 -10.018200
N -23.419000 -32.753000 -7.790600
N -23.320800 -36.033400 -8.817500
N -23.299400 -38.029400 -9.703200
N -22.712400 -33.839300 -8.174200
C -22.092300 -37.488900 -9.542200
N -22.000600 -36.307200 -9.031900
O -20.991500 -39.209400 -10.549900
N -20.863100 -38.176300 -9.925100
O -19.818300 -37.650900 -9.634000
O -31.409600 -37.563900 -13.583800
N -30.352700 -38.150900 -13.709800
O -30.214700 -39.233900 -14.223600
N -29.283100 -36.316700 -12.674100
C -29.169700 -37.486600 -13.218700
N -28.638500 -33.955500 -11.493800
N -27.983900 -36.047700 -12.374000
N -27.976900 -32.906900 -10.967000
N -27.949800 -38.027300 -13.298100
H -27.722900 -38.793700 -13.615400
C -27.689000 -34.803800 -11.791100
C -27.177600 -37.088400 -12.767900
N -26.694800 -33.109900 -10.945100
N -26.501500 -34.333900 -11.482200
N -25.852400 -36.911800 -12.552200
H -25.746500 -34.729100 -11.598500
O -25.417000 -38.952700 -13.428300
N -25.030800 -37.860200 -12.964500
O -23.817500 -37.601600 -12.871400
