19
Fragment
O -27.449900 -37.570600 -9.562800
N -26.237400 -37.838600 -9.578500
O -25.828600 -38.948500 -9.979200
H -25.579900 -34.683200 -8.224900
N -25.432400 -36.882900 -9.140800
N -24.834300 -34.260100 -8.151000
N -24.683700 -32.982400 -7.768700
C -24.092400 -37.072200 -9.255200
C -23.639100 -34.748300 -8.392800
H -23.509400 -38.801800 -10.018200
N -23.419000 -32.753000 -7.790600
N -23.320800 -36.033400 -8.817500
N -23.299400 -38.029400 -9.703200
N -22.712400 -33.839300 -8.174200
C -22.092300 -37.488900 -9.542200
N -22.000600 -36.307200 -9.031900
O -20.991500 -39.209400 -10.549900
N -20.863100 -38.176300 -9.925100
O -19.818300 -37.650900 -9.634000
3
Fragment
H -24.190900 -41.086900 -10.326300
O -23.575400 -40.580400 -10.643000
H -22.825000 -40.980100 -10.582900
22
Fragment
O -27.449900 -37.570600 -9.562800
N -26.237400 -37.838600 -9.578500
O -25.828600 -38.948500 -9.979200
H -25.579900 -34.683200 -8.224900
N -25.432400 -36.882900 -9.140800
N -24.834300 -34.260100 -8.151000
N -24.683700 -32.982400 -7.768700
C -24.092400 -37.072200 -9.255200
C -23.639100 -34.748300 -8.392800
H -23.509400 -38.801800 -10.018200
N -23.419000 -32.753000 -7.790600
N -23.320800 -36.033400 -8.817500
N -23.299400 -38.029400 -9.703200
N -22.712400 -33.839300 -8.174200
C -22.092300 -37.488900 -9.542200
N -22.000600 -36.307200 -9.031900
O -20.991500 -39.209400 -10.549900
N -20.863100 -38.176300 -9.925100
O -19.818300 -37.650900 -9.634000
H -24.190900 -41.086900 -10.326300
O -23.575400 -40.580400 -10.643000
H -22.825000 -40.980100 -10.582900
