20
Fragment
N -8.186400 -16.257700 -22.968400
C -8.111100 -15.125900 -23.146200
N -8.091600 -10.387900 -16.880600
C -8.061600 -10.163700 -18.005900
N -8.061300 -7.293100 -19.874500
N -8.054500 -13.119400 -25.939800
C -8.042700 -8.425800 -19.687100
C -8.040800 -13.367100 -24.818500
C -8.034000 -13.717600 -23.425600
C -8.028400 -9.829900 -19.404700
C -7.996400 -10.786700 -20.395500
C -7.995600 -12.758500 -22.439100
C -7.980200 -12.198800 -20.072100
C -7.980100 -13.133300 -21.040500
C -7.976100 -10.409800 -21.797200
C -7.970700 -11.350400 -22.759500
H -7.970600 -14.053300 -20.802800
H -7.968800 -12.468900 -19.161500
H -7.966200 -9.491100 -22.037300
H -7.950600 -11.082300 -23.670600
20
Fragment
N -8.849900 -7.148500 -22.968400
C -8.774600 -6.016600 -23.146200
N -8.755100 -1.278600 -16.880600
C -8.725100 -1.054500 -18.005900
N -8.724800 1.816200 -19.874500
N -8.718000 -4.010100 -25.939800
C -8.706200 0.683400 -19.687100
C -8.704300 -4.257800 -24.818500
C -8.697500 -4.608300 -23.425600
C -8.691900 -0.720700 -19.404700
C -8.659900 -1.677500 -20.395500
C -8.659100 -3.649200 -22.439100
C -8.643700 -3.089500 -20.072100
C -8.643600 -4.024000 -21.040500
C -8.639600 -1.300500 -21.797200
C -8.634300 -2.241200 -22.759500
H -8.634100 -4.944000 -20.802800
H -8.632400 -3.359600 -19.161500
H -8.629700 -0.381800 -22.037300
H -8.614100 -1.973000 -23.670600
40
Fragment
N -8.186400 -16.257700 -22.968400
C -8.111100 -15.125900 -23.146200
N -8.091600 -10.387900 -16.880600
C -8.061600 -10.163700 -18.005900
N -8.061300 -7.293100 -19.874500
N -8.054500 -13.119400 -25.939800
C -8.042700 -8.425800 -19.687100
C -8.040800 -13.367100 -24.818500
C -8.034000 -13.717600 -23.425600
C -8.028400 -9.829900 -19.404700
C -7.996400 -10.786700 -20.395500
C -7.995600 -12.758500 -22.439100
C -7.980200 -12.198800 -20.072100
C -7.980100 -13.133300 -21.040500
C -7.976100 -10.409800 -21.797200
C -7.970700 -11.350400 -22.759500
H -7.970600 -14.053300 -20.802800
H -7.968800 -12.468900 -19.161500
H -7.966200 -9.491100 -22.037300
H -7.950600 -11.082300 -23.670600
N -8.849900 -7.148500 -22.968400
C -8.774600 -6.016600 -23.146200
N -8.755100 -1.278600 -16.880600
C -8.725100 -1.054500 -18.005900
N -8.724800 1.816200 -19.874500
N -8.718000 -4.010100 -25.939800
C -8.706200 0.683400 -19.687100
C -8.704300 -4.257800 -24.818500
C -8.697500 -4.608300 -23.425600
C -8.691900 -0.720700 -19.404700
C -8.659900 -1.677500 -20.395500
C -8.659100 -3.649200 -22.439100
C -8.643700 -3.089500 -20.072100
C -8.643600 -4.024000 -21.040500
C -8.639600 -1.300500 -21.797200
C -8.634300 -2.241200 -22.759500
H -8.634100 -4.944000 -20.802800
H -8.632400 -3.359600 -19.161500
H -8.629700 -0.381800 -22.037300
H -8.614100 -1.973000 -23.670600
