20
Fragment
N -8.186400 -16.257700 -22.968400
C -8.111100 -15.125900 -23.146200
N -8.091600 -10.387900 -16.880600
C -8.061600 -10.163700 -18.005900
N -8.061300 -7.293100 -19.874500
N -8.054500 -13.119400 -25.939800
C -8.042700 -8.425800 -19.687100
C -8.040800 -13.367100 -24.818500
C -8.034000 -13.717600 -23.425600
C -8.028400 -9.829900 -19.404700
C -7.996400 -10.786700 -20.395500
C -7.995600 -12.758500 -22.439100
C -7.980200 -12.198800 -20.072100
C -7.980100 -13.133300 -21.040500
C -7.976100 -10.409800 -21.797200
C -7.970700 -11.350400 -22.759500
H -7.970600 -14.053300 -20.802800
H -7.968800 -12.468900 -19.161500
H -7.966200 -9.491100 -22.037300
H -7.950600 -11.082300 -23.670600
28
Fragment
H -12.427200 -8.916500 -14.280500
H -12.234300 -9.965100 -15.474000
C -11.821000 -9.221100 -14.988100
H -11.646500 -8.482700 -15.608500
H -10.864100 -14.608500 -11.476400
H -10.843200 -12.612300 -9.458300
C -10.818600 -14.143700 -12.303700
H -10.814200 -15.786800 -13.500100
C -10.801400 -11.779800 -9.914600
C -10.786600 -14.837300 -13.503100
C -10.783700 -12.752100 -12.335600
C -10.781500 -11.733800 -11.314400
H -10.775600 -10.608000 -8.261300
C -10.759700 -10.593600 -9.211100
C -10.713400 -10.488100 -11.980800
C -10.713000 -14.145000 -14.723500
C -10.712900 -12.064200 -13.574900
C -10.694300 -9.362300 -9.888300
H -10.685400 -14.642300 -15.532600
N -10.682500 -10.707200 -13.351700
C -10.678900 -12.763900 -14.785300
C -10.675800 -9.289900 -11.269600
H -10.661900 -8.558200 -9.383200
H -10.638500 -8.452900 -11.717700
H -10.634300 -12.307800 -15.617500
C -10.514000 -9.682800 -14.370800
H -10.057000 -8.902900 -13.967700
H -9.929600 -10.037600 -15.086900
48
Fragment
N -8.186400 -16.257700 -22.968400
C -8.111100 -15.125900 -23.146200
N -8.091600 -10.387900 -16.880600
C -8.061600 -10.163700 -18.005900
N -8.061300 -7.293100 -19.874500
N -8.054500 -13.119400 -25.939800
C -8.042700 -8.425800 -19.687100
C -8.040800 -13.367100 -24.818500
C -8.034000 -13.717600 -23.425600
C -8.028400 -9.829900 -19.404700
C -7.996400 -10.786700 -20.395500
C -7.995600 -12.758500 -22.439100
C -7.980200 -12.198800 -20.072100
C -7.980100 -13.133300 -21.040500
C -7.976100 -10.409800 -21.797200
C -7.970700 -11.350400 -22.759500
H -7.970600 -14.053300 -20.802800
H -7.968800 -12.468900 -19.161500
H -7.966200 -9.491100 -22.037300
H -7.950600 -11.082300 -23.670600
H -12.427200 -8.916500 -14.280500
H -12.234300 -9.965100 -15.474000
C -11.821000 -9.221100 -14.988100
H -11.646500 -8.482700 -15.608500
H -10.864100 -14.608500 -11.476400
H -10.843200 -12.612300 -9.458300
C -10.818600 -14.143700 -12.303700
H -10.814200 -15.786800 -13.500100
C -10.801400 -11.779800 -9.914600
C -10.786600 -14.837300 -13.503100
C -10.783700 -12.752100 -12.335600
C -10.781500 -11.733800 -11.314400
H -10.775600 -10.608000 -8.261300
C -10.759700 -10.593600 -9.211100
C -10.713400 -10.488100 -11.980800
C -10.713000 -14.145000 -14.723500
C -10.712900 -12.064200 -13.574900
C -10.694300 -9.362300 -9.888300
H -10.685400 -14.642300 -15.532600
N -10.682500 -10.707200 -13.351700
C -10.678900 -12.763900 -14.785300
C -10.675800 -9.289900 -11.269600
H -10.661900 -8.558200 -9.383200
H -10.638500 -8.452900 -11.717700
H -10.634300 -12.307800 -15.617500
C -10.514000 -9.682800 -14.370800
H -10.057000 -8.902900 -13.967700
H -9.929600 -10.037600 -15.086900
