20
Fragment
N -8.186400 -16.257700 -22.968400
C -8.111100 -15.125900 -23.146200
N -8.091600 -10.387900 -16.880600
C -8.061600 -10.163700 -18.005900
N -8.061300 -7.293100 -19.874500
N -8.054500 -13.119400 -25.939800
C -8.042700 -8.425800 -19.687100
C -8.040800 -13.367100 -24.818500
C -8.034000 -13.717600 -23.425600
C -8.028400 -9.829900 -19.404700
C -7.996400 -10.786700 -20.395500
C -7.995600 -12.758500 -22.439100
C -7.980200 -12.198800 -20.072100
C -7.980100 -13.133300 -21.040500
C -7.976100 -10.409800 -21.797200
C -7.970700 -11.350400 -22.759500
H -7.970600 -14.053300 -20.802800
H -7.968800 -12.468900 -19.161500
H -7.966200 -9.491100 -22.037300
H -7.950600 -11.082300 -23.670600
28
Fragment
H -11.224000 -7.166500 -31.028500
H -11.031100 -8.215100 -32.222000
C -10.617800 -7.471100 -31.736100
H -10.443300 -6.732700 -32.356400
H -9.660900 -12.858500 -28.224400
H -9.640000 -10.862300 -26.206200
C -9.615400 -12.393700 -29.051700
H -9.611000 -14.036800 -30.248000
C -9.598100 -10.029900 -26.662600
C -9.583400 -13.087300 -30.251100
C -9.580500 -11.002100 -29.083600
C -9.578300 -9.983800 -28.062400
H -9.572400 -8.858000 -25.009300
C -9.556500 -8.843600 -25.959000
C -9.510200 -8.738200 -28.728800
C -9.509800 -12.395000 -31.471500
C -9.509700 -10.314200 -30.322900
C -9.491100 -7.612300 -26.636300
H -9.482200 -12.892300 -32.280600
N -9.479300 -8.957200 -30.099700
C -9.475700 -11.013900 -31.533300
C -9.472600 -7.539900 -28.017500
H -9.458600 -6.808200 -26.131200
H -9.435300 -6.702900 -28.465700
H -9.431100 -10.557800 -32.365500
C -9.310800 -7.932800 -31.118800
H -8.853800 -7.152900 -30.715600
H -8.726400 -8.287600 -31.834900
48
Fragment
N -8.186400 -16.257700 -22.968400
C -8.111100 -15.125900 -23.146200
N -8.091600 -10.387900 -16.880600
C -8.061600 -10.163700 -18.005900
N -8.061300 -7.293100 -19.874500
N -8.054500 -13.119400 -25.939800
C -8.042700 -8.425800 -19.687100
C -8.040800 -13.367100 -24.818500
C -8.034000 -13.717600 -23.425600
C -8.028400 -9.829900 -19.404700
C -7.996400 -10.786700 -20.395500
C -7.995600 -12.758500 -22.439100
C -7.980200 -12.198800 -20.072100
C -7.980100 -13.133300 -21.040500
C -7.976100 -10.409800 -21.797200
C -7.970700 -11.350400 -22.759500
H -7.970600 -14.053300 -20.802800
H -7.968800 -12.468900 -19.161500
H -7.966200 -9.491100 -22.037300
H -7.950600 -11.082300 -23.670600
H -11.224000 -7.166500 -31.028500
H -11.031100 -8.215100 -32.222000
C -10.617800 -7.471100 -31.736100
H -10.443300 -6.732700 -32.356400
H -9.660900 -12.858500 -28.224400
H -9.640000 -10.862300 -26.206200
C -9.615400 -12.393700 -29.051700
H -9.611000 -14.036800 -30.248000
C -9.598100 -10.029900 -26.662600
C -9.583400 -13.087300 -30.251100
C -9.580500 -11.002100 -29.083600
C -9.578300 -9.983800 -28.062400
H -9.572400 -8.858000 -25.009300
C -9.556500 -8.843600 -25.959000
C -9.510200 -8.738200 -28.728800
C -9.509800 -12.395000 -31.471500
C -9.509700 -10.314200 -30.322900
C -9.491100 -7.612300 -26.636300
H -9.482200 -12.892300 -32.280600
N -9.479300 -8.957200 -30.099700
C -9.475700 -11.013900 -31.533300
C -9.472600 -7.539900 -28.017500
H -9.458600 -6.808200 -26.131200
H -9.435300 -6.702900 -28.465700
H -9.431100 -10.557800 -32.365500
C -9.310800 -7.932800 -31.118800
H -8.853800 -7.152900 -30.715600
H -8.726400 -8.287600 -31.834900
