20
Fragment
N -8.186400 -16.257700 -22.968400
C -8.111100 -15.125900 -23.146200
N -8.091600 -10.387900 -16.880600
C -8.061600 -10.163700 -18.005900
N -8.061300 -7.293100 -19.874500
N -8.054500 -13.119400 -25.939800
C -8.042700 -8.425800 -19.687100
C -8.040800 -13.367100 -24.818500
C -8.034000 -13.717600 -23.425600
C -8.028400 -9.829900 -19.404700
C -7.996400 -10.786700 -20.395500
C -7.995600 -12.758500 -22.439100
C -7.980200 -12.198800 -20.072100
C -7.980100 -13.133300 -21.040500
C -7.976100 -10.409800 -21.797200
C -7.970700 -11.350400 -22.759500
H -7.970600 -14.053300 -20.802800
H -7.968800 -12.468900 -19.161500
H -7.966200 -9.491100 -22.037300
H -7.950600 -11.082300 -23.670600
28
Fragment
H -12.811700 -4.680900 -18.409100
H -12.684400 -5.815700 -19.528300
C -12.227400 -5.035800 -19.125200
H -12.107100 -2.410800 -17.878500
H -12.102900 -6.265600 -21.778200
H -12.079500 -6.160300 -24.112700
C -12.065500 -5.428600 -22.226400
C -12.062500 -1.954600 -18.710700
N -12.058900 -4.011400 -20.144300
H -12.056000 -0.076200 -17.963400
C -12.047100 -5.356300 -23.607600
C -12.028500 -2.654400 -19.921100
C -12.028400 -0.573600 -18.772500
C -12.028000 -4.230400 -21.515100
C -11.981700 -4.125000 -24.284900
H -11.965800 -4.110600 -25.234700
C -11.959900 -2.984800 -22.181500
C -11.957600 -1.966500 -21.160400
C -11.954700 0.118700 -19.992900
C -11.940000 -2.938700 -23.581300
H -11.927200 1.068200 -19.995900
C -11.922800 -0.574900 -21.192200
H -11.898100 -2.106200 -24.037700
H -11.877300 -0.110000 -22.019600
H -11.094800 -6.235800 -17.887500
C -10.920400 -5.497500 -18.507900
H -10.507100 -4.753400 -18.022000
H -10.314200 -5.802000 -19.215500
48
Fragment
N -8.186400 -16.257700 -22.968400
C -8.111100 -15.125900 -23.146200
N -8.091600 -10.387900 -16.880600
C -8.061600 -10.163700 -18.005900
N -8.061300 -7.293100 -19.874500
N -8.054500 -13.119400 -25.939800
C -8.042700 -8.425800 -19.687100
C -8.040800 -13.367100 -24.818500
C -8.034000 -13.717600 -23.425600
C -8.028400 -9.829900 -19.404700
C -7.996400 -10.786700 -20.395500
C -7.995600 -12.758500 -22.439100
C -7.980200 -12.198800 -20.072100
C -7.980100 -13.133300 -21.040500
C -7.976100 -10.409800 -21.797200
C -7.970700 -11.350400 -22.759500
H -7.970600 -14.053300 -20.802800
H -7.968800 -12.468900 -19.161500
H -7.966200 -9.491100 -22.037300
H -7.950600 -11.082300 -23.670600
H -12.811700 -4.680900 -18.409100
H -12.684400 -5.815700 -19.528300
C -12.227400 -5.035800 -19.125200
H -12.107100 -2.410800 -17.878500
H -12.102900 -6.265600 -21.778200
H -12.079500 -6.160300 -24.112700
C -12.065500 -5.428600 -22.226400
C -12.062500 -1.954600 -18.710700
N -12.058900 -4.011400 -20.144300
H -12.056000 -0.076200 -17.963400
C -12.047100 -5.356300 -23.607600
C -12.028500 -2.654400 -19.921100
C -12.028400 -0.573600 -18.772500
C -12.028000 -4.230400 -21.515100
C -11.981700 -4.125000 -24.284900
H -11.965800 -4.110600 -25.234700
C -11.959900 -2.984800 -22.181500
C -11.957600 -1.966500 -21.160400
C -11.954700 0.118700 -19.992900
C -11.940000 -2.938700 -23.581300
H -11.927200 1.068200 -19.995900
C -11.922800 -0.574900 -21.192200
H -11.898100 -2.106200 -24.037700
H -11.877300 -0.110000 -22.019600
H -11.094800 -6.235800 -17.887500
C -10.920400 -5.497500 -18.507900
H -10.507100 -4.753400 -18.022000
H -10.314200 -5.802000 -19.215500
