20
Fragment
N -8.186400 -16.257700 -22.968400
C -8.111100 -15.125900 -23.146200
N -8.091600 -10.387900 -16.880600
C -8.061600 -10.163700 -18.005900
N -8.061300 -7.293100 -19.874500
N -8.054500 -13.119400 -25.939800
C -8.042700 -8.425800 -19.687100
C -8.040800 -13.367100 -24.818500
C -8.034000 -13.717600 -23.425600
C -8.028400 -9.829900 -19.404700
C -7.996400 -10.786700 -20.395500
C -7.995600 -12.758500 -22.439100
C -7.980200 -12.198800 -20.072100
C -7.980100 -13.133300 -21.040500
C -7.976100 -10.409800 -21.797200
C -7.970700 -11.350400 -22.759500
H -7.970600 -14.053300 -20.802800
H -7.968800 -12.468900 -19.161500
H -7.966200 -9.491100 -22.037300
H -7.950600 -11.082300 -23.670600
20
Fragment
H -6.305400 -10.995600 -26.573400
H -6.289800 -12.586700 -28.206600
H -6.287100 -9.608900 -31.082400
H -6.285400 -8.024500 -29.441100
C -6.285200 -10.727400 -27.484500
C -6.279900 -11.668000 -28.446800
C -6.275800 -9.879100 -30.171800
C -6.275800 -8.944500 -29.203500
C -6.260400 -9.319300 -27.804800
C -6.259500 -11.291100 -29.848400
C -6.227600 -12.247900 -30.839200
C -6.222000 -8.360200 -26.818400
C -6.215100 -8.710800 -25.425500
C -6.213300 -13.652000 -30.556900
N -6.201400 -8.958500 -24.304200
N -6.194600 -14.784700 -30.369500
C -6.194400 -11.914100 -32.238000
N -6.164300 -11.689900 -33.363300
C -6.144800 -6.951900 -27.097700
N -6.069500 -5.820100 -27.275600
40
Fragment
N -8.186400 -16.257700 -22.968400
C -8.111100 -15.125900 -23.146200
N -8.091600 -10.387900 -16.880600
C -8.061600 -10.163700 -18.005900
N -8.061300 -7.293100 -19.874500
N -8.054500 -13.119400 -25.939800
C -8.042700 -8.425800 -19.687100
C -8.040800 -13.367100 -24.818500
C -8.034000 -13.717600 -23.425600
C -8.028400 -9.829900 -19.404700
C -7.996400 -10.786700 -20.395500
C -7.995600 -12.758500 -22.439100
C -7.980200 -12.198800 -20.072100
C -7.980100 -13.133300 -21.040500
C -7.976100 -10.409800 -21.797200
C -7.970700 -11.350400 -22.759500
H -7.970600 -14.053300 -20.802800
H -7.968800 -12.468900 -19.161500
H -7.966200 -9.491100 -22.037300
H -7.950600 -11.082300 -23.670600
H -6.305400 -10.995600 -26.573400
H -6.289800 -12.586700 -28.206600
H -6.287100 -9.608900 -31.082400
H -6.285400 -8.024500 -29.441100
C -6.285200 -10.727400 -27.484500
C -6.279900 -11.668000 -28.446800
C -6.275800 -9.879100 -30.171800
C -6.275800 -8.944500 -29.203500
C -6.260400 -9.319300 -27.804800
C -6.259500 -11.291100 -29.848400
C -6.227600 -12.247900 -30.839200
C -6.222000 -8.360200 -26.818400
C -6.215100 -8.710800 -25.425500
C -6.213300 -13.652000 -30.556900
N -6.201400 -8.958500 -24.304200
N -6.194600 -14.784700 -30.369500
C -6.194400 -11.914100 -32.238000
N -6.164300 -11.689900 -33.363300
C -6.144800 -6.951900 -27.097700
N -6.069500 -5.820100 -27.275600
