20
Fragment
N -8.186400 -16.257700 -22.968400
C -8.111100 -15.125900 -23.146200
N -8.091600 -10.387900 -16.880600
C -8.061600 -10.163700 -18.005900
N -8.061300 -7.293100 -19.874500
N -8.054500 -13.119400 -25.939800
C -8.042700 -8.425800 -19.687100
C -8.040800 -13.367100 -24.818500
C -8.034000 -13.717600 -23.425600
C -8.028400 -9.829900 -19.404700
C -7.996400 -10.786700 -20.395500
C -7.995600 -12.758500 -22.439100
C -7.980200 -12.198800 -20.072100
C -7.980100 -13.133300 -21.040500
C -7.976100 -10.409800 -21.797200
C -7.970700 -11.350400 -22.759500
H -7.970600 -14.053300 -20.802800
H -7.968800 -12.468900 -19.161500
H -7.966200 -9.491100 -22.037300
H -7.950600 -11.082300 -23.670600
20
Fragment
N -7.522900 -25.367000 -22.968400
C -7.447600 -24.235200 -23.146200
N -7.428100 -19.497200 -16.880600
C -7.398100 -19.273000 -18.005900
N -7.397800 -16.402400 -19.874500
N -7.391000 -22.228600 -25.939800
C -7.379200 -17.535100 -19.687100
C -7.377300 -22.476300 -24.818500
C -7.370500 -22.826800 -23.425600
C -7.364900 -18.939200 -19.404700
C -7.332900 -19.896000 -20.395500
C -7.332100 -21.867800 -22.439100
C -7.316700 -21.308000 -20.072100
C -7.316600 -22.242600 -21.040500
C -7.312600 -19.519100 -21.797200
C -7.307200 -20.459700 -22.759500
H -7.307100 -23.162600 -20.802800
H -7.305300 -21.578200 -19.161500
H -7.302700 -18.600400 -22.037300
H -7.287100 -20.191500 -23.670600
40
Fragment
N -8.186400 -16.257700 -22.968400
C -8.111100 -15.125900 -23.146200
N -8.091600 -10.387900 -16.880600
C -8.061600 -10.163700 -18.005900
N -8.061300 -7.293100 -19.874500
N -8.054500 -13.119400 -25.939800
C -8.042700 -8.425800 -19.687100
C -8.040800 -13.367100 -24.818500
C -8.034000 -13.717600 -23.425600
C -8.028400 -9.829900 -19.404700
C -7.996400 -10.786700 -20.395500
C -7.995600 -12.758500 -22.439100
C -7.980200 -12.198800 -20.072100
C -7.980100 -13.133300 -21.040500
C -7.976100 -10.409800 -21.797200
C -7.970700 -11.350400 -22.759500
H -7.970600 -14.053300 -20.802800
H -7.968800 -12.468900 -19.161500
H -7.966200 -9.491100 -22.037300
H -7.950600 -11.082300 -23.670600
N -7.522900 -25.367000 -22.968400
C -7.447600 -24.235200 -23.146200
N -7.428100 -19.497200 -16.880600
C -7.398100 -19.273000 -18.005900
N -7.397800 -16.402400 -19.874500
N -7.391000 -22.228600 -25.939800
C -7.379200 -17.535100 -19.687100
C -7.377300 -22.476300 -24.818500
C -7.370500 -22.826800 -23.425600
C -7.364900 -18.939200 -19.404700
C -7.332900 -19.896000 -20.395500
C -7.332100 -21.867800 -22.439100
C -7.316700 -21.308000 -20.072100
C -7.316600 -22.242600 -21.040500
C -7.312600 -19.519100 -21.797200
C -7.307200 -20.459700 -22.759500
H -7.307100 -23.162600 -20.802800
H -7.305300 -21.578200 -19.161500
H -7.302700 -18.600400 -22.037300
H -7.287100 -20.191500 -23.670600
