36
Fragment
H -17.316100 -19.260900 -15.279500
O -16.538100 -15.972400 -12.295500
C -16.442900 -19.567100 -15.534100
H -16.342100 -20.488900 -15.287100
H -16.335400 -19.476400 -16.483100
N -15.815200 -17.907700 -13.980200
H -15.683800 -14.153000 -10.869000
C -15.399700 -18.744800 -14.832300
C -15.355800 -16.183200 -12.469800
N -14.879300 -17.123200 -13.307100
C -14.772500 -14.322800 -10.937600
C -14.341200 -15.359000 -11.750500
H -14.034500 -17.236300 -13.421900
C -13.985800 -18.990600 -15.239200
N -13.923300 -13.562800 -10.251000
H -13.918400 -18.956100 -16.196900
H -13.709700 -19.856100 -14.930200
H -13.610700 -10.327100 -7.957000
H -13.419700 -18.317300 -14.855100
H -13.390100 -10.245400 -6.404100
H -13.167200 -8.982900 -7.312700
C -13.080000 -9.938000 -7.259400
N -13.041500 -15.636000 -11.893700
H -12.959500 -11.902100 -8.816600
C -12.630300 -13.846600 -10.381500
C -12.189600 -14.875200 -11.202000
N -12.113700 -12.049500 -8.864700
C -11.661900 -10.323900 -7.434600
C -11.621900 -13.044500 -9.635000
H -11.277000 -15.038400 -11.272700
N -11.206300 -11.269900 -8.151000
H -10.751000 -9.582300 -5.789300
H -10.726900 -8.504100 -6.921000
C -10.650300 -9.513100 -6.701200
O -10.437100 -13.295000 -9.732900
H -9.782100 -9.828100 -6.931900
36
Fragment
H -14.121600 -23.729000 -14.832300
O -13.466600 -20.262100 -12.031200
C -13.253300 -24.044000 -15.063000
H -13.176700 -25.053000 -14.843100
H -13.152600 -23.974800 -15.974900
N -12.697300 -22.287100 -13.613100
H -12.626700 -18.518700 -10.491400
C -12.281700 -20.512500 -12.129100
C -12.241800 -23.233200 -14.329500
N -11.790000 -21.507600 -12.899400
C -11.714000 -18.681900 -10.562100
C -11.273300 -19.710400 -11.382600
H -10.944100 -21.655000 -12.947500
N -10.862200 -17.921000 -9.870500
C -10.823700 -23.619100 -14.504700
H -10.736500 -24.574200 -14.451400
H -10.513600 -23.311600 -15.360000
H -10.483900 -15.239800 -6.909000
H -10.292900 -23.230000 -13.807200
H -10.193900 -13.701000 -6.833900
H -9.985200 -14.600900 -5.567300
N -9.980400 -19.994300 -11.513100
C -9.917900 -14.566500 -6.524900
H -9.869200 -16.320800 -8.342200
C -9.562500 -18.198100 -10.013700
C -9.131200 -19.234300 -10.826600
N -9.024300 -16.433900 -8.457000
C -8.547800 -17.373900 -9.294400
C -8.504000 -14.812300 -6.931900
H -8.219800 -19.404100 -10.895100
N -8.088500 -15.649400 -7.783900
H -7.568300 -14.080600 -5.281100
H -7.561500 -13.068200 -6.477000
C -7.460800 -13.990000 -6.230000
O -7.365600 -17.584700 -9.468600
H -6.587500 -14.296100 -6.484600
72
Fragment
H -17.316100 -19.260900 -15.279500
O -16.538100 -15.972400 -12.295500
C -16.442900 -19.567100 -15.534100
H -16.342100 -20.488900 -15.287100
H -16.335400 -19.476400 -16.483100
N -15.815200 -17.907700 -13.980200
H -15.683800 -14.153000 -10.869000
C -15.399700 -18.744800 -14.832300
C -15.355800 -16.183200 -12.469800
N -14.879300 -17.123200 -13.307100
C -14.772500 -14.322800 -10.937600
C -14.341200 -15.359000 -11.750500
H -14.034500 -17.236300 -13.421900
C -13.985800 -18.990600 -15.239200
N -13.923300 -13.562800 -10.251000
H -13.918400 -18.956100 -16.196900
H -13.709700 -19.856100 -14.930200
H -13.610700 -10.327100 -7.957000
H -13.419700 -18.317300 -14.855100
H -13.390100 -10.245400 -6.404100
H -13.167200 -8.982900 -7.312700
C -13.080000 -9.938000 -7.259400
N -13.041500 -15.636000 -11.893700
H -12.959500 -11.902100 -8.816600
C -12.630300 -13.846600 -10.381500
C -12.189600 -14.875200 -11.202000
N -12.113700 -12.049500 -8.864700
C -11.661900 -10.323900 -7.434600
C -11.621900 -13.044500 -9.635000
H -11.277000 -15.038400 -11.272700
N -11.206300 -11.269900 -8.151000
H -10.751000 -9.582300 -5.789300
H -10.726900 -8.504100 -6.921000
C -10.650300 -9.513100 -6.701200
O -10.437100 -13.295000 -9.732900
H -9.782100 -9.828100 -6.931900
H -14.121600 -23.729000 -14.832300
O -13.466600 -20.262100 -12.031200
C -13.253300 -24.044000 -15.063000
H -13.176700 -25.053000 -14.843100
H -13.152600 -23.974800 -15.974900
N -12.697300 -22.287100 -13.613100
H -12.626700 -18.518700 -10.491400
C -12.281700 -20.512500 -12.129100
C -12.241800 -23.233200 -14.329500
N -11.790000 -21.507600 -12.899400
C -11.714000 -18.681900 -10.562100
C -11.273300 -19.710400 -11.382600
H -10.944100 -21.655000 -12.947500
N -10.862200 -17.921000 -9.870500
C -10.823700 -23.619100 -14.504700
H -10.736500 -24.574200 -14.451400
H -10.513600 -23.311600 -15.360000
H -10.483900 -15.239800 -6.909000
H -10.292900 -23.230000 -13.807200
H -10.193900 -13.701000 -6.833900
H -9.985200 -14.600900 -5.567300
N -9.980400 -19.994300 -11.513100
C -9.917900 -14.566500 -6.524900
H -9.869200 -16.320800 -8.342200
C -9.562500 -18.198100 -10.013700
C -9.131200 -19.234300 -10.826600
N -9.024300 -16.433900 -8.457000
C -8.547800 -17.373900 -9.294400
C -8.504000 -14.812300 -6.931900
H -8.219800 -19.404100 -10.895100
N -8.088500 -15.649400 -7.783900
H -7.568300 -14.080600 -5.281100
H -7.561500 -13.068200 -6.477000
C -7.460800 -13.990000 -6.230000
O -7.365600 -17.584700 -9.468600
H -6.587500 -14.296100 -6.484600
