36
Fragment
H -17.316100 -19.260900 -15.279500
O -16.538100 -15.972400 -12.295500
C -16.442900 -19.567100 -15.534100
H -16.342100 -20.488900 -15.287100
H -16.335400 -19.476400 -16.483100
N -15.815200 -17.907700 -13.980200
H -15.683800 -14.153000 -10.869000
C -15.399700 -18.744800 -14.832300
C -15.355800 -16.183200 -12.469800
N -14.879300 -17.123200 -13.307100
C -14.772500 -14.322800 -10.937600
C -14.341200 -15.359000 -11.750500
H -14.034500 -17.236300 -13.421900
C -13.985800 -18.990600 -15.239200
N -13.923300 -13.562800 -10.251000
H -13.918400 -18.956100 -16.196900
H -13.709700 -19.856100 -14.930200
H -13.610700 -10.327100 -7.957000
H -13.419700 -18.317300 -14.855100
H -13.390100 -10.245400 -6.404100
H -13.167200 -8.982900 -7.312700
C -13.080000 -9.938000 -7.259400
N -13.041500 -15.636000 -11.893700
H -12.959500 -11.902100 -8.816600
C -12.630300 -13.846600 -10.381500
C -12.189600 -14.875200 -11.202000
N -12.113700 -12.049500 -8.864700
C -11.661900 -10.323900 -7.434600
C -11.621900 -13.044500 -9.635000
H -11.277000 -15.038400 -11.272700
N -11.206300 -11.269900 -8.151000
H -10.751000 -9.582300 -5.789300
H -10.726900 -8.504100 -6.921000
C -10.650300 -9.513100 -6.701200
O -10.437100 -13.295000 -9.732900
H -9.782100 -9.828100 -6.931900
36
Fragment
H -18.439200 -31.069200 -26.161600
O -17.661100 -27.780600 -23.177600
C -17.565900 -31.375300 -26.416200
H -17.465200 -32.297200 -26.169200
H -17.458400 -31.284700 -27.365100
N -16.938200 -29.715900 -24.862200
H -16.806900 -25.961200 -21.751100
C -16.522700 -30.553000 -25.714300
C -16.478900 -27.991500 -23.351800
N -16.002400 -28.931400 -24.189200
C -15.895500 -26.131000 -21.819600
C -15.464200 -27.167200 -22.632500
H -15.157500 -29.044600 -24.304000
C -15.108800 -30.798800 -26.121300
N -15.046300 -25.371100 -21.133100
H -15.041500 -30.764400 -27.078900
H -14.832800 -31.664300 -25.812300
H -14.733800 -22.135300 -18.839000
H -14.542800 -30.125600 -25.737200
H -14.513100 -22.053700 -17.286200
H -14.290200 -20.791100 -18.194800
C -14.203000 -21.746200 -18.141500
N -14.164500 -27.444300 -22.775700
H -14.082600 -23.710300 -19.698700
C -13.753400 -25.654900 -21.263500
C -13.312700 -26.683400 -22.084100
N -13.236700 -23.857800 -19.746800
C -12.784900 -22.132200 -18.316700
C -12.745000 -24.852800 -20.517000
H -12.400000 -26.846600 -22.154800
N -12.329400 -23.078200 -19.033100
H -11.874100 -21.390500 -16.671300
H -11.850000 -20.312400 -17.803100
C -11.773400 -21.321400 -17.583200
O -11.560100 -25.103200 -20.615000
H -10.905100 -21.636300 -17.813900
72
Fragment
H -17.316100 -19.260900 -15.279500
O -16.538100 -15.972400 -12.295500
C -16.442900 -19.567100 -15.534100
H -16.342100 -20.488900 -15.287100
H -16.335400 -19.476400 -16.483100
N -15.815200 -17.907700 -13.980200
H -15.683800 -14.153000 -10.869000
C -15.399700 -18.744800 -14.832300
C -15.355800 -16.183200 -12.469800
N -14.879300 -17.123200 -13.307100
C -14.772500 -14.322800 -10.937600
C -14.341200 -15.359000 -11.750500
H -14.034500 -17.236300 -13.421900
C -13.985800 -18.990600 -15.239200
N -13.923300 -13.562800 -10.251000
H -13.918400 -18.956100 -16.196900
H -13.709700 -19.856100 -14.930200
H -13.610700 -10.327100 -7.957000
H -13.419700 -18.317300 -14.855100
H -13.390100 -10.245400 -6.404100
H -13.167200 -8.982900 -7.312700
C -13.080000 -9.938000 -7.259400
N -13.041500 -15.636000 -11.893700
H -12.959500 -11.902100 -8.816600
C -12.630300 -13.846600 -10.381500
C -12.189600 -14.875200 -11.202000
N -12.113700 -12.049500 -8.864700
C -11.661900 -10.323900 -7.434600
C -11.621900 -13.044500 -9.635000
H -11.277000 -15.038400 -11.272700
N -11.206300 -11.269900 -8.151000
H -10.751000 -9.582300 -5.789300
H -10.726900 -8.504100 -6.921000
C -10.650300 -9.513100 -6.701200
O -10.437100 -13.295000 -9.732900
H -9.782100 -9.828100 -6.931900
H -18.439200 -31.069200 -26.161600
O -17.661100 -27.780600 -23.177600
C -17.565900 -31.375300 -26.416200
H -17.465200 -32.297200 -26.169200
H -17.458400 -31.284700 -27.365100
N -16.938200 -29.715900 -24.862200
H -16.806900 -25.961200 -21.751100
C -16.522700 -30.553000 -25.714300
C -16.478900 -27.991500 -23.351800
N -16.002400 -28.931400 -24.189200
C -15.895500 -26.131000 -21.819600
C -15.464200 -27.167200 -22.632500
H -15.157500 -29.044600 -24.304000
C -15.108800 -30.798800 -26.121300
N -15.046300 -25.371100 -21.133100
H -15.041500 -30.764400 -27.078900
H -14.832800 -31.664300 -25.812300
H -14.733800 -22.135300 -18.839000
H -14.542800 -30.125600 -25.737200
H -14.513100 -22.053700 -17.286200
H -14.290200 -20.791100 -18.194800
C -14.203000 -21.746200 -18.141500
N -14.164500 -27.444300 -22.775700
H -14.082600 -23.710300 -19.698700
C -13.753400 -25.654900 -21.263500
C -13.312700 -26.683400 -22.084100
N -13.236700 -23.857800 -19.746800
C -12.784900 -22.132200 -18.316700
C -12.745000 -24.852800 -20.517000
H -12.400000 -26.846600 -22.154800
N -12.329400 -23.078200 -19.033100
H -11.874100 -21.390500 -16.671300
H -11.850000 -20.312400 -17.803100
C -11.773400 -21.321400 -17.583200
O -11.560100 -25.103200 -20.615000
H -10.905100 -21.636300 -17.813900
