26
Fragment
H -16.726300 -13.641300 -17.204000
N -16.350200 -16.355600 -15.927100
H -16.218300 -12.313600 -17.647900
N -16.121900 -13.030100 -17.181500
C -15.672600 -15.442600 -15.772000
H -15.382000 -15.311300 -13.013700
H -15.213600 -17.057300 -11.528900
C -15.043300 -13.192500 -16.432900
C -14.797700 -14.319400 -15.640500
C -14.602600 -15.817700 -12.986700
C -14.506100 -16.868300 -12.102100
H -14.264300 -11.495700 -16.917300
N -14.105500 -12.187200 -16.431800
C -13.675800 -14.371200 -14.787300
C -13.541500 -15.501700 -13.844300
C -13.367600 -17.638900 -12.063900
Cl -13.257800 -18.986300 -10.990800
C -12.930700 -12.206400 -15.711300
C -12.736000 -13.336900 -14.862700
C -12.378000 -16.259500 -13.767900
C -12.303500 -17.323500 -12.887800
O -12.140700 -11.239500 -15.819200
H -11.650300 -16.050500 -14.307400
C -11.546100 -13.326400 -14.069100
H -11.527200 -17.834000 -12.850700
N -10.580800 -13.331200 -13.445300
26
Fragment
N -15.931400 -7.667100 -20.274700
H -14.985000 -3.164300 -20.869300
C -14.966100 -7.671900 -19.650900
H -14.861900 -4.947800 -19.412600
O -14.371500 -9.758800 -17.900800
C -14.208600 -3.674800 -20.832200
C -14.134200 -4.738800 -19.952100
C -13.776200 -7.661400 -18.857400
C -13.581500 -8.791900 -18.008700
Cl -13.254400 -2.012000 -22.729200
C -13.144500 -3.359400 -21.656100
C -12.970700 -5.496600 -19.875700
C -12.836400 -6.627100 -18.932700
N -12.406700 -8.811100 -17.288300
H -12.247900 -9.502600 -16.802700
C -12.006100 -4.130000 -21.617900
C -11.909600 -5.180600 -20.733300
C -11.714500 -6.678900 -18.079500
C -11.468800 -7.805800 -17.287100
H -11.298600 -3.941000 -22.191100
H -11.130200 -5.687000 -20.706300
C -10.839600 -5.555700 -17.948000
N -10.390300 -7.968200 -16.538500
H -10.293800 -8.684700 -16.072100
N -10.161900 -4.642700 -17.792900
H -9.785900 -7.357000 -16.516100
52
Fragment
H -16.726300 -13.641300 -17.204000
N -16.350200 -16.355600 -15.927100
H -16.218300 -12.313600 -17.647900
N -16.121900 -13.030100 -17.181500
C -15.672600 -15.442600 -15.772000
H -15.382000 -15.311300 -13.013700
H -15.213600 -17.057300 -11.528900
C -15.043300 -13.192500 -16.432900
C -14.797700 -14.319400 -15.640500
C -14.602600 -15.817700 -12.986700
C -14.506100 -16.868300 -12.102100
H -14.264300 -11.495700 -16.917300
N -14.105500 -12.187200 -16.431800
C -13.675800 -14.371200 -14.787300
C -13.541500 -15.501700 -13.844300
C -13.367600 -17.638900 -12.063900
Cl -13.257800 -18.986300 -10.990800
C -12.930700 -12.206400 -15.711300
C -12.736000 -13.336900 -14.862700
C -12.378000 -16.259500 -13.767900
C -12.303500 -17.323500 -12.887800
O -12.140700 -11.239500 -15.819200
H -11.650300 -16.050500 -14.307400
C -11.546100 -13.326400 -14.069100
H -11.527200 -17.834000 -12.850700
N -10.580800 -13.331200 -13.445300
N -15.931400 -7.667100 -20.274700
H -14.985000 -3.164300 -20.869300
C -14.966100 -7.671900 -19.650900
H -14.861900 -4.947800 -19.412600
O -14.371500 -9.758800 -17.900800
C -14.208600 -3.674800 -20.832200
C -14.134200 -4.738800 -19.952100
C -13.776200 -7.661400 -18.857400
C -13.581500 -8.791900 -18.008700
Cl -13.254400 -2.012000 -22.729200
C -13.144500 -3.359400 -21.656100
C -12.970700 -5.496600 -19.875700
C -12.836400 -6.627100 -18.932700
N -12.406700 -8.811100 -17.288300
H -12.247900 -9.502600 -16.802700
C -12.006100 -4.130000 -21.617900
C -11.909600 -5.180600 -20.733300
C -11.714500 -6.678900 -18.079500
C -11.468800 -7.805800 -17.287100
H -11.298600 -3.941000 -22.191100
H -11.130200 -5.687000 -20.706300
C -10.839600 -5.555700 -17.948000
N -10.390300 -7.968200 -16.538500
H -10.293800 -8.684700 -16.072100
N -10.161900 -4.642700 -17.792900
H -9.785900 -7.357000 -16.516100
