10
Fragment
N -9.802000 -38.821100 -14.231100
N -9.751700 -40.267300 -10.665000
C -9.495100 -38.121800 -13.401200
C -9.474400 -39.196900 -10.817300
C -9.103900 -37.299000 -12.276300
C -9.103500 -37.839400 -11.017100
C -8.714000 -37.078100 -9.875100
C -8.694400 -35.948100 -12.526600
N -8.407300 -36.478100 -8.950000
N -8.379100 -34.882400 -12.730200
54
Fragment
H -14.364800 -40.976200 -11.543400
H -14.080600 -40.610000 -13.040500
C -13.697100 -40.618500 -12.149700
H -13.642700 -40.387000 -9.255500
H -13.542500 -38.833000 -14.517600
N -13.387000 -39.270600 -11.762300
C -13.267700 -39.537000 -9.275500
C -13.219000 -38.119200 -14.016000
C -13.074300 -38.860500 -10.472800
C -13.068700 -38.230200 -12.625500
H -13.014800 -39.326000 -7.307300
H -13.011200 -36.875300 -15.531200
C -12.884100 -38.898100 -8.123000
C -12.881200 -36.950200 -14.613700
H -12.760600 -42.405800 -12.413300
H -12.590400 -34.328400 -19.236200
C -12.540100 -37.147800 -11.892700
C -12.534400 -37.571100 -10.501300
H -12.519000 -29.236900 -15.797600
H -12.518900 -35.154700 -16.505700
C -12.497000 -41.524100 -12.143000
C -12.346900 -35.844800 -13.930400
H -12.320900 -33.166400 -21.220600
C -12.309200 -37.639200 -8.132500
H -12.230700 -28.863600 -17.293700
C -12.220400 -33.474400 -19.241900
C -12.185700 -35.975500 -12.537000
C -12.171200 -34.446500 -16.014600
C -12.136500 -36.947600 -9.309700
H -12.126200 -41.558400 -11.257900
C -12.047600 -32.782800 -20.419200
H -12.035900 -37.255600 -7.331100
C -12.009900 -34.577200 -14.621300
C -11.859800 -28.897900 -16.408600
H -11.837900 -41.185100 -12.754000
H -11.837900 -35.267300 -12.046000
C -11.822400 -32.850900 -18.050400
C -11.816700 -33.274200 -16.658900
H -11.766400 -36.093600 -9.315500
H -11.596300 -28.016200 -16.138400
C -11.475600 -33.471800 -13.938000
C -11.472800 -31.523900 -20.428700
H -11.345600 -33.546700 -13.020500
H -11.342000 -31.096000 -21.244300
C -11.288100 -32.191800 -15.926100
C -11.282500 -31.561500 -18.078900
C -11.137900 -32.302800 -14.535700
C -11.089100 -30.885000 -19.276200
N -10.969800 -31.151400 -16.789300
H -10.814300 -31.589000 -14.034100
H -10.714100 -30.035000 -19.296200
C -10.659800 -29.803500 -16.402000
H -10.276200 -29.812000 -15.511200
H -9.992100 -29.445800 -17.008200
64
Fragment
N -9.802000 -38.821100 -14.231100
N -9.751700 -40.267300 -10.665000
C -9.495100 -38.121800 -13.401200
C -9.474400 -39.196900 -10.817300
C -9.103900 -37.299000 -12.276300
C -9.103500 -37.839400 -11.017100
C -8.714000 -37.078100 -9.875100
C -8.694400 -35.948100 -12.526600
N -8.407300 -36.478100 -8.950000
N -8.379100 -34.882400 -12.730200
H -14.364800 -40.976200 -11.543400
H -14.080600 -40.610000 -13.040500
C -13.697100 -40.618500 -12.149700
H -13.642700 -40.387000 -9.255500
H -13.542500 -38.833000 -14.517600
N -13.387000 -39.270600 -11.762300
C -13.267700 -39.537000 -9.275500
C -13.219000 -38.119200 -14.016000
C -13.074300 -38.860500 -10.472800
C -13.068700 -38.230200 -12.625500
H -13.014800 -39.326000 -7.307300
H -13.011200 -36.875300 -15.531200
C -12.884100 -38.898100 -8.123000
C -12.881200 -36.950200 -14.613700
H -12.760600 -42.405800 -12.413300
H -12.590400 -34.328400 -19.236200
C -12.540100 -37.147800 -11.892700
C -12.534400 -37.571100 -10.501300
H -12.519000 -29.236900 -15.797600
H -12.518900 -35.154700 -16.505700
C -12.497000 -41.524100 -12.143000
C -12.346900 -35.844800 -13.930400
H -12.320900 -33.166400 -21.220600
C -12.309200 -37.639200 -8.132500
H -12.230700 -28.863600 -17.293700
C -12.220400 -33.474400 -19.241900
C -12.185700 -35.975500 -12.537000
C -12.171200 -34.446500 -16.014600
C -12.136500 -36.947600 -9.309700
H -12.126200 -41.558400 -11.257900
C -12.047600 -32.782800 -20.419200
H -12.035900 -37.255600 -7.331100
C -12.009900 -34.577200 -14.621300
C -11.859800 -28.897900 -16.408600
H -11.837900 -41.185100 -12.754000
H -11.837900 -35.267300 -12.046000
C -11.822400 -32.850900 -18.050400
C -11.816700 -33.274200 -16.658900
H -11.766400 -36.093600 -9.315500
H -11.596300 -28.016200 -16.138400
C -11.475600 -33.471800 -13.938000
C -11.472800 -31.523900 -20.428700
H -11.345600 -33.546700 -13.020500
H -11.342000 -31.096000 -21.244300
C -11.288100 -32.191800 -15.926100
C -11.282500 -31.561500 -18.078900
C -11.137900 -32.302800 -14.535700
C -11.089100 -30.885000 -19.276200
N -10.969800 -31.151400 -16.789300
H -10.814300 -31.589000 -14.034100
H -10.714100 -30.035000 -19.296200
C -10.659800 -29.803500 -16.402000
H -10.276200 -29.812000 -15.511200
H -9.992100 -29.445800 -17.008200
