12
Fragment
H -14.123500 -21.601400 -18.399500
O -13.578600 -19.147100 -18.308000
N -13.358700 -21.294100 -18.968000
O -13.117100 -23.408300 -19.723100
C -13.017700 -19.964900 -18.988800
C -12.775100 -22.244100 -19.743100
N -11.982100 -19.645900 -19.842900
N -11.744400 -21.822300 -20.540300
H -11.577800 -18.689000 -19.897000
H -11.321300 -22.410200 -20.923000
C -11.318300 -20.530500 -20.636000
O -10.392400 -20.200600 -21.357400
12
Fragment
H -18.939500 -21.601400 -18.399500
O -18.394600 -19.147100 -18.308000
N -18.174700 -21.294100 -18.968000
O -17.933100 -23.408300 -19.723100
C -17.833700 -19.964900 -18.988800
C -17.591100 -22.244100 -19.743100
N -16.798100 -19.645900 -19.842900
N -16.560400 -21.822300 -20.540300
H -16.393800 -18.689000 -19.897000
H -16.137300 -22.410200 -20.923000
C -16.134300 -20.530500 -20.636000
O -15.208400 -20.200600 -21.357400
24
Fragment
H -14.123500 -21.601400 -18.399500
O -13.578600 -19.147100 -18.308000
N -13.358700 -21.294100 -18.968000
O -13.117100 -23.408300 -19.723100
C -13.017700 -19.964900 -18.988800
C -12.775100 -22.244100 -19.743100
N -11.982100 -19.645900 -19.842900
N -11.744400 -21.822300 -20.540300
H -11.577800 -18.689000 -19.897000
H -11.321300 -22.410200 -20.923000
C -11.318300 -20.530500 -20.636000
O -10.392400 -20.200600 -21.357400
H -18.939500 -21.601400 -18.399500
O -18.394600 -19.147100 -18.308000
N -18.174700 -21.294100 -18.968000
O -17.933100 -23.408300 -19.723100
C -17.833700 -19.964900 -18.988800
C -17.591100 -22.244100 -19.743100
N -16.798100 -19.645900 -19.842900
N -16.560400 -21.822300 -20.540300
H -16.393800 -18.689000 -19.897000
H -16.137300 -22.410200 -20.923000
C -16.134300 -20.530500 -20.636000
O -15.208400 -20.200600 -21.357400
