12
Fragment
O -11.229300 -10.389900 -45.503900
C -10.137500 -10.870600 -45.269900
H -9.915100 -10.299700 -43.391400
H -9.742900 -11.646000 -47.080900
N -9.514300 -10.743300 -44.051200
N -9.423200 -11.588400 -46.204000
C -8.288100 -11.259900 -43.736100
C -8.198600 -12.168200 -45.992800
O -7.784500 -11.106100 -42.629000
N -7.676200 -11.971200 -44.732900
O -7.613200 -12.802200 -46.849700
H -6.898300 -12.335300 -44.532800
12
Fragment
H -6.147000 -11.994700 -41.938700
O -5.432100 -11.527800 -39.621800
N -5.369000 -12.358800 -41.738700
O -5.260700 -13.223900 -43.842500
C -4.846600 -12.161800 -40.478800
C -4.757100 -13.070100 -42.735400
N -3.622100 -12.741600 -40.267500
N -3.531000 -13.586700 -42.420300
H -3.302400 -12.684000 -39.390700
H -3.130100 -14.030300 -43.080100
C -2.907700 -13.459400 -41.201700
O -1.816000 -13.940100 -40.967600
24
Fragment
O -11.229300 -10.389900 -45.503900
C -10.137500 -10.870600 -45.269900
H -9.915100 -10.299700 -43.391400
H -9.742900 -11.646000 -47.080900
N -9.514300 -10.743300 -44.051200
N -9.423200 -11.588400 -46.204000
C -8.288100 -11.259900 -43.736100
C -8.198600 -12.168200 -45.992800
O -7.784500 -11.106100 -42.629000
N -7.676200 -11.971200 -44.732900
O -7.613200 -12.802200 -46.849700
H -6.898300 -12.335300 -44.532800
H -6.147000 -11.994700 -41.938700
O -5.432100 -11.527800 -39.621800
N -5.369000 -12.358800 -41.738700
O -5.260700 -13.223900 -43.842500
C -4.846600 -12.161800 -40.478800
C -4.757100 -13.070100 -42.735400
N -3.622100 -12.741600 -40.267500
N -3.531000 -13.586700 -42.420300
H -3.302400 -12.684000 -39.390700
H -3.130100 -14.030300 -43.080100
C -2.907700 -13.459400 -41.201700
O -1.816000 -13.940100 -40.967600
