12
Fragment
O -15.045800 -11.290400 -19.228600
H -14.360600 -11.499300 -16.866000
C -14.046600 -11.813600 -18.765200
N -13.827700 -11.888900 -17.420900
H -13.167600 -12.360800 -20.454900
N -13.067600 -12.374800 -19.537000
C -12.747700 -12.477000 -16.831800
O -12.616700 -12.520100 -15.621500
C -11.945400 -13.025600 -19.055700
N -11.841600 -13.025500 -17.681300
O -11.153200 -13.553700 -19.791100
H -11.128400 -13.442400 -17.353500
22
Fragment
H -17.123700 -13.769900 -14.449200
H -16.966000 -13.851500 -12.125700
C -16.407700 -14.181400 -14.013500
C -16.300200 -14.225800 -12.667100
N -15.521600 -14.698200 -16.182400
C -15.409000 -14.752600 -14.845400
H -15.359800 -14.864900 -18.681200
C -15.184600 -14.842100 -12.052000
H -15.182300 -14.921400 -11.098800
C -14.625000 -15.280000 -18.328500
C -14.558400 -15.291000 -16.904400
C -14.281900 -15.412200 -14.213700
C -14.215400 -15.423100 -12.789500
H -13.658000 -15.781700 -20.019300
C -13.655800 -15.861000 -19.066000
H -13.480600 -15.838200 -12.436900
C -13.431300 -15.950500 -16.272700
N -13.318800 -16.004900 -14.935600
C -12.540100 -16.477300 -18.450900
C -12.432700 -16.521700 -17.104600
H -11.874300 -16.851600 -18.992400
H -11.716600 -16.933200 -16.668900
34
Fragment
O -15.045800 -11.290400 -19.228600
H -14.360600 -11.499300 -16.866000
C -14.046600 -11.813600 -18.765200
N -13.827700 -11.888900 -17.420900
H -13.167600 -12.360800 -20.454900
N -13.067600 -12.374800 -19.537000
C -12.747700 -12.477000 -16.831800
O -12.616700 -12.520100 -15.621500
C -11.945400 -13.025600 -19.055700
N -11.841600 -13.025500 -17.681300
O -11.153200 -13.553700 -19.791100
H -11.128400 -13.442400 -17.353500
H -17.123700 -13.769900 -14.449200
H -16.966000 -13.851500 -12.125700
C -16.407700 -14.181400 -14.013500
C -16.300200 -14.225800 -12.667100
N -15.521600 -14.698200 -16.182400
C -15.409000 -14.752600 -14.845400
H -15.359800 -14.864900 -18.681200
C -15.184600 -14.842100 -12.052000
H -15.182300 -14.921400 -11.098800
C -14.625000 -15.280000 -18.328500
C -14.558400 -15.291000 -16.904400
C -14.281900 -15.412200 -14.213700
C -14.215400 -15.423100 -12.789500
H -13.658000 -15.781700 -20.019300
C -13.655800 -15.861000 -19.066000
H -13.480600 -15.838200 -12.436900
C -13.431300 -15.950500 -16.272700
N -13.318800 -16.004900 -14.935600
C -12.540100 -16.477300 -18.450900
C -12.432700 -16.521700 -17.104600
H -11.874300 -16.851600 -18.992400
H -11.716600 -16.933200 -16.668900
