12
Fragment
H -14.123500 -21.601400 -18.399500
O -13.578600 -19.147100 -18.308000
N -13.358700 -21.294100 -18.968000
O -13.117100 -23.408300 -19.723100
C -13.017700 -19.964900 -18.988800
C -12.775100 -22.244100 -19.743100
N -11.982100 -19.645900 -19.842900
N -11.744400 -21.822300 -20.540300
H -11.577800 -18.689000 -19.897000
H -11.321300 -22.410200 -20.923000
C -11.318300 -20.530500 -20.636000
O -10.392400 -20.200600 -21.357400
12
Fragment
O -15.904100 -16.994900 -20.239000
C -14.978300 -16.665000 -20.960500
H -14.975200 -14.785300 -20.673400
H -14.718700 -18.506500 -21.699500
N -14.552100 -15.373200 -21.056100
N -14.314500 -17.549600 -21.753600
C -13.521500 -14.951400 -21.853400
C -13.278800 -17.230600 -22.607700
O -13.179400 -13.787200 -21.873400
N -12.937900 -15.901400 -22.628500
O -12.717900 -18.048300 -23.288500
H -12.173000 -15.594100 -23.197000
24
Fragment
H -14.123500 -21.601400 -18.399500
O -13.578600 -19.147100 -18.308000
N -13.358700 -21.294100 -18.968000
O -13.117100 -23.408300 -19.723100
C -13.017700 -19.964900 -18.988800
C -12.775100 -22.244100 -19.743100
N -11.982100 -19.645900 -19.842900
N -11.744400 -21.822300 -20.540300
H -11.577800 -18.689000 -19.897000
H -11.321300 -22.410200 -20.923000
C -11.318300 -20.530500 -20.636000
O -10.392400 -20.200600 -21.357400
O -15.904100 -16.994900 -20.239000
C -14.978300 -16.665000 -20.960500
H -14.975200 -14.785300 -20.673400
H -14.718700 -18.506500 -21.699500
N -14.552100 -15.373200 -21.056100
N -14.314500 -17.549600 -21.753600
C -13.521500 -14.951400 -21.853400
C -13.278800 -17.230600 -22.607700
O -13.179400 -13.787200 -21.873400
N -12.937900 -15.901400 -22.628500
O -12.717900 -18.048300 -23.288500
H -12.173000 -15.594100 -23.197000
