12
Fragment
O -15.045800 -11.290400 -19.228600
H -14.360600 -11.499300 -16.866000
C -14.046600 -11.813600 -18.765200
N -13.827700 -11.888900 -17.420900
H -13.167600 -12.360800 -20.454900
N -13.067600 -12.374800 -19.537000
C -12.747700 -12.477000 -16.831800
O -12.616700 -12.520100 -15.621500
C -11.945400 -13.025600 -19.055700
N -11.841600 -13.025500 -17.681300
O -11.153200 -13.553700 -19.791100
H -11.128400 -13.442400 -17.353500
12
Fragment
O -9.056800 -11.290400 -19.228600
H -8.371600 -11.499300 -16.866000
C -8.057600 -11.813600 -18.765200
N -7.838700 -11.888900 -17.420900
H -7.178600 -12.360800 -20.454900
N -7.078600 -12.374800 -19.537000
C -6.758700 -12.477000 -16.831800
O -6.627700 -12.520100 -15.621500
C -5.956400 -13.025600 -19.055700
N -5.852600 -13.025500 -17.681300
O -5.164200 -13.553700 -19.791100
H -5.139400 -13.442400 -17.353500
24
Fragment
O -15.045800 -11.290400 -19.228600
H -14.360600 -11.499300 -16.866000
C -14.046600 -11.813600 -18.765200
N -13.827700 -11.888900 -17.420900
H -13.167600 -12.360800 -20.454900
N -13.067600 -12.374800 -19.537000
C -12.747700 -12.477000 -16.831800
O -12.616700 -12.520100 -15.621500
C -11.945400 -13.025600 -19.055700
N -11.841600 -13.025500 -17.681300
O -11.153200 -13.553700 -19.791100
H -11.128400 -13.442400 -17.353500
O -9.056800 -11.290400 -19.228600
H -8.371600 -11.499300 -16.866000
C -8.057600 -11.813600 -18.765200
N -7.838700 -11.888900 -17.420900
H -7.178600 -12.360800 -20.454900
N -7.078600 -12.374800 -19.537000
C -6.758700 -12.477000 -16.831800
O -6.627700 -12.520100 -15.621500
C -5.956400 -13.025600 -19.055700
N -5.852600 -13.025500 -17.681300
O -5.164200 -13.553700 -19.791100
H -5.139400 -13.442400 -17.353500
