32
Fragment
O -18.536000 -15.923200 -41.514000
H -17.626400 -18.049600 -42.253500
N -17.557800 -15.953200 -40.788000
O -17.391800 -15.275000 -39.780000
O -16.823900 -16.171900 -34.872000
C -16.720000 -17.650400 -42.264000
N -16.553100 -16.860100 -41.112000
O -16.550000 -16.900100 -43.482000
H -16.439100 -16.783500 -37.140000
H -16.063300 -18.391100 -42.245700
O -16.016700 -19.216700 -37.737000
N -15.900600 -16.127500 -34.086000
O -15.875200 -19.372100 -39.930000
N -15.829400 -18.760400 -38.871000
H -15.818200 -15.873300 -37.950000
O -15.818200 -15.558000 -33.030000
H -15.749200 -18.066100 -35.587500
C -15.680700 -16.649200 -37.752000
N -15.605400 -17.401800 -38.955000
C -15.385600 -16.860100 -40.269000
N -15.210500 -16.703600 -43.851000
O -15.085300 -16.014300 -44.823000
H -15.060600 -15.929100 -40.177800
C -14.849100 -17.654900 -35.574000
O -14.723900 -16.844600 -34.395000
H -14.673200 -17.383900 -40.713300
N -14.656700 -16.915600 -36.786000
O -14.330000 -17.222000 -43.185000
H -14.182900 -18.385700 -35.533500
N -13.359900 -16.530400 -37.107000
O -13.186900 -16.025400 -38.190000
O -12.500800 -16.749100 -36.246000
9
Fragment
H -19.122600 -23.790700 -42.789600
N -18.424000 -20.358900 -42.987000
C -18.179700 -23.752200 -42.525000
H -18.116400 -23.484700 -41.583300
C -18.005600 -21.394500 -43.155000
H -17.770700 -24.634500 -42.641400
H -17.552900 -22.977700 -44.344200
C -17.451900 -22.736500 -43.389000
H -16.486200 -22.742200 -43.170000
41
Fragment
O -18.536000 -15.923200 -41.514000
H -17.626400 -18.049600 -42.253500
N -17.557800 -15.953200 -40.788000
O -17.391800 -15.275000 -39.780000
O -16.823900 -16.171900 -34.872000
C -16.720000 -17.650400 -42.264000
N -16.553100 -16.860100 -41.112000
O -16.550000 -16.900100 -43.482000
H -16.439100 -16.783500 -37.140000
H -16.063300 -18.391100 -42.245700
O -16.016700 -19.216700 -37.737000
N -15.900600 -16.127500 -34.086000
O -15.875200 -19.372100 -39.930000
N -15.829400 -18.760400 -38.871000
H -15.818200 -15.873300 -37.950000
O -15.818200 -15.558000 -33.030000
H -15.749200 -18.066100 -35.587500
C -15.680700 -16.649200 -37.752000
N -15.605400 -17.401800 -38.955000
C -15.385600 -16.860100 -40.269000
N -15.210500 -16.703600 -43.851000
O -15.085300 -16.014300 -44.823000
H -15.060600 -15.929100 -40.177800
C -14.849100 -17.654900 -35.574000
O -14.723900 -16.844600 -34.395000
H -14.673200 -17.383900 -40.713300
N -14.656700 -16.915600 -36.786000
O -14.330000 -17.222000 -43.185000
H -14.182900 -18.385700 -35.533500
N -13.359900 -16.530400 -37.107000
O -13.186900 -16.025400 -38.190000
O -12.500800 -16.749100 -36.246000
H -19.122600 -23.790700 -42.789600
N -18.424000 -20.358900 -42.987000
C -18.179700 -23.752200 -42.525000
H -18.116400 -23.484700 -41.583300
C -18.005600 -21.394500 -43.155000
H -17.770700 -24.634500 -42.641400
H -17.552900 -22.977700 -44.344200
C -17.451900 -22.736500 -43.389000
H -16.486200 -22.742200 -43.170000
