32
Fragment
O -18.536000 -15.923200 -41.514000
H -17.626400 -18.049600 -42.253500
N -17.557800 -15.953200 -40.788000
O -17.391800 -15.275000 -39.780000
O -16.823900 -16.171900 -34.872000
C -16.720000 -17.650400 -42.264000
N -16.553100 -16.860100 -41.112000
O -16.550000 -16.900100 -43.482000
H -16.439100 -16.783500 -37.140000
H -16.063300 -18.391100 -42.245700
O -16.016700 -19.216700 -37.737000
N -15.900600 -16.127500 -34.086000
O -15.875200 -19.372100 -39.930000
N -15.829400 -18.760400 -38.871000
H -15.818200 -15.873300 -37.950000
O -15.818200 -15.558000 -33.030000
H -15.749200 -18.066100 -35.587500
C -15.680700 -16.649200 -37.752000
N -15.605400 -17.401800 -38.955000
C -15.385600 -16.860100 -40.269000
N -15.210500 -16.703600 -43.851000
O -15.085300 -16.014300 -44.823000
H -15.060600 -15.929100 -40.177800
C -14.849100 -17.654900 -35.574000
O -14.723900 -16.844600 -34.395000
H -14.673200 -17.383900 -40.713300
N -14.656700 -16.915600 -36.786000
O -14.330000 -17.222000 -43.185000
H -14.182900 -18.385700 -35.533500
N -13.359900 -16.530400 -37.107000
O -13.186900 -16.025400 -38.190000
O -12.500800 -16.749100 -36.246000
32
Fragment
O -16.980600 -14.905300 -23.823000
O -16.915500 -15.760100 -21.807000
O -16.776000 -11.839500 -18.996000
N -16.547000 -14.964200 -22.653000
N -16.087900 -12.209100 -19.917000
O -16.032900 -13.625500 -19.984800
H -15.972900 -12.688300 -23.703600
H -15.938500 -13.720300 -25.768500
O -15.695000 -14.533500 -30.390000
N -15.606400 -14.061700 -22.311000
O -15.483300 -11.560900 -20.727000
O -15.241000 -15.510300 -28.497000
O -15.177900 -11.395500 -25.779000
C -15.176900 -13.141500 -23.328000
N -15.149400 -14.648900 -29.334000
C -15.095500 -14.101700 -20.961000
C -14.977400 -13.958500 -25.773000
H -14.904600 -14.916600 -26.010600
H -14.847800 -15.034200 -20.740500
H -14.607200 -12.448900 -22.909800
N -14.482700 -11.807300 -26.703000
N -14.430800 -13.758700 -24.426000
N -14.308600 -13.179300 -26.769000
H -14.274400 -13.551300 -20.913300
O -14.189500 -13.602200 -29.121000
O -13.959500 -11.146800 -27.588000
C -13.506500 -13.677700 -27.852000
H -13.263500 -14.619400 -27.667800
N -13.166500 -14.175000 -24.180000
O -12.723800 -14.022900 -23.034000
H -12.668300 -13.152200 -27.901800
O -12.558900 -14.672200 -25.137000
64
Fragment
O -18.536000 -15.923200 -41.514000
H -17.626400 -18.049600 -42.253500
N -17.557800 -15.953200 -40.788000
O -17.391800 -15.275000 -39.780000
O -16.823900 -16.171900 -34.872000
C -16.720000 -17.650400 -42.264000
N -16.553100 -16.860100 -41.112000
O -16.550000 -16.900100 -43.482000
H -16.439100 -16.783500 -37.140000
H -16.063300 -18.391100 -42.245700
O -16.016700 -19.216700 -37.737000
N -15.900600 -16.127500 -34.086000
O -15.875200 -19.372100 -39.930000
N -15.829400 -18.760400 -38.871000
H -15.818200 -15.873300 -37.950000
O -15.818200 -15.558000 -33.030000
H -15.749200 -18.066100 -35.587500
C -15.680700 -16.649200 -37.752000
N -15.605400 -17.401800 -38.955000
C -15.385600 -16.860100 -40.269000
N -15.210500 -16.703600 -43.851000
O -15.085300 -16.014300 -44.823000
H -15.060600 -15.929100 -40.177800
C -14.849100 -17.654900 -35.574000
O -14.723900 -16.844600 -34.395000
H -14.673200 -17.383900 -40.713300
N -14.656700 -16.915600 -36.786000
O -14.330000 -17.222000 -43.185000
H -14.182900 -18.385700 -35.533500
N -13.359900 -16.530400 -37.107000
O -13.186900 -16.025400 -38.190000
O -12.500800 -16.749100 -36.246000
O -16.980600 -14.905300 -23.823000
O -16.915500 -15.760100 -21.807000
O -16.776000 -11.839500 -18.996000
N -16.547000 -14.964200 -22.653000
N -16.087900 -12.209100 -19.917000
O -16.032900 -13.625500 -19.984800
H -15.972900 -12.688300 -23.703600
H -15.938500 -13.720300 -25.768500
O -15.695000 -14.533500 -30.390000
N -15.606400 -14.061700 -22.311000
O -15.483300 -11.560900 -20.727000
O -15.241000 -15.510300 -28.497000
O -15.177900 -11.395500 -25.779000
C -15.176900 -13.141500 -23.328000
N -15.149400 -14.648900 -29.334000
C -15.095500 -14.101700 -20.961000
C -14.977400 -13.958500 -25.773000
H -14.904600 -14.916600 -26.010600
H -14.847800 -15.034200 -20.740500
H -14.607200 -12.448900 -22.909800
N -14.482700 -11.807300 -26.703000
N -14.430800 -13.758700 -24.426000
N -14.308600 -13.179300 -26.769000
H -14.274400 -13.551300 -20.913300
O -14.189500 -13.602200 -29.121000
O -13.959500 -11.146800 -27.588000
C -13.506500 -13.677700 -27.852000
H -13.263500 -14.619400 -27.667800
N -13.166500 -14.175000 -24.180000
O -12.723800 -14.022900 -23.034000
H -12.668300 -13.152200 -27.901800
O -12.558900 -14.672200 -25.137000
