27
Fragment
H -15.517100 -18.668900 -16.060200
H -15.341100 -20.786200 -15.625400
H -14.909100 -20.822800 -13.462500
C -14.610000 -18.889100 -15.795500
C -14.504600 -20.331600 -15.439400
C -14.226200 -18.139100 -14.566300
C -14.182400 -20.407200 -13.953000
N -14.111000 -16.853500 -14.473400
N -14.013200 -19.022500 -13.555500
H -14.011100 -18.673800 -16.527500
H -13.807000 -14.418700 -13.821100
H -13.801800 -20.755000 -15.957300
C -13.753700 -16.352500 -13.226800
C -13.654000 -18.647300 -12.260800
C -13.641400 -14.964200 -13.085700
N -13.524000 -19.667700 -11.470700
C -13.513900 -17.183500 -12.100600
H -13.369500 -20.913600 -13.800300
C -13.295300 -14.391400 -11.895600
H -13.214800 -13.467100 -11.829200
C -13.182000 -16.563000 -10.892200
N -13.121900 -19.421400 -10.139400
H -13.070700 -20.279200 -9.951000
C -13.065600 -15.189200 -10.789300
H -13.035900 -17.088600 -10.138600
H -12.832700 -14.802300 -9.976800
H -12.582300 -18.762500 -10.125300
27
Fragment
H -18.547200 -23.438300 -14.773000
H -18.296800 -27.398500 -14.921600
H -18.093600 -25.112100 -14.759700
C -18.063900 -27.011600 -14.109000
H -18.058800 -21.921600 -14.947300
N -18.007600 -22.779400 -14.758900
C -17.947500 -25.637700 -14.006100
H -17.914700 -28.733700 -13.069100
C -17.834200 -27.809400 -13.002700
H -17.760000 -21.287100 -11.098000
C -17.615600 -25.017200 -12.797700
N -17.605500 -22.533000 -13.427700
C -17.488100 -27.236500 -11.812600
C -17.475500 -23.553500 -12.637600
C -17.375800 -25.848200 -11.671500
H -17.327700 -21.445800 -8.941000
H -17.322500 -27.782100 -11.077300
H -17.118400 -23.526900 -8.370800
N -17.116300 -23.178300 -11.342800
N -17.018500 -25.347200 -10.424900
C -16.947100 -21.793600 -10.945300
C -16.903300 -24.061700 -10.332000
C -16.624900 -21.869200 -9.458900
C -16.519500 -23.311700 -9.102800
H -16.220400 -21.377900 -11.435800
H -15.788400 -21.414500 -9.273000
H -15.612400 -23.531900 -8.838100
54
Fragment
H -15.517100 -18.668900 -16.060200
H -15.341100 -20.786200 -15.625400
H -14.909100 -20.822800 -13.462500
C -14.610000 -18.889100 -15.795500
C -14.504600 -20.331600 -15.439400
C -14.226200 -18.139100 -14.566300
C -14.182400 -20.407200 -13.953000
N -14.111000 -16.853500 -14.473400
N -14.013200 -19.022500 -13.555500
H -14.011100 -18.673800 -16.527500
H -13.807000 -14.418700 -13.821100
H -13.801800 -20.755000 -15.957300
C -13.753700 -16.352500 -13.226800
C -13.654000 -18.647300 -12.260800
C -13.641400 -14.964200 -13.085700
N -13.524000 -19.667700 -11.470700
C -13.513900 -17.183500 -12.100600
H -13.369500 -20.913600 -13.800300
C -13.295300 -14.391400 -11.895600
H -13.214800 -13.467100 -11.829200
C -13.182000 -16.563000 -10.892200
N -13.121900 -19.421400 -10.139400
H -13.070700 -20.279200 -9.951000
C -13.065600 -15.189200 -10.789300
H -13.035900 -17.088600 -10.138600
H -12.832700 -14.802300 -9.976800
H -12.582300 -18.762500 -10.125300
H -18.547200 -23.438300 -14.773000
H -18.296800 -27.398500 -14.921600
H -18.093600 -25.112100 -14.759700
C -18.063900 -27.011600 -14.109000
H -18.058800 -21.921600 -14.947300
N -18.007600 -22.779400 -14.758900
C -17.947500 -25.637700 -14.006100
H -17.914700 -28.733700 -13.069100
C -17.834200 -27.809400 -13.002700
H -17.760000 -21.287100 -11.098000
C -17.615600 -25.017200 -12.797700
N -17.605500 -22.533000 -13.427700
C -17.488100 -27.236500 -11.812600
C -17.475500 -23.553500 -12.637600
C -17.375800 -25.848200 -11.671500
H -17.327700 -21.445800 -8.941000
H -17.322500 -27.782100 -11.077300
H -17.118400 -23.526900 -8.370800
N -17.116300 -23.178300 -11.342800
N -17.018500 -25.347200 -10.424900
C -16.947100 -21.793600 -10.945300
C -16.903300 -24.061700 -10.332000
C -16.624900 -21.869200 -9.458900
C -16.519500 -23.311700 -9.102800
H -16.220400 -21.377900 -11.435800
H -15.788400 -21.414500 -9.273000
H -15.612400 -23.531900 -8.838100
