27
Fragment
H -15.517100 -18.668900 -16.060200
H -15.341100 -20.786200 -15.625400
H -14.909100 -20.822800 -13.462500
C -14.610000 -18.889100 -15.795500
C -14.504600 -20.331600 -15.439400
C -14.226200 -18.139100 -14.566300
C -14.182400 -20.407200 -13.953000
N -14.111000 -16.853500 -14.473400
N -14.013200 -19.022500 -13.555500
H -14.011100 -18.673800 -16.527500
H -13.807000 -14.418700 -13.821100
H -13.801800 -20.755000 -15.957300
C -13.753700 -16.352500 -13.226800
C -13.654000 -18.647300 -12.260800
C -13.641400 -14.964200 -13.085700
N -13.524000 -19.667700 -11.470700
C -13.513900 -17.183500 -12.100600
H -13.369500 -20.913600 -13.800300
C -13.295300 -14.391400 -11.895600
H -13.214800 -13.467100 -11.829200
C -13.182000 -16.563000 -10.892200
N -13.121900 -19.421400 -10.139400
H -13.070700 -20.279200 -9.951000
C -13.065600 -15.189200 -10.789300
H -13.035900 -17.088600 -10.138600
H -12.832700 -14.802300 -9.976800
H -12.582300 -18.762500 -10.125300
3
Fragment
H -15.796100 -17.772100 -8.963400
O -15.372500 -18.288500 -8.544300
H -14.593500 -18.651200 -8.980000
30
Fragment
H -15.517100 -18.668900 -16.060200
H -15.341100 -20.786200 -15.625400
H -14.909100 -20.822800 -13.462500
C -14.610000 -18.889100 -15.795500
C -14.504600 -20.331600 -15.439400
C -14.226200 -18.139100 -14.566300
C -14.182400 -20.407200 -13.953000
N -14.111000 -16.853500 -14.473400
N -14.013200 -19.022500 -13.555500
H -14.011100 -18.673800 -16.527500
H -13.807000 -14.418700 -13.821100
H -13.801800 -20.755000 -15.957300
C -13.753700 -16.352500 -13.226800
C -13.654000 -18.647300 -12.260800
C -13.641400 -14.964200 -13.085700
N -13.524000 -19.667700 -11.470700
C -13.513900 -17.183500 -12.100600
H -13.369500 -20.913600 -13.800300
C -13.295300 -14.391400 -11.895600
H -13.214800 -13.467100 -11.829200
C -13.182000 -16.563000 -10.892200
N -13.121900 -19.421400 -10.139400
H -13.070700 -20.279200 -9.951000
C -13.065600 -15.189200 -10.789300
H -13.035900 -17.088600 -10.138600
H -12.832700 -14.802300 -9.976800
H -12.582300 -18.762500 -10.125300
H -15.796100 -17.772100 -8.963400
O -15.372500 -18.288500 -8.544300
H -14.593500 -18.651200 -8.980000
