27
Fragment
H -15.517100 -18.668900 -16.060200
H -15.341100 -20.786200 -15.625400
H -14.909100 -20.822800 -13.462500
C -14.610000 -18.889100 -15.795500
C -14.504600 -20.331600 -15.439400
C -14.226200 -18.139100 -14.566300
C -14.182400 -20.407200 -13.953000
N -14.111000 -16.853500 -14.473400
N -14.013200 -19.022500 -13.555500
H -14.011100 -18.673800 -16.527500
H -13.807000 -14.418700 -13.821100
H -13.801800 -20.755000 -15.957300
C -13.753700 -16.352500 -13.226800
C -13.654000 -18.647300 -12.260800
C -13.641400 -14.964200 -13.085700
N -13.524000 -19.667700 -11.470700
C -13.513900 -17.183500 -12.100600
H -13.369500 -20.913600 -13.800300
C -13.295300 -14.391400 -11.895600
H -13.214800 -13.467100 -11.829200
C -13.182000 -16.563000 -10.892200
N -13.121900 -19.421400 -10.139400
H -13.070700 -20.279200 -9.951000
C -13.065600 -15.189200 -10.789300
H -13.035900 -17.088600 -10.138600
H -12.832700 -14.802300 -9.976800
H -12.582300 -18.762500 -10.125300
27
Fragment
H -12.731900 -16.504100 -7.760800
H -12.555900 -18.621500 -7.325900
H -12.123900 -18.658100 -5.163100
C -11.824700 -16.724300 -7.496100
C -11.719400 -18.166800 -7.140000
C -11.441000 -15.974300 -6.266900
C -11.397200 -18.242400 -5.653600
N -11.325800 -14.688800 -6.174000
N -11.228000 -16.857700 -5.256000
H -11.225900 -16.509100 -8.228100
H -11.021800 -12.253900 -5.521600
H -11.016600 -18.590200 -7.657900
C -10.968500 -14.187700 -4.927400
C -10.868800 -16.482500 -3.961300
C -10.856200 -12.799500 -4.786300
N -10.738800 -17.503000 -3.171200
C -10.728700 -15.018700 -3.801100
H -10.584300 -18.748900 -5.500900
C -10.510100 -12.226600 -3.596100
H -10.429600 -11.302300 -3.529800
C -10.396800 -14.398300 -2.592700
N -10.336700 -17.256600 -1.840000
H -10.285500 -18.114400 -1.651600
C -10.280400 -13.024400 -2.489800
H -10.250700 -14.923900 -1.839200
H -10.047500 -12.637500 -1.677300
H -9.797100 -16.597700 -1.825900
54
Fragment
H -15.517100 -18.668900 -16.060200
H -15.341100 -20.786200 -15.625400
H -14.909100 -20.822800 -13.462500
C -14.610000 -18.889100 -15.795500
C -14.504600 -20.331600 -15.439400
C -14.226200 -18.139100 -14.566300
C -14.182400 -20.407200 -13.953000
N -14.111000 -16.853500 -14.473400
N -14.013200 -19.022500 -13.555500
H -14.011100 -18.673800 -16.527500
H -13.807000 -14.418700 -13.821100
H -13.801800 -20.755000 -15.957300
C -13.753700 -16.352500 -13.226800
C -13.654000 -18.647300 -12.260800
C -13.641400 -14.964200 -13.085700
N -13.524000 -19.667700 -11.470700
C -13.513900 -17.183500 -12.100600
H -13.369500 -20.913600 -13.800300
C -13.295300 -14.391400 -11.895600
H -13.214800 -13.467100 -11.829200
C -13.182000 -16.563000 -10.892200
N -13.121900 -19.421400 -10.139400
H -13.070700 -20.279200 -9.951000
C -13.065600 -15.189200 -10.789300
H -13.035900 -17.088600 -10.138600
H -12.832700 -14.802300 -9.976800
H -12.582300 -18.762500 -10.125300
H -12.731900 -16.504100 -7.760800
H -12.555900 -18.621500 -7.325900
H -12.123900 -18.658100 -5.163100
C -11.824700 -16.724300 -7.496100
C -11.719400 -18.166800 -7.140000
C -11.441000 -15.974300 -6.266900
C -11.397200 -18.242400 -5.653600
N -11.325800 -14.688800 -6.174000
N -11.228000 -16.857700 -5.256000
H -11.225900 -16.509100 -8.228100
H -11.021800 -12.253900 -5.521600
H -11.016600 -18.590200 -7.657900
C -10.968500 -14.187700 -4.927400
C -10.868800 -16.482500 -3.961300
C -10.856200 -12.799500 -4.786300
N -10.738800 -17.503000 -3.171200
C -10.728700 -15.018700 -3.801100
H -10.584300 -18.748900 -5.500900
C -10.510100 -12.226600 -3.596100
H -10.429600 -11.302300 -3.529800
C -10.396800 -14.398300 -2.592700
N -10.336700 -17.256600 -1.840000
H -10.285500 -18.114400 -1.651600
C -10.280400 -13.024400 -2.489800
H -10.250700 -14.923900 -1.839200
H -10.047500 -12.637500 -1.677300
H -9.797100 -16.597700 -1.825900
