27
Fragment
H -15.517100 -18.668900 -16.060200
H -15.341100 -20.786200 -15.625400
H -14.909100 -20.822800 -13.462500
C -14.610000 -18.889100 -15.795500
C -14.504600 -20.331600 -15.439400
C -14.226200 -18.139100 -14.566300
C -14.182400 -20.407200 -13.953000
N -14.111000 -16.853500 -14.473400
N -14.013200 -19.022500 -13.555500
H -14.011100 -18.673800 -16.527500
H -13.807000 -14.418700 -13.821100
H -13.801800 -20.755000 -15.957300
C -13.753700 -16.352500 -13.226800
C -13.654000 -18.647300 -12.260800
C -13.641400 -14.964200 -13.085700
N -13.524000 -19.667700 -11.470700
C -13.513900 -17.183500 -12.100600
H -13.369500 -20.913600 -13.800300
C -13.295300 -14.391400 -11.895600
H -13.214800 -13.467100 -11.829200
C -13.182000 -16.563000 -10.892200
N -13.121900 -19.421400 -10.139400
H -13.070700 -20.279200 -9.951000
C -13.065600 -15.189200 -10.789300
H -13.035900 -17.088600 -10.138600
H -12.832700 -14.802300 -9.976800
H -12.582300 -18.762500 -10.125300
27
Fragment
H -11.077000 -14.511700 -14.773000
H -10.826600 -18.471900 -14.921600
H -10.623400 -16.185500 -14.759700
C -10.593700 -18.085000 -14.109000
H -10.588600 -12.995000 -14.947300
N -10.537400 -13.852800 -14.758900
C -10.477300 -16.711100 -14.006100
H -10.444500 -19.807000 -13.069100
C -10.364000 -18.882800 -13.002700
H -10.289800 -12.360500 -11.098000
C -10.145400 -16.090600 -12.797700
N -10.135300 -13.606400 -13.427700
C -10.017900 -18.309900 -11.812600
C -10.005300 -14.626800 -12.637600
C -9.905600 -16.921600 -11.671500
H -9.857500 -12.519200 -8.941000
H -9.852300 -18.855500 -11.077300
H -9.648200 -14.600300 -8.370800
N -9.646100 -14.251600 -11.342800
N -9.548300 -16.420600 -10.424900
C -9.476900 -12.867000 -10.945300
C -9.433100 -15.135000 -10.332000
C -9.154700 -12.942600 -9.458900
C -9.049300 -14.385100 -9.102800
H -8.750200 -12.451300 -11.435800
H -8.318100 -12.487900 -9.273000
H -8.142100 -14.605200 -8.838100
54
Fragment
H -15.517100 -18.668900 -16.060200
H -15.341100 -20.786200 -15.625400
H -14.909100 -20.822800 -13.462500
C -14.610000 -18.889100 -15.795500
C -14.504600 -20.331600 -15.439400
C -14.226200 -18.139100 -14.566300
C -14.182400 -20.407200 -13.953000
N -14.111000 -16.853500 -14.473400
N -14.013200 -19.022500 -13.555500
H -14.011100 -18.673800 -16.527500
H -13.807000 -14.418700 -13.821100
H -13.801800 -20.755000 -15.957300
C -13.753700 -16.352500 -13.226800
C -13.654000 -18.647300 -12.260800
C -13.641400 -14.964200 -13.085700
N -13.524000 -19.667700 -11.470700
C -13.513900 -17.183500 -12.100600
H -13.369500 -20.913600 -13.800300
C -13.295300 -14.391400 -11.895600
H -13.214800 -13.467100 -11.829200
C -13.182000 -16.563000 -10.892200
N -13.121900 -19.421400 -10.139400
H -13.070700 -20.279200 -9.951000
C -13.065600 -15.189200 -10.789300
H -13.035900 -17.088600 -10.138600
H -12.832700 -14.802300 -9.976800
H -12.582300 -18.762500 -10.125300
H -11.077000 -14.511700 -14.773000
H -10.826600 -18.471900 -14.921600
H -10.623400 -16.185500 -14.759700
C -10.593700 -18.085000 -14.109000
H -10.588600 -12.995000 -14.947300
N -10.537400 -13.852800 -14.758900
C -10.477300 -16.711100 -14.006100
H -10.444500 -19.807000 -13.069100
C -10.364000 -18.882800 -13.002700
H -10.289800 -12.360500 -11.098000
C -10.145400 -16.090600 -12.797700
N -10.135300 -13.606400 -13.427700
C -10.017900 -18.309900 -11.812600
C -10.005300 -14.626800 -12.637600
C -9.905600 -16.921600 -11.671500
H -9.857500 -12.519200 -8.941000
H -9.852300 -18.855500 -11.077300
H -9.648200 -14.600300 -8.370800
N -9.646100 -14.251600 -11.342800
N -9.548300 -16.420600 -10.424900
C -9.476900 -12.867000 -10.945300
C -9.433100 -15.135000 -10.332000
C -9.154700 -12.942600 -9.458900
C -9.049300 -14.385100 -9.102800
H -8.750200 -12.451300 -11.435800
H -8.318100 -12.487900 -9.273000
H -8.142100 -14.605200 -8.838100
