20
Fragment
H -12.476100 -11.135100 -19.483900
H -11.865200 -11.368600 -21.630000
N -11.764200 -12.044600 -24.063200
O -11.755900 -11.846600 -25.446300
H -11.704600 -12.101000 -18.467400
C -11.608700 -11.338100 -19.075000
H -11.293900 -10.557800 -18.572700
C -10.966000 -11.570200 -21.398000
N -10.646500 -11.665200 -20.116200
C -10.581900 -11.690800 -23.640800
N -10.496600 -11.353800 -25.865900
N -10.095400 -11.742800 -22.355300
C -9.782400 -11.267900 -24.773200
C -9.283600 -11.946300 -19.693400
H -9.279200 -12.189000 -18.744100
H -8.923600 -12.688500 -20.222200
H -8.728600 -11.149500 -19.829200
N -8.492700 -10.881200 -24.705200
H -8.168200 -10.615800 -23.901400
H -8.104100 -10.622900 -25.424800
20
Fragment
H -16.763500 -10.665400 -10.209100
H -16.699400 -10.672500 -11.732500
N -16.374900 -10.407100 -10.928700
H -16.139100 -10.138800 -15.804700
H -15.944100 -8.599800 -15.411700
H -15.588500 -9.099300 -16.889800
C -15.584100 -9.342000 -15.940500
C -15.085200 -10.020400 -10.860700
N -14.772200 -9.545500 -13.278600
N -14.371100 -9.934500 -9.768000
C -14.285800 -9.597500 -11.993100
N -14.221100 -9.623100 -15.517700
C -13.901600 -9.718100 -14.235900
H -13.573700 -10.730500 -17.061200
C -13.259000 -9.950200 -16.558900
H -13.163000 -9.187300 -17.166400
O -13.111700 -9.441700 -10.187600
N -13.103400 -9.243700 -11.570700
H -13.002400 -9.919700 -14.003900
H -12.391500 -10.153200 -16.150000
40
Fragment
H -12.476100 -11.135100 -19.483900
H -11.865200 -11.368600 -21.630000
N -11.764200 -12.044600 -24.063200
O -11.755900 -11.846600 -25.446300
H -11.704600 -12.101000 -18.467400
C -11.608700 -11.338100 -19.075000
H -11.293900 -10.557800 -18.572700
C -10.966000 -11.570200 -21.398000
N -10.646500 -11.665200 -20.116200
C -10.581900 -11.690800 -23.640800
N -10.496600 -11.353800 -25.865900
N -10.095400 -11.742800 -22.355300
C -9.782400 -11.267900 -24.773200
C -9.283600 -11.946300 -19.693400
H -9.279200 -12.189000 -18.744100
H -8.923600 -12.688500 -20.222200
H -8.728600 -11.149500 -19.829200
N -8.492700 -10.881200 -24.705200
H -8.168200 -10.615800 -23.901400
H -8.104100 -10.622900 -25.424800
H -16.763500 -10.665400 -10.209100
H -16.699400 -10.672500 -11.732500
N -16.374900 -10.407100 -10.928700
H -16.139100 -10.138800 -15.804700
H -15.944100 -8.599800 -15.411700
H -15.588500 -9.099300 -16.889800
C -15.584100 -9.342000 -15.940500
C -15.085200 -10.020400 -10.860700
N -14.772200 -9.545500 -13.278600
N -14.371100 -9.934500 -9.768000
C -14.285800 -9.597500 -11.993100
N -14.221100 -9.623100 -15.517700
C -13.901600 -9.718100 -14.235900
H -13.573700 -10.730500 -17.061200
C -13.259000 -9.950200 -16.558900
H -13.163000 -9.187300 -17.166400
O -13.111700 -9.441700 -10.187600
N -13.103400 -9.243700 -11.570700
H -13.002400 -9.919700 -14.003900
H -12.391500 -10.153200 -16.150000
