20
Fragment
H -12.476100 -11.135100 -19.483900
H -11.865200 -11.368600 -21.630000
N -11.764200 -12.044600 -24.063200
O -11.755900 -11.846600 -25.446300
H -11.704600 -12.101000 -18.467400
C -11.608700 -11.338100 -19.075000
H -11.293900 -10.557800 -18.572700
C -10.966000 -11.570200 -21.398000
N -10.646500 -11.665200 -20.116200
C -10.581900 -11.690800 -23.640800
N -10.496600 -11.353800 -25.865900
N -10.095400 -11.742800 -22.355300
C -9.782400 -11.267900 -24.773200
C -9.283600 -11.946300 -19.693400
H -9.279200 -12.189000 -18.744100
H -8.923600 -12.688500 -20.222200
H -8.728600 -11.149500 -19.829200
N -8.492700 -10.881200 -24.705200
H -8.168200 -10.615800 -23.901400
H -8.104100 -10.622900 -25.424800
20
Fragment
H -9.983500 -10.665400 -28.026100
H -9.919400 -10.672500 -29.549400
N -9.595000 -10.407100 -28.745700
H -9.359100 -10.138800 -33.621600
H -9.164100 -8.599800 -33.228600
H -8.808500 -9.099300 -34.706700
C -8.804100 -9.342000 -33.757400
C -8.305200 -10.020400 -28.677600
N -7.992200 -9.545500 -31.095600
N -7.591100 -9.934500 -27.584900
C -7.505800 -9.597500 -29.810100
N -7.441100 -9.623100 -33.334600
C -7.121600 -9.718100 -32.052900
H -6.793700 -10.730500 -34.878100
C -6.479000 -9.950200 -34.375800
H -6.383000 -9.187300 -34.983400
O -6.331700 -9.441700 -28.004500
N -6.323400 -9.243700 -29.387600
H -6.222400 -9.919700 -31.820900
H -5.611500 -10.153200 -33.966900
40
Fragment
H -12.476100 -11.135100 -19.483900
H -11.865200 -11.368600 -21.630000
N -11.764200 -12.044600 -24.063200
O -11.755900 -11.846600 -25.446300
H -11.704600 -12.101000 -18.467400
C -11.608700 -11.338100 -19.075000
H -11.293900 -10.557800 -18.572700
C -10.966000 -11.570200 -21.398000
N -10.646500 -11.665200 -20.116200
C -10.581900 -11.690800 -23.640800
N -10.496600 -11.353800 -25.865900
N -10.095400 -11.742800 -22.355300
C -9.782400 -11.267900 -24.773200
C -9.283600 -11.946300 -19.693400
H -9.279200 -12.189000 -18.744100
H -8.923600 -12.688500 -20.222200
H -8.728600 -11.149500 -19.829200
N -8.492700 -10.881200 -24.705200
H -8.168200 -10.615800 -23.901400
H -8.104100 -10.622900 -25.424800
H -9.983500 -10.665400 -28.026100
H -9.919400 -10.672500 -29.549400
N -9.595000 -10.407100 -28.745700
H -9.359100 -10.138800 -33.621600
H -9.164100 -8.599800 -33.228600
H -8.808500 -9.099300 -34.706700
C -8.804100 -9.342000 -33.757400
C -8.305200 -10.020400 -28.677600
N -7.992200 -9.545500 -31.095600
N -7.591100 -9.934500 -27.584900
C -7.505800 -9.597500 -29.810100
N -7.441100 -9.623100 -33.334600
C -7.121600 -9.718100 -32.052900
H -6.793700 -10.730500 -34.878100
C -6.479000 -9.950200 -34.375800
H -6.383000 -9.187300 -34.983400
O -6.331700 -9.441700 -28.004500
N -6.323400 -9.243700 -29.387600
H -6.222400 -9.919700 -31.820900
H -5.611500 -10.153200 -33.966900
