20
Fragment
H -12.476100 -11.135100 -19.483900
H -11.865200 -11.368600 -21.630000
N -11.764200 -12.044600 -24.063200
O -11.755900 -11.846600 -25.446300
H -11.704600 -12.101000 -18.467400
C -11.608700 -11.338100 -19.075000
H -11.293900 -10.557800 -18.572700
C -10.966000 -11.570200 -21.398000
N -10.646500 -11.665200 -20.116200
C -10.581900 -11.690800 -23.640800
N -10.496600 -11.353800 -25.865900
N -10.095400 -11.742800 -22.355300
C -9.782400 -11.267900 -24.773200
C -9.283600 -11.946300 -19.693400
H -9.279200 -12.189000 -18.744100
H -8.923600 -12.688500 -20.222200
H -8.728600 -11.149500 -19.829200
N -8.492700 -10.881200 -24.705200
H -8.168200 -10.615800 -23.901400
H -8.104100 -10.622900 -25.424800
20
Fragment
H -6.968900 -14.170900 -19.117600
H -6.904800 -14.163800 -20.640900
N -6.580400 -14.429200 -19.837200
H -6.344500 -14.697600 -24.713200
H -6.149500 -16.236600 -24.320100
H -5.793900 -15.737100 -25.798200
C -5.789500 -15.494300 -24.848900
C -5.290600 -14.815900 -19.769100
N -4.977600 -15.290900 -22.187100
N -4.576500 -14.901800 -18.676400
C -4.491200 -15.238900 -20.901600
N -4.426500 -15.213300 -24.426100
C -4.107000 -15.118200 -23.144400
H -3.779100 -14.105800 -25.969600
C -3.464400 -14.886200 -25.467400
H -3.368400 -15.649000 -26.074900
O -3.317100 -15.394600 -19.096000
N -3.308800 -15.592700 -20.479200
H -3.207800 -14.916600 -22.912400
H -2.596900 -14.683200 -25.058500
40
Fragment
H -12.476100 -11.135100 -19.483900
H -11.865200 -11.368600 -21.630000
N -11.764200 -12.044600 -24.063200
O -11.755900 -11.846600 -25.446300
H -11.704600 -12.101000 -18.467400
C -11.608700 -11.338100 -19.075000
H -11.293900 -10.557800 -18.572700
C -10.966000 -11.570200 -21.398000
N -10.646500 -11.665200 -20.116200
C -10.581900 -11.690800 -23.640800
N -10.496600 -11.353800 -25.865900
N -10.095400 -11.742800 -22.355300
C -9.782400 -11.267900 -24.773200
C -9.283600 -11.946300 -19.693400
H -9.279200 -12.189000 -18.744100
H -8.923600 -12.688500 -20.222200
H -8.728600 -11.149500 -19.829200
N -8.492700 -10.881200 -24.705200
H -8.168200 -10.615800 -23.901400
H -8.104100 -10.622900 -25.424800
H -6.968900 -14.170900 -19.117600
H -6.904800 -14.163800 -20.640900
N -6.580400 -14.429200 -19.837200
H -6.344500 -14.697600 -24.713200
H -6.149500 -16.236600 -24.320100
H -5.793900 -15.737100 -25.798200
C -5.789500 -15.494300 -24.848900
C -5.290600 -14.815900 -19.769100
N -4.977600 -15.290900 -22.187100
N -4.576500 -14.901800 -18.676400
C -4.491200 -15.238900 -20.901600
N -4.426500 -15.213300 -24.426100
C -4.107000 -15.118200 -23.144400
H -3.779100 -14.105800 -25.969600
C -3.464400 -14.886200 -25.467400
H -3.368400 -15.649000 -26.074900
O -3.317100 -15.394600 -19.096000
N -3.308800 -15.592700 -20.479200
H -3.207800 -14.916600 -22.912400
H -2.596900 -14.683200 -25.058500
