14
Fragment
H -17.587700 -15.991400 -23.575800
O -17.129900 -15.512500 -23.097300
N -16.286800 -16.275000 -22.377000
O -15.857700 -13.385100 -22.195000
C -15.353500 -15.665000 -21.723200
C -15.172400 -14.157200 -21.670000
O -14.534200 -17.765500 -20.998900
C -14.443000 -16.542400 -20.959000
N -14.013300 -13.779200 -20.937800
H -13.817200 -12.938300 -20.964300
N -13.488700 -15.956000 -20.277300
C -13.193700 -14.581400 -20.209500
H -12.987700 -16.473600 -19.810800
O -12.290500 -14.155100 -19.591500
10
Fragment
H -13.012100 -14.409600 -15.792000
N -12.252900 -14.076700 -15.978100
H -12.067100 -13.228300 -15.792000
H -12.024500 -16.612200 -16.746200
C -11.271600 -16.074100 -16.841900
N -11.184000 -14.812300 -16.534900
N -10.105000 -16.448900 -17.309700
C -9.899500 -14.412800 -16.812700
H -9.563800 -13.553700 -16.698400
N -9.215700 -15.453400 -17.269800
24
Fragment
H -17.587700 -15.991400 -23.575800
O -17.129900 -15.512500 -23.097300
N -16.286800 -16.275000 -22.377000
O -15.857700 -13.385100 -22.195000
C -15.353500 -15.665000 -21.723200
C -15.172400 -14.157200 -21.670000
O -14.534200 -17.765500 -20.998900
C -14.443000 -16.542400 -20.959000
N -14.013300 -13.779200 -20.937800
H -13.817200 -12.938300 -20.964300
N -13.488700 -15.956000 -20.277300
C -13.193700 -14.581400 -20.209500
H -12.987700 -16.473600 -19.810800
O -12.290500 -14.155100 -19.591500
H -13.012100 -14.409600 -15.792000
N -12.252900 -14.076700 -15.978100
H -12.067100 -13.228300 -15.792000
H -12.024500 -16.612200 -16.746200
C -11.271600 -16.074100 -16.841900
N -11.184000 -14.812300 -16.534900
N -10.105000 -16.448900 -17.309700
C -9.899500 -14.412800 -16.812700
H -9.563800 -13.553700 -16.698400
N -9.215700 -15.453400 -17.269800
