14
Fragment
H -17.587700 -15.991400 -23.575800
O -17.129900 -15.512500 -23.097300
N -16.286800 -16.275000 -22.377000
O -15.857700 -13.385100 -22.195000
C -15.353500 -15.665000 -21.723200
C -15.172400 -14.157200 -21.670000
O -14.534200 -17.765500 -20.998900
C -14.443000 -16.542400 -20.959000
N -14.013300 -13.779200 -20.937800
H -13.817200 -12.938300 -20.964300
N -13.488700 -15.956000 -20.277300
C -13.193700 -14.581400 -20.209500
H -12.987700 -16.473600 -19.810800
O -12.290500 -14.155100 -19.591500
10
Fragment
H -17.022200 -19.779100 -22.436800
N -16.262900 -19.446200 -22.622900
H -16.077200 -18.597800 -22.436800
H -16.034600 -21.981700 -23.391000
C -15.281700 -21.443600 -23.486700
N -15.194100 -20.181800 -23.179700
N -14.115000 -21.818400 -23.954500
C -13.909600 -19.782300 -23.457500
H -13.573900 -18.923200 -23.343200
N -13.225800 -20.822900 -23.914600
24
Fragment
H -17.587700 -15.991400 -23.575800
O -17.129900 -15.512500 -23.097300
N -16.286800 -16.275000 -22.377000
O -15.857700 -13.385100 -22.195000
C -15.353500 -15.665000 -21.723200
C -15.172400 -14.157200 -21.670000
O -14.534200 -17.765500 -20.998900
C -14.443000 -16.542400 -20.959000
N -14.013300 -13.779200 -20.937800
H -13.817200 -12.938300 -20.964300
N -13.488700 -15.956000 -20.277300
C -13.193700 -14.581400 -20.209500
H -12.987700 -16.473600 -19.810800
O -12.290500 -14.155100 -19.591500
H -17.022200 -19.779100 -22.436800
N -16.262900 -19.446200 -22.622900
H -16.077200 -18.597800 -22.436800
H -16.034600 -21.981700 -23.391000
C -15.281700 -21.443600 -23.486700
N -15.194100 -20.181800 -23.179700
N -14.115000 -21.818400 -23.954500
C -13.909600 -19.782300 -23.457500
H -13.573900 -18.923200 -23.343200
N -13.225800 -20.822900 -23.914600
