14
Fragment
H -17.587700 -15.991400 -23.575800
O -17.129900 -15.512500 -23.097300
N -16.286800 -16.275000 -22.377000
O -15.857700 -13.385100 -22.195000
C -15.353500 -15.665000 -21.723200
C -15.172400 -14.157200 -21.670000
O -14.534200 -17.765500 -20.998900
C -14.443000 -16.542400 -20.959000
N -14.013300 -13.779200 -20.937800
H -13.817200 -12.938300 -20.964300
N -13.488700 -15.956000 -20.277300
C -13.193700 -14.581400 -20.209500
H -12.987700 -16.473600 -19.810800
O -12.290500 -14.155100 -19.591500
14
Fragment
H -22.837700 -16.225600 -23.575800
O -22.379900 -16.704500 -23.097300
N -21.536800 -15.942000 -22.377000
O -21.107700 -18.831900 -22.195000
C -20.603500 -16.552000 -21.723200
C -20.422400 -18.059800 -21.670000
O -19.784200 -14.451500 -20.998900
C -19.693000 -15.674600 -20.959000
N -19.263300 -18.437800 -20.937800
H -19.067200 -19.278700 -20.964300
N -18.738700 -16.261000 -20.277300
C -18.443700 -17.635600 -20.209500
H -18.237700 -15.743400 -19.810800
O -17.540500 -18.061900 -19.591500
28
Fragment
H -17.587700 -15.991400 -23.575800
O -17.129900 -15.512500 -23.097300
N -16.286800 -16.275000 -22.377000
O -15.857700 -13.385100 -22.195000
C -15.353500 -15.665000 -21.723200
C -15.172400 -14.157200 -21.670000
O -14.534200 -17.765500 -20.998900
C -14.443000 -16.542400 -20.959000
N -14.013300 -13.779200 -20.937800
H -13.817200 -12.938300 -20.964300
N -13.488700 -15.956000 -20.277300
C -13.193700 -14.581400 -20.209500
H -12.987700 -16.473600 -19.810800
O -12.290500 -14.155100 -19.591500
H -22.837700 -16.225600 -23.575800
O -22.379900 -16.704500 -23.097300
N -21.536800 -15.942000 -22.377000
O -21.107700 -18.831900 -22.195000
C -20.603500 -16.552000 -21.723200
C -20.422400 -18.059800 -21.670000
O -19.784200 -14.451500 -20.998900
C -19.693000 -15.674600 -20.959000
N -19.263300 -18.437800 -20.937800
H -19.067200 -19.278700 -20.964300
N -18.738700 -16.261000 -20.277300
C -18.443700 -17.635600 -20.209500
H -18.237700 -15.743400 -19.810800
O -17.540500 -18.061900 -19.591500
