14
Fragment
H -17.587700 -15.991400 -23.575800
O -17.129900 -15.512500 -23.097300
N -16.286800 -16.275000 -22.377000
O -15.857700 -13.385100 -22.195000
C -15.353500 -15.665000 -21.723200
C -15.172400 -14.157200 -21.670000
O -14.534200 -17.765500 -20.998900
C -14.443000 -16.542400 -20.959000
N -14.013300 -13.779200 -20.937800
H -13.817200 -12.938300 -20.964300
N -13.488700 -15.956000 -20.277300
C -13.193700 -14.581400 -20.209500
H -12.987700 -16.473600 -19.810800
O -12.290500 -14.155100 -19.591500
10
Fragment
H -22.272200 -12.437900 -22.436800
N -21.512900 -12.770800 -22.622900
H -21.327200 -13.619200 -22.436800
H -21.284600 -10.235300 -23.391000
C -20.531700 -10.773400 -23.486700
N -20.444100 -12.035200 -23.179700
N -19.365000 -10.398600 -23.954500
C -19.159600 -12.434700 -23.457500
H -18.823900 -13.293800 -23.343200
N -18.475800 -11.394100 -23.914600
24
Fragment
H -17.587700 -15.991400 -23.575800
O -17.129900 -15.512500 -23.097300
N -16.286800 -16.275000 -22.377000
O -15.857700 -13.385100 -22.195000
C -15.353500 -15.665000 -21.723200
C -15.172400 -14.157200 -21.670000
O -14.534200 -17.765500 -20.998900
C -14.443000 -16.542400 -20.959000
N -14.013300 -13.779200 -20.937800
H -13.817200 -12.938300 -20.964300
N -13.488700 -15.956000 -20.277300
C -13.193700 -14.581400 -20.209500
H -12.987700 -16.473600 -19.810800
O -12.290500 -14.155100 -19.591500
H -22.272200 -12.437900 -22.436800
N -21.512900 -12.770800 -22.622900
H -21.327200 -13.619200 -22.436800
H -21.284600 -10.235300 -23.391000
C -20.531700 -10.773400 -23.486700
N -20.444100 -12.035200 -23.179700
N -19.365000 -10.398600 -23.954500
C -19.159600 -12.434700 -23.457500
H -18.823900 -13.293800 -23.343200
N -18.475800 -11.394100 -23.914600
