14
Fragment
H -17.587700 -15.991400 -23.575800
O -17.129900 -15.512500 -23.097300
N -16.286800 -16.275000 -22.377000
O -15.857700 -13.385100 -22.195000
C -15.353500 -15.665000 -21.723200
C -15.172400 -14.157200 -21.670000
O -14.534200 -17.765500 -20.998900
C -14.443000 -16.542400 -20.959000
N -14.013300 -13.779200 -20.937800
H -13.817200 -12.938300 -20.964300
N -13.488700 -15.956000 -20.277300
C -13.193700 -14.581400 -20.209500
H -12.987700 -16.473600 -19.810800
O -12.290500 -14.155100 -19.591500
14
Fragment
O -13.672300 -21.698100 -20.672000
H -13.210000 -19.330200 -20.285300
C -12.798500 -21.200900 -20.048700
N -12.654500 -19.843500 -19.869300
H -11.867600 -22.800000 -19.539700
N -11.815700 -21.947300 -19.424100
O -11.659900 -17.965300 -19.172900
C -11.655500 -19.207800 -19.179600
C -10.763500 -21.502700 -18.648000
C -10.711400 -20.012100 -18.566900
O -10.035700 -22.273800 -18.085800
N -9.664200 -19.251800 -17.933000
H -9.139100 -20.081900 -16.650500
O -8.863200 -19.866100 -17.392100
28
Fragment
H -17.587700 -15.991400 -23.575800
O -17.129900 -15.512500 -23.097300
N -16.286800 -16.275000 -22.377000
O -15.857700 -13.385100 -22.195000
C -15.353500 -15.665000 -21.723200
C -15.172400 -14.157200 -21.670000
O -14.534200 -17.765500 -20.998900
C -14.443000 -16.542400 -20.959000
N -14.013300 -13.779200 -20.937800
H -13.817200 -12.938300 -20.964300
N -13.488700 -15.956000 -20.277300
C -13.193700 -14.581400 -20.209500
H -12.987700 -16.473600 -19.810800
O -12.290500 -14.155100 -19.591500
O -13.672300 -21.698100 -20.672000
H -13.210000 -19.330200 -20.285300
C -12.798500 -21.200900 -20.048700
N -12.654500 -19.843500 -19.869300
H -11.867600 -22.800000 -19.539700
N -11.815700 -21.947300 -19.424100
O -11.659900 -17.965300 -19.172900
C -11.655500 -19.207800 -19.179600
C -10.763500 -21.502700 -18.648000
C -10.711400 -20.012100 -18.566900
O -10.035700 -22.273800 -18.085800
N -9.664200 -19.251800 -17.933000
H -9.139100 -20.081900 -16.650500
O -8.863200 -19.866100 -17.392100
