5
Fragment
Cl -5.213400 -7.524500 -16.181200
H -5.030800 -7.419200 -18.425900
Cl -4.833000 -9.656600 -18.062200
C -4.566100 -7.955800 -17.758300
Cl -2.870400 -7.588000 -17.844000
5
Fragment
Cl -7.213300 -3.881600 -16.747900
C -5.517700 -3.513800 -16.833500
Cl -5.250700 -1.813000 -16.529600
H -5.052900 -4.050400 -16.165900
Cl -4.870300 -3.945100 -18.410600
10
Fragment
Cl -5.213400 -7.524500 -16.181200
H -5.030800 -7.419200 -18.425900
Cl -4.833000 -9.656600 -18.062200
C -4.566100 -7.955800 -17.758300
Cl -2.870400 -7.588000 -17.844000
Cl -7.213300 -3.881600 -16.747900
C -5.517700 -3.513800 -16.833500
Cl -5.250700 -1.813000 -16.529600
H -5.052900 -4.050400 -16.165900
Cl -4.870300 -3.945100 -18.410600
