13
Fragment
O -7.711300 -19.499400 -20.237600
O -7.028200 -18.863500 -18.265900
N -6.957700 -18.882800 -19.487400
H -6.184800 -18.573200 -22.040300
C -5.912300 -18.108600 -20.118300
N -5.742000 -18.115200 -21.462300
N -5.095200 -17.322300 -19.458800
C -4.722000 -17.253500 -21.707800
C -4.354500 -16.791600 -20.463900
H -4.346700 -17.021600 -22.549100
N -3.282000 -15.873100 -20.187700
O -3.058900 -15.559000 -19.021300
O -2.633100 -15.466400 -21.152100
13
Fragment
O -12.747900 -19.499400 -20.237600
O -12.064800 -18.863500 -18.265900
N -11.994300 -18.882800 -19.487400
H -11.221400 -18.573200 -22.040300
C -10.948900 -18.108600 -20.118300
N -10.778600 -18.115200 -21.462300
N -10.131800 -17.322300 -19.458800
C -9.758600 -17.253500 -21.707800
C -9.391100 -16.791600 -20.463900
H -9.383300 -17.021600 -22.549100
N -8.318600 -15.873100 -20.187700
O -8.095500 -15.559000 -19.021300
O -7.669700 -15.466400 -21.152100
26
Fragment
O -7.711300 -19.499400 -20.237600
O -7.028200 -18.863500 -18.265900
N -6.957700 -18.882800 -19.487400
H -6.184800 -18.573200 -22.040300
C -5.912300 -18.108600 -20.118300
N -5.742000 -18.115200 -21.462300
N -5.095200 -17.322300 -19.458800
C -4.722000 -17.253500 -21.707800
C -4.354500 -16.791600 -20.463900
H -4.346700 -17.021600 -22.549100
N -3.282000 -15.873100 -20.187700
O -3.058900 -15.559000 -19.021300
O -2.633100 -15.466400 -21.152100
O -12.747900 -19.499400 -20.237600
O -12.064800 -18.863500 -18.265900
N -11.994300 -18.882800 -19.487400
H -11.221400 -18.573200 -22.040300
C -10.948900 -18.108600 -20.118300
N -10.778600 -18.115200 -21.462300
N -10.131800 -17.322300 -19.458800
C -9.758600 -17.253500 -21.707800
C -9.391100 -16.791600 -20.463900
H -9.383300 -17.021600 -22.549100
N -8.318600 -15.873100 -20.187700
O -8.095500 -15.559000 -19.021300
O -7.669700 -15.466400 -21.152100
