13
Fragment
O -7.711300 -19.499400 -20.237600
O -7.028200 -18.863500 -18.265900
N -6.957700 -18.882800 -19.487400
H -6.184800 -18.573200 -22.040300
C -5.912300 -18.108600 -20.118300
N -5.742000 -18.115200 -21.462300
N -5.095200 -17.322300 -19.458800
C -4.722000 -17.253500 -21.707800
C -4.354500 -16.791600 -20.463900
H -4.346700 -17.021600 -22.549100
N -3.282000 -15.873100 -20.187700
O -3.058900 -15.559000 -19.021300
O -2.633100 -15.466400 -21.152100
13
Fragment
O -10.297000 -9.757900 -19.226600
O -9.871200 -9.850500 -21.357400
N -9.648100 -10.164600 -20.191000
H -8.583400 -11.313100 -17.829600
C -8.575600 -11.083100 -19.914800
C -8.208100 -11.545000 -18.671000
N -7.834800 -11.613800 -20.919900
N -7.188000 -12.406700 -18.916500
C -7.017700 -12.400100 -20.260400
H -6.745200 -12.864700 -18.338400
N -5.972300 -13.174300 -20.891300
O -5.901800 -13.155000 -22.112800
O -5.218700 -13.790900 -20.141100
26
Fragment
O -7.711300 -19.499400 -20.237600
O -7.028200 -18.863500 -18.265900
N -6.957700 -18.882800 -19.487400
H -6.184800 -18.573200 -22.040300
C -5.912300 -18.108600 -20.118300
N -5.742000 -18.115200 -21.462300
N -5.095200 -17.322300 -19.458800
C -4.722000 -17.253500 -21.707800
C -4.354500 -16.791600 -20.463900
H -4.346700 -17.021600 -22.549100
N -3.282000 -15.873100 -20.187700
O -3.058900 -15.559000 -19.021300
O -2.633100 -15.466400 -21.152100
O -10.297000 -9.757900 -19.226600
O -9.871200 -9.850500 -21.357400
N -9.648100 -10.164600 -20.191000
H -8.583400 -11.313100 -17.829600
C -8.575600 -11.083100 -19.914800
C -8.208100 -11.545000 -18.671000
N -7.834800 -11.613800 -20.919900
N -7.188000 -12.406700 -18.916500
C -7.017700 -12.400100 -20.260400
H -6.745200 -12.864700 -18.338400
N -5.972300 -13.174300 -20.891300
O -5.901800 -13.155000 -22.112800
O -5.218700 -13.790900 -20.141100
