18
Fragment
H -12.208800 -9.817600 -8.728000
N -11.876500 -8.001800 -8.314900
N -11.595100 -9.233200 -8.788900
O -11.546200 -5.383600 -7.739700
C -10.733200 -7.383100 -8.525800
O -10.592400 -14.221000 -10.712300
N -10.566300 -5.982100 -8.164400
C -10.330600 -9.266900 -9.230200
N -10.297700 -11.638100 -9.932300
N -9.739300 -8.083900 -9.082900
C -9.706300 -10.455100 -9.785000
N -9.470700 -13.739900 -10.850800
O -9.444600 -5.501000 -8.302900
C -9.303700 -12.338900 -10.489500
O -8.490800 -14.338400 -11.275600
N -8.441800 -10.488800 -10.226300
N -8.160400 -11.720200 -10.700300
H -7.828100 -9.904400 -10.287200
18
Fragment
H -13.429400 -14.834900 -3.974200
N -13.097100 -16.650700 -3.561100
N -12.815700 -15.419300 -4.035100
O -12.766700 -19.268900 -2.985900
C -11.953800 -17.269400 -3.772000
O -11.812900 -10.431500 -5.958500
N -11.786800 -18.670400 -3.410600
C -11.551100 -15.385600 -4.476400
N -11.518200 -13.014400 -5.178500
N -10.959800 -16.568600 -4.329100
C -10.926900 -14.197400 -5.031200
N -10.691200 -10.912600 -6.097000
O -10.665100 -19.151500 -3.549100
C -10.524300 -12.313600 -5.735700
O -9.711300 -10.314100 -6.521700
N -9.662400 -14.163700 -5.472500
N -9.381000 -12.932300 -5.946500
H -9.048600 -14.748100 -5.533400
36
Fragment
H -12.208800 -9.817600 -8.728000
N -11.876500 -8.001800 -8.314900
N -11.595100 -9.233200 -8.788900
O -11.546200 -5.383600 -7.739700
C -10.733200 -7.383100 -8.525800
O -10.592400 -14.221000 -10.712300
N -10.566300 -5.982100 -8.164400
C -10.330600 -9.266900 -9.230200
N -10.297700 -11.638100 -9.932300
N -9.739300 -8.083900 -9.082900
C -9.706300 -10.455100 -9.785000
N -9.470700 -13.739900 -10.850800
O -9.444600 -5.501000 -8.302900
C -9.303700 -12.338900 -10.489500
O -8.490800 -14.338400 -11.275600
N -8.441800 -10.488800 -10.226300
N -8.160400 -11.720200 -10.700300
H -7.828100 -9.904400 -10.287200
H -13.429400 -14.834900 -3.974200
N -13.097100 -16.650700 -3.561100
N -12.815700 -15.419300 -4.035100
O -12.766700 -19.268900 -2.985900
C -11.953800 -17.269400 -3.772000
O -11.812900 -10.431500 -5.958500
N -11.786800 -18.670400 -3.410600
C -11.551100 -15.385600 -4.476400
N -11.518200 -13.014400 -5.178500
N -10.959800 -16.568600 -4.329100
C -10.926900 -14.197400 -5.031200
N -10.691200 -10.912600 -6.097000
O -10.665100 -19.151500 -3.549100
C -10.524300 -12.313600 -5.735700
O -9.711300 -10.314100 -6.521700
N -9.662400 -14.163700 -5.472500
N -9.381000 -12.932300 -5.946500
H -9.048600 -14.748100 -5.533400
