18
Fragment
H -12.208800 -9.817600 -8.728000
N -11.876500 -8.001800 -8.314900
N -11.595100 -9.233200 -8.788900
O -11.546200 -5.383600 -7.739700
C -10.733200 -7.383100 -8.525800
O -10.592400 -14.221000 -10.712300
N -10.566300 -5.982100 -8.164400
C -10.330600 -9.266900 -9.230200
N -10.297700 -11.638100 -9.932300
N -9.739300 -8.083900 -9.082900
C -9.706300 -10.455100 -9.785000
N -9.470700 -13.739900 -10.850800
O -9.444600 -5.501000 -8.302900
C -9.303700 -12.338900 -10.489500
O -8.490800 -14.338400 -11.275600
N -8.441800 -10.488800 -10.226300
N -8.160400 -11.720200 -10.700300
H -7.828100 -9.904400 -10.287200
16
Fragment
H -14.631500 -11.890400 -12.310500
H -14.619000 -7.816800 -14.044600
C -13.908900 -7.550600 -14.617000
C -13.821900 -12.171400 -12.720200
N -13.780900 -6.384300 -15.170600
N -13.395800 -10.106900 -13.906200
N -13.295700 -13.349800 -12.589100
N -13.047500 -11.390600 -13.531500
N -12.854600 -8.331400 -14.991300
N -12.606400 -6.372200 -15.933700
N -12.506400 -9.615100 -14.616600
N -12.121300 -13.337700 -13.352200
C -12.080300 -7.550600 -15.802600
C -11.993300 -12.171400 -13.905800
H -11.283200 -11.905200 -14.478200
H -11.270700 -7.831600 -16.212400
34
Fragment
H -12.208800 -9.817600 -8.728000
N -11.876500 -8.001800 -8.314900
N -11.595100 -9.233200 -8.788900
O -11.546200 -5.383600 -7.739700
C -10.733200 -7.383100 -8.525800
O -10.592400 -14.221000 -10.712300
N -10.566300 -5.982100 -8.164400
C -10.330600 -9.266900 -9.230200
N -10.297700 -11.638100 -9.932300
N -9.739300 -8.083900 -9.082900
C -9.706300 -10.455100 -9.785000
N -9.470700 -13.739900 -10.850800
O -9.444600 -5.501000 -8.302900
C -9.303700 -12.338900 -10.489500
O -8.490800 -14.338400 -11.275600
N -8.441800 -10.488800 -10.226300
N -8.160400 -11.720200 -10.700300
H -7.828100 -9.904400 -10.287200
H -14.631500 -11.890400 -12.310500
H -14.619000 -7.816800 -14.044600
C -13.908900 -7.550600 -14.617000
C -13.821900 -12.171400 -12.720200
N -13.780900 -6.384300 -15.170600
N -13.395800 -10.106900 -13.906200
N -13.295700 -13.349800 -12.589100
N -13.047500 -11.390600 -13.531500
N -12.854600 -8.331400 -14.991300
N -12.606400 -6.372200 -15.933700
N -12.506400 -9.615100 -14.616600
N -12.121300 -13.337700 -13.352200
C -12.080300 -7.550600 -15.802600
C -11.993300 -12.171400 -13.905800
H -11.283200 -11.905200 -14.478200
H -11.270700 -7.831600 -16.212400
