16
Fragment
N -8.522600 -14.548300 -34.360400
H -8.149400 -16.205000 -33.307200
C -7.951700 -15.673100 -34.070100
N -7.932900 -14.085300 -35.552400
C -7.046300 -14.954800 -35.928500
N -7.019200 -15.983400 -35.026100
H -6.503200 -14.888000 -36.704200
N -6.276200 -17.148200 -34.978300
N -5.563600 -17.237800 -35.988900
H -5.336600 -19.498000 -34.262900
N -4.820600 -18.402600 -35.941100
C -4.793500 -19.431200 -35.038600
N -3.906900 -20.300700 -35.414700
C -3.888000 -18.712900 -36.897000
H -3.690400 -18.181000 -37.659900
N -3.317200 -19.837700 -36.606700
13
Fragment
O -5.559600 -21.503500 -42.640800
N -4.720000 -21.041900 -43.408700
O -4.650300 -21.287600 -44.611400
H -3.929800 -20.333600 -40.725700
C -3.742900 -20.137000 -42.837700
C -3.513600 -19.928100 -41.477900
N -2.978600 -19.406200 -43.653800
C -2.525300 -18.979100 -41.521900
N -2.230000 -18.685600 -42.810500
O -2.034700 -18.714700 -39.304700
N -1.790800 -18.353800 -40.458600
H -1.769800 -18.082500 -43.193000
O -0.955400 -17.514700 -40.776800
29
Fragment
N -8.522600 -14.548300 -34.360400
H -8.149400 -16.205000 -33.307200
C -7.951700 -15.673100 -34.070100
N -7.932900 -14.085300 -35.552400
C -7.046300 -14.954800 -35.928500
N -7.019200 -15.983400 -35.026100
H -6.503200 -14.888000 -36.704200
N -6.276200 -17.148200 -34.978300
N -5.563600 -17.237800 -35.988900
H -5.336600 -19.498000 -34.262900
N -4.820600 -18.402600 -35.941100
C -4.793500 -19.431200 -35.038600
N -3.906900 -20.300700 -35.414700
C -3.888000 -18.712900 -36.897000
H -3.690400 -18.181000 -37.659900
N -3.317200 -19.837700 -36.606700
O -5.559600 -21.503500 -42.640800
N -4.720000 -21.041900 -43.408700
O -4.650300 -21.287600 -44.611400
H -3.929800 -20.333600 -40.725700
C -3.742900 -20.137000 -42.837700
C -3.513600 -19.928100 -41.477900
N -2.978600 -19.406200 -43.653800
C -2.525300 -18.979100 -41.521900
N -2.230000 -18.685600 -42.810500
O -2.034700 -18.714700 -39.304700
N -1.790800 -18.353800 -40.458600
H -1.769800 -18.082500 -43.193000
O -0.955400 -17.514700 -40.776800
