16
Fragment
N -8.522600 -14.548300 -34.360400
H -8.149400 -16.205000 -33.307200
C -7.951700 -15.673100 -34.070100
N -7.932900 -14.085300 -35.552400
C -7.046300 -14.954800 -35.928500
N -7.019200 -15.983400 -35.026100
H -6.503200 -14.888000 -36.704200
N -6.276200 -17.148200 -34.978300
N -5.563600 -17.237800 -35.988900
H -5.336600 -19.498000 -34.262900
N -4.820600 -18.402600 -35.941100
C -4.793500 -19.431200 -35.038600
N -3.906900 -20.300700 -35.414700
C -3.888000 -18.712900 -36.897000
H -3.690400 -18.181000 -37.659900
N -3.317200 -19.837700 -36.606700
13
Fragment
O -8.118000 -11.783700 -42.018200
H -7.303700 -12.351500 -39.602000
N -7.282700 -12.622800 -42.336400
O -7.038800 -12.983700 -43.490300
N -6.843500 -12.954600 -39.984500
C -6.548100 -13.248100 -41.273100
N -6.094900 -13.675200 -39.141200
C -5.559900 -14.197100 -41.317100
C -5.330600 -14.406000 -39.957300
H -5.143600 -14.602600 -42.069300
O -4.423100 -15.556600 -38.183600
N -4.353400 -15.310900 -39.386300
O -3.513900 -15.772500 -40.154200
29
Fragment
N -8.522600 -14.548300 -34.360400
H -8.149400 -16.205000 -33.307200
C -7.951700 -15.673100 -34.070100
N -7.932900 -14.085300 -35.552400
C -7.046300 -14.954800 -35.928500
N -7.019200 -15.983400 -35.026100
H -6.503200 -14.888000 -36.704200
N -6.276200 -17.148200 -34.978300
N -5.563600 -17.237800 -35.988900
H -5.336600 -19.498000 -34.262900
N -4.820600 -18.402600 -35.941100
C -4.793500 -19.431200 -35.038600
N -3.906900 -20.300700 -35.414700
C -3.888000 -18.712900 -36.897000
H -3.690400 -18.181000 -37.659900
N -3.317200 -19.837700 -36.606700
O -8.118000 -11.783700 -42.018200
H -7.303700 -12.351500 -39.602000
N -7.282700 -12.622800 -42.336400
O -7.038800 -12.983700 -43.490300
N -6.843500 -12.954600 -39.984500
C -6.548100 -13.248100 -41.273100
N -6.094900 -13.675200 -39.141200
C -5.559900 -14.197100 -41.317100
C -5.330600 -14.406000 -39.957300
H -5.143600 -14.602600 -42.069300
O -4.423100 -15.556600 -38.183600
N -4.353400 -15.310900 -39.386300
O -3.513900 -15.772500 -40.154200
