16
Fragment
N -8.522600 -14.548300 -34.360400
H -8.149400 -16.205000 -33.307200
C -7.951700 -15.673100 -34.070100
N -7.932900 -14.085300 -35.552400
C -7.046300 -14.954800 -35.928500
N -7.019200 -15.983400 -35.026100
H -6.503200 -14.888000 -36.704200
N -6.276200 -17.148200 -34.978300
N -5.563600 -17.237800 -35.988900
H -5.336600 -19.498000 -34.262900
N -4.820600 -18.402600 -35.941100
C -4.793500 -19.431200 -35.038600
N -3.906900 -20.300700 -35.414700
C -3.888000 -18.712900 -36.897000
H -3.690400 -18.181000 -37.659900
N -3.317200 -19.837700 -36.606700
16
Fragment
H -7.941800 -21.946300 -34.054800
N -7.905100 -23.023800 -32.352300
C -7.526000 -22.626600 -33.537900
N -7.042500 -24.049500 -31.925700
N -6.430000 -23.354400 -33.910900
H -6.376100 -20.994900 -38.107000
C -6.172700 -24.221000 -32.877700
N -6.166900 -22.524300 -35.891900
N -5.672900 -23.323700 -35.075300
C -5.667100 -21.627000 -38.089500
H -5.463700 -24.853100 -32.860100
N -5.409800 -22.493600 -37.056200
N -4.797200 -21.798500 -39.041400
C -4.313800 -23.221400 -37.429200
N -3.934700 -22.824200 -38.614900
H -3.897900 -23.901700 -36.912400
32
Fragment
N -8.522600 -14.548300 -34.360400
H -8.149400 -16.205000 -33.307200
C -7.951700 -15.673100 -34.070100
N -7.932900 -14.085300 -35.552400
C -7.046300 -14.954800 -35.928500
N -7.019200 -15.983400 -35.026100
H -6.503200 -14.888000 -36.704200
N -6.276200 -17.148200 -34.978300
N -5.563600 -17.237800 -35.988900
H -5.336600 -19.498000 -34.262900
N -4.820600 -18.402600 -35.941100
C -4.793500 -19.431200 -35.038600
N -3.906900 -20.300700 -35.414700
C -3.888000 -18.712900 -36.897000
H -3.690400 -18.181000 -37.659900
N -3.317200 -19.837700 -36.606700
H -7.941800 -21.946300 -34.054800
N -7.905100 -23.023800 -32.352300
C -7.526000 -22.626600 -33.537900
N -7.042500 -24.049500 -31.925700
N -6.430000 -23.354400 -33.910900
H -6.376100 -20.994900 -38.107000
C -6.172700 -24.221000 -32.877700
N -6.166900 -22.524300 -35.891900
N -5.672900 -23.323700 -35.075300
C -5.667100 -21.627000 -38.089500
H -5.463700 -24.853100 -32.860100
N -5.409800 -22.493600 -37.056200
N -4.797200 -21.798500 -39.041400
C -4.313800 -23.221400 -37.429200
N -3.934700 -22.824200 -38.614900
H -3.897900 -23.901700 -36.912400
