18
Fragment
H -12.208800 -9.817600 -8.728000
N -11.876500 -8.001800 -8.314900
N -11.595100 -9.233200 -8.788900
O -11.546200 -5.383600 -7.739700
C -10.733200 -7.383100 -8.525800
O -10.592400 -14.221000 -10.712300
N -10.566300 -5.982100 -8.164400
C -10.330600 -9.266900 -9.230200
N -10.297700 -11.638100 -9.932300
N -9.739300 -8.083900 -9.082900
C -9.706300 -10.455100 -9.785000
N -9.470700 -13.739900 -10.850800
O -9.444600 -5.501000 -8.302900
C -9.303700 -12.338900 -10.489500
O -8.490800 -14.338400 -11.275600
N -8.441800 -10.488800 -10.226300
N -8.160400 -11.720200 -10.700300
H -7.828100 -9.904400 -10.287200
18
Fragment
H -12.208800 0.043400 -8.728000
N -11.876500 1.859200 -8.314900
N -11.595100 0.627800 -8.788900
O -11.546200 4.477400 -7.739700
C -10.733200 2.477900 -8.525800
O -10.592400 -4.360000 -10.712300
N -10.566300 3.878900 -8.164400
C -10.330600 0.594100 -9.230200
N -10.297700 -1.777100 -9.932300
N -9.739300 1.777100 -9.082900
C -9.706300 -0.594100 -9.785000
N -9.470700 -3.878900 -10.850800
O -9.444600 4.360000 -8.302900
C -9.303700 -2.477900 -10.489500
O -8.490800 -4.477400 -11.275600
N -8.441800 -0.627800 -10.226300
N -8.160400 -1.859200 -10.700300
H -7.828100 -0.043400 -10.287200
36
Fragment
H -12.208800 -9.817600 -8.728000
N -11.876500 -8.001800 -8.314900
N -11.595100 -9.233200 -8.788900
O -11.546200 -5.383600 -7.739700
C -10.733200 -7.383100 -8.525800
O -10.592400 -14.221000 -10.712300
N -10.566300 -5.982100 -8.164400
C -10.330600 -9.266900 -9.230200
N -10.297700 -11.638100 -9.932300
N -9.739300 -8.083900 -9.082900
C -9.706300 -10.455100 -9.785000
N -9.470700 -13.739900 -10.850800
O -9.444600 -5.501000 -8.302900
C -9.303700 -12.338900 -10.489500
O -8.490800 -14.338400 -11.275600
N -8.441800 -10.488800 -10.226300
N -8.160400 -11.720200 -10.700300
H -7.828100 -9.904400 -10.287200
H -12.208800 0.043400 -8.728000
N -11.876500 1.859200 -8.314900
N -11.595100 0.627800 -8.788900
O -11.546200 4.477400 -7.739700
C -10.733200 2.477900 -8.525800
O -10.592400 -4.360000 -10.712300
N -10.566300 3.878900 -8.164400
C -10.330600 0.594100 -9.230200
N -10.297700 -1.777100 -9.932300
N -9.739300 1.777100 -9.082900
C -9.706300 -0.594100 -9.785000
N -9.470700 -3.878900 -10.850800
O -9.444600 4.360000 -8.302900
C -9.303700 -2.477900 -10.489500
O -8.490800 -4.477400 -11.275600
N -8.441800 -0.627800 -10.226300
N -8.160400 -1.859200 -10.700300
H -7.828100 -0.043400 -10.287200
