18
Fragment
H -12.208800 -9.817600 -8.728000
N -11.876500 -8.001800 -8.314900
N -11.595100 -9.233200 -8.788900
O -11.546200 -5.383600 -7.739700
C -10.733200 -7.383100 -8.525800
O -10.592400 -14.221000 -10.712300
N -10.566300 -5.982100 -8.164400
C -10.330600 -9.266900 -9.230200
N -10.297700 -11.638100 -9.932300
N -9.739300 -8.083900 -9.082900
C -9.706300 -10.455100 -9.785000
N -9.470700 -13.739900 -10.850800
O -9.444600 -5.501000 -8.302900
C -9.303700 -12.338900 -10.489500
O -8.490800 -14.338400 -11.275600
N -8.441800 -10.488800 -10.226300
N -8.160400 -11.720200 -10.700300
H -7.828100 -9.904400 -10.287200
18
Fragment
H -10.988300 -14.834900 -13.481800
N -10.655900 -16.650700 -13.068700
N -10.374600 -15.419300 -13.542700
O -10.325600 -19.268900 -12.493500
C -9.512700 -17.269400 -13.279600
O -9.371800 -10.431500 -15.466100
N -9.345700 -18.670400 -12.918200
C -9.110000 -15.385600 -13.984000
N -9.077100 -13.014400 -14.686100
N -8.518700 -16.568600 -13.836700
C -8.485800 -14.197400 -14.538900
N -8.250100 -10.912600 -15.604700
O -8.224000 -19.151500 -13.056700
C -8.083100 -12.313600 -15.243300
O -7.270200 -10.314100 -16.029400
N -7.221200 -14.163700 -14.980100
N -6.939800 -12.932300 -15.454100
H -6.607500 -14.748100 -15.041000
36
Fragment
H -12.208800 -9.817600 -8.728000
N -11.876500 -8.001800 -8.314900
N -11.595100 -9.233200 -8.788900
O -11.546200 -5.383600 -7.739700
C -10.733200 -7.383100 -8.525800
O -10.592400 -14.221000 -10.712300
N -10.566300 -5.982100 -8.164400
C -10.330600 -9.266900 -9.230200
N -10.297700 -11.638100 -9.932300
N -9.739300 -8.083900 -9.082900
C -9.706300 -10.455100 -9.785000
N -9.470700 -13.739900 -10.850800
O -9.444600 -5.501000 -8.302900
C -9.303700 -12.338900 -10.489500
O -8.490800 -14.338400 -11.275600
N -8.441800 -10.488800 -10.226300
N -8.160400 -11.720200 -10.700300
H -7.828100 -9.904400 -10.287200
H -10.988300 -14.834900 -13.481800
N -10.655900 -16.650700 -13.068700
N -10.374600 -15.419300 -13.542700
O -10.325600 -19.268900 -12.493500
C -9.512700 -17.269400 -13.279600
O -9.371800 -10.431500 -15.466100
N -9.345700 -18.670400 -12.918200
C -9.110000 -15.385600 -13.984000
N -9.077100 -13.014400 -14.686100
N -8.518700 -16.568600 -13.836700
C -8.485800 -14.197400 -14.538900
N -8.250100 -10.912600 -15.604700
O -8.224000 -19.151500 -13.056700
C -8.083100 -12.313600 -15.243300
O -7.270200 -10.314100 -16.029400
N -7.221200 -14.163700 -14.980100
N -6.939800 -12.932300 -15.454100
H -6.607500 -14.748100 -15.041000
