34
Fragment
O -21.495900 -11.038100 -14.716300
H -21.411700 -13.468800 -11.898800
H -21.222500 -14.841500 -11.390900
H -21.141000 -12.857300 -16.178500
H -20.836200 -10.950000 -12.125800
C -20.773100 -14.120700 -11.611300
C -20.727500 -12.014900 -14.611400
N -20.620200 -12.919000 -15.606800
H -20.245200 -13.807400 -10.839700
H -20.206600 -14.893600 -15.389600
H -19.989800 -14.233000 -17.713100
O -19.968800 -16.669700 -12.143100
N -19.946500 -12.185300 -13.513400
C -19.928200 -11.137300 -12.490000
N -19.864000 -14.462300 -12.702900
C -19.713800 -14.058700 -15.660800
H -19.569700 -10.275500 -12.795800
C -19.438800 -15.757200 -12.804500
H -19.371100 -11.389100 -11.725900
C -19.237800 -14.216400 -17.099300
C -19.108700 -13.360800 -13.337300
H -18.762400 -15.033900 -17.226800
H -18.635300 -13.461200 -17.334900
C -18.568100 -13.829100 -14.684900
N -18.443100 -16.034100 -13.661500
H -18.367900 -13.079600 -12.741800
H -18.271300 -16.847500 -13.779300
H -17.996100 -13.091900 -15.076200
C -17.707700 -15.076700 -14.481800
H -17.575500 -15.522200 -15.378800
H -16.370900 -14.119900 -13.087600
C -16.343200 -14.740600 -13.888400
H -15.819800 -14.231700 -14.589800
H -15.799500 -15.532300 -13.671200
34
Fragment
H -21.164300 -8.597800 -18.750600
H -21.144000 -9.898400 -17.832000
C -20.620600 -9.389500 -18.533400
H -20.592900 -10.010200 -19.334200
H -19.388300 -8.607900 -17.043100
C -19.256100 -9.053500 -17.940100
H -18.967700 -11.038200 -17.345700
H -18.692500 -7.282600 -18.642600
H -18.595900 -11.050500 -19.680100
N -18.520700 -8.096000 -18.760400
C -18.395700 -10.301000 -17.736900
H -18.328500 -10.668900 -15.087000
H -18.201400 -9.096200 -15.195000
C -17.855100 -10.769300 -19.084600
C -17.726000 -9.913700 -15.322600
H -17.592700 -12.741000 -20.695900
C -17.525000 -8.372900 -19.617400
H -17.394100 -13.854600 -19.626000
C -17.250000 -10.071400 -16.761000
N -17.099800 -9.667900 -19.719000
C -17.035600 -12.992800 -19.931900
N -17.017300 -11.944900 -18.908400
O -16.995000 -7.460500 -20.278800
H -16.974000 -9.897100 -14.708700
H -16.757200 -9.236500 -17.032300
H -16.718600 -10.322700 -21.582100
N -16.343500 -11.211100 -16.815100
C -16.236300 -12.115200 -17.810400
C -16.190700 -10.009400 -20.810500
H -16.127600 -13.180200 -20.296100
H -15.822800 -11.272900 -16.243300
H -15.741300 -9.288700 -21.031000
H -15.552100 -10.661400 -20.523000
O -15.467900 -13.092000 -17.705600
68
Fragment
O -21.495900 -11.038100 -14.716300
H -21.411700 -13.468800 -11.898800
H -21.222500 -14.841500 -11.390900
H -21.141000 -12.857300 -16.178500
H -20.836200 -10.950000 -12.125800
C -20.773100 -14.120700 -11.611300
C -20.727500 -12.014900 -14.611400
N -20.620200 -12.919000 -15.606800
H -20.245200 -13.807400 -10.839700
H -20.206600 -14.893600 -15.389600
H -19.989800 -14.233000 -17.713100
O -19.968800 -16.669700 -12.143100
N -19.946500 -12.185300 -13.513400
C -19.928200 -11.137300 -12.490000
N -19.864000 -14.462300 -12.702900
C -19.713800 -14.058700 -15.660800
H -19.569700 -10.275500 -12.795800
C -19.438800 -15.757200 -12.804500
H -19.371100 -11.389100 -11.725900
C -19.237800 -14.216400 -17.099300
C -19.108700 -13.360800 -13.337300
H -18.762400 -15.033900 -17.226800
H -18.635300 -13.461200 -17.334900
C -18.568100 -13.829100 -14.684900
N -18.443100 -16.034100 -13.661500
H -18.367900 -13.079600 -12.741800
H -18.271300 -16.847500 -13.779300
H -17.996100 -13.091900 -15.076200
C -17.707700 -15.076700 -14.481800
H -17.575500 -15.522200 -15.378800
H -16.370900 -14.119900 -13.087600
C -16.343200 -14.740600 -13.888400
H -15.819800 -14.231700 -14.589800
H -15.799500 -15.532300 -13.671200
H -21.164300 -8.597800 -18.750600
H -21.144000 -9.898400 -17.832000
C -20.620600 -9.389500 -18.533400
H -20.592900 -10.010200 -19.334200
H -19.388300 -8.607900 -17.043100
C -19.256100 -9.053500 -17.940100
H -18.967700 -11.038200 -17.345700
H -18.692500 -7.282600 -18.642600
H -18.595900 -11.050500 -19.680100
N -18.520700 -8.096000 -18.760400
C -18.395700 -10.301000 -17.736900
H -18.328500 -10.668900 -15.087000
H -18.201400 -9.096200 -15.195000
C -17.855100 -10.769300 -19.084600
C -17.726000 -9.913700 -15.322600
H -17.592700 -12.741000 -20.695900
C -17.525000 -8.372900 -19.617400
H -17.394100 -13.854600 -19.626000
C -17.250000 -10.071400 -16.761000
N -17.099800 -9.667900 -19.719000
C -17.035600 -12.992800 -19.931900
N -17.017300 -11.944900 -18.908400
O -16.995000 -7.460500 -20.278800
H -16.974000 -9.897100 -14.708700
H -16.757200 -9.236500 -17.032300
H -16.718600 -10.322700 -21.582100
N -16.343500 -11.211100 -16.815100
C -16.236300 -12.115200 -17.810400
C -16.190700 -10.009400 -20.810500
H -16.127600 -13.180200 -20.296100
H -15.822800 -11.272900 -16.243300
H -15.741300 -9.288700 -21.031000
H -15.552100 -10.661400 -20.523000
O -15.467900 -13.092000 -17.705600
