34
Fragment
O -21.495900 -11.038100 -14.716300
H -21.411700 -13.468800 -11.898800
H -21.222500 -14.841500 -11.390900
H -21.141000 -12.857300 -16.178500
H -20.836200 -10.950000 -12.125800
C -20.773100 -14.120700 -11.611300
C -20.727500 -12.014900 -14.611400
N -20.620200 -12.919000 -15.606800
H -20.245200 -13.807400 -10.839700
H -20.206600 -14.893600 -15.389600
H -19.989800 -14.233000 -17.713100
O -19.968800 -16.669700 -12.143100
N -19.946500 -12.185300 -13.513400
C -19.928200 -11.137300 -12.490000
N -19.864000 -14.462300 -12.702900
C -19.713800 -14.058700 -15.660800
H -19.569700 -10.275500 -12.795800
C -19.438800 -15.757200 -12.804500
H -19.371100 -11.389100 -11.725900
C -19.237800 -14.216400 -17.099300
C -19.108700 -13.360800 -13.337300
H -18.762400 -15.033900 -17.226800
H -18.635300 -13.461200 -17.334900
C -18.568100 -13.829100 -14.684900
N -18.443100 -16.034100 -13.661500
H -18.367900 -13.079600 -12.741800
H -18.271300 -16.847500 -13.779300
H -17.996100 -13.091900 -15.076200
C -17.707700 -15.076700 -14.481800
H -17.575500 -15.522200 -15.378800
H -16.370900 -14.119900 -13.087600
C -16.343200 -14.740600 -13.888400
H -15.819800 -14.231700 -14.589800
H -15.799500 -15.532300 -13.671200
34
Fragment
O -17.853700 -18.739300 -14.716300
H -17.769500 -21.169900 -11.898800
H -17.580300 -22.542600 -11.390900
H -17.498700 -20.558400 -16.178500
H -17.194000 -18.651100 -12.125800
C -17.130900 -21.821900 -11.611300
C -17.085300 -19.716100 -14.611400
N -16.978000 -20.620200 -15.606800
H -16.603000 -21.508600 -10.839700
H -16.564300 -22.594800 -15.389600
H -16.347600 -21.934200 -17.713100
O -16.326600 -24.370800 -12.143100
N -16.304300 -19.886400 -13.513400
C -16.286000 -18.838500 -12.490000
N -16.221700 -22.163400 -12.702900
C -16.071500 -21.759900 -15.660800
H -15.927400 -17.976700 -12.795800
C -15.796600 -23.458400 -12.804500
H -15.728900 -19.090300 -11.725900
C -15.595500 -21.917600 -17.099300
C -15.466400 -21.062000 -13.337300
H -15.120100 -22.735100 -17.226800
H -14.993000 -21.162400 -17.334900
C -14.925900 -21.530300 -14.684900
N -14.800900 -23.735300 -13.661500
H -14.725600 -20.780800 -12.741800
H -14.629100 -24.548700 -13.779300
H -14.353800 -20.793100 -15.076200
C -14.065500 -22.777800 -14.481800
H -13.933300 -23.223400 -15.378800
H -12.728600 -21.821100 -13.087600
C -12.701000 -22.441800 -13.888400
H -12.177500 -21.932800 -14.589800
H -12.157300 -23.233500 -13.671200
68
Fragment
O -21.495900 -11.038100 -14.716300
H -21.411700 -13.468800 -11.898800
H -21.222500 -14.841500 -11.390900
H -21.141000 -12.857300 -16.178500
H -20.836200 -10.950000 -12.125800
C -20.773100 -14.120700 -11.611300
C -20.727500 -12.014900 -14.611400
N -20.620200 -12.919000 -15.606800
H -20.245200 -13.807400 -10.839700
H -20.206600 -14.893600 -15.389600
H -19.989800 -14.233000 -17.713100
O -19.968800 -16.669700 -12.143100
N -19.946500 -12.185300 -13.513400
C -19.928200 -11.137300 -12.490000
N -19.864000 -14.462300 -12.702900
C -19.713800 -14.058700 -15.660800
H -19.569700 -10.275500 -12.795800
C -19.438800 -15.757200 -12.804500
H -19.371100 -11.389100 -11.725900
C -19.237800 -14.216400 -17.099300
C -19.108700 -13.360800 -13.337300
H -18.762400 -15.033900 -17.226800
H -18.635300 -13.461200 -17.334900
C -18.568100 -13.829100 -14.684900
N -18.443100 -16.034100 -13.661500
H -18.367900 -13.079600 -12.741800
H -18.271300 -16.847500 -13.779300
H -17.996100 -13.091900 -15.076200
C -17.707700 -15.076700 -14.481800
H -17.575500 -15.522200 -15.378800
H -16.370900 -14.119900 -13.087600
C -16.343200 -14.740600 -13.888400
H -15.819800 -14.231700 -14.589800
H -15.799500 -15.532300 -13.671200
O -17.853700 -18.739300 -14.716300
H -17.769500 -21.169900 -11.898800
H -17.580300 -22.542600 -11.390900
H -17.498700 -20.558400 -16.178500
H -17.194000 -18.651100 -12.125800
C -17.130900 -21.821900 -11.611300
C -17.085300 -19.716100 -14.611400
N -16.978000 -20.620200 -15.606800
H -16.603000 -21.508600 -10.839700
H -16.564300 -22.594800 -15.389600
H -16.347600 -21.934200 -17.713100
O -16.326600 -24.370800 -12.143100
N -16.304300 -19.886400 -13.513400
C -16.286000 -18.838500 -12.490000
N -16.221700 -22.163400 -12.702900
C -16.071500 -21.759900 -15.660800
H -15.927400 -17.976700 -12.795800
C -15.796600 -23.458400 -12.804500
H -15.728900 -19.090300 -11.725900
C -15.595500 -21.917600 -17.099300
C -15.466400 -21.062000 -13.337300
H -15.120100 -22.735100 -17.226800
H -14.993000 -21.162400 -17.334900
C -14.925900 -21.530300 -14.684900
N -14.800900 -23.735300 -13.661500
H -14.725600 -20.780800 -12.741800
H -14.629100 -24.548700 -13.779300
H -14.353800 -20.793100 -15.076200
C -14.065500 -22.777800 -14.481800
H -13.933300 -23.223400 -15.378800
H -12.728600 -21.821100 -13.087600
C -12.701000 -22.441800 -13.888400
H -12.177500 -21.932800 -14.589800
H -12.157300 -23.233500 -13.671200
