22
Fragment
H -44.527900 -13.081400 -9.086000
H -44.492700 -11.936600 -10.156800
C -43.938600 -12.502200 -9.595300
N -43.174300 -11.661300 -8.671000
N -43.064700 -13.331000 -10.453700
H -42.916900 -13.100600 -7.304900
H -42.808400 -10.225400 -10.020700
H -42.803000 -14.762500 -9.057600
H -42.680900 -11.855300 -11.783200
C -42.343800 -12.527900 -7.838000
C -42.277100 -10.808900 -9.456200
C -42.229900 -14.167000 -9.564600
C -42.154800 -12.425200 -11.200700
H -41.823900 -11.980100 -7.229300
H -41.761500 -10.250400 -8.853500
H -41.639500 -14.713300 -10.106000
H -41.563500 -12.955100 -11.757000
N -41.428200 -13.368100 -8.635900
N -41.350600 -11.586400 -10.303400
C -40.584500 -12.467200 -9.427000
H -40.050200 -11.925900 -8.825100
H -39.976900 -12.997200 -9.966100
22
Fragment
H -44.527900 -20.214100 -9.086000
H -44.492700 -19.069300 -10.156800
C -43.938600 -19.634900 -9.595300
N -43.174300 -18.794000 -8.671000
N -43.064700 -20.463700 -10.453700
H -42.916900 -20.233300 -7.304900
H -42.808400 -17.358100 -10.020700
H -42.803000 -21.895200 -9.057600
H -42.680900 -18.988000 -11.783200
C -42.343800 -19.660600 -7.838000
C -42.277100 -17.941600 -9.456200
C -42.229900 -21.299700 -9.564600
C -42.154800 -19.557900 -11.200700
H -41.823900 -19.112800 -7.229300
H -41.761500 -17.383100 -8.853500
H -41.639500 -21.846000 -10.106000
H -41.563500 -20.087800 -11.757000
N -41.428200 -20.500800 -8.635900
N -41.350600 -18.719100 -10.303400
C -40.584500 -19.599900 -9.427000
H -40.050200 -19.058600 -8.825100
H -39.976900 -20.129900 -9.966100
44
Fragment
H -44.527900 -13.081400 -9.086000
H -44.492700 -11.936600 -10.156800
C -43.938600 -12.502200 -9.595300
N -43.174300 -11.661300 -8.671000
N -43.064700 -13.331000 -10.453700
H -42.916900 -13.100600 -7.304900
H -42.808400 -10.225400 -10.020700
H -42.803000 -14.762500 -9.057600
H -42.680900 -11.855300 -11.783200
C -42.343800 -12.527900 -7.838000
C -42.277100 -10.808900 -9.456200
C -42.229900 -14.167000 -9.564600
C -42.154800 -12.425200 -11.200700
H -41.823900 -11.980100 -7.229300
H -41.761500 -10.250400 -8.853500
H -41.639500 -14.713300 -10.106000
H -41.563500 -12.955100 -11.757000
N -41.428200 -13.368100 -8.635900
N -41.350600 -11.586400 -10.303400
C -40.584500 -12.467200 -9.427000
H -40.050200 -11.925900 -8.825100
H -39.976900 -12.997200 -9.966100
H -44.527900 -20.214100 -9.086000
H -44.492700 -19.069300 -10.156800
C -43.938600 -19.634900 -9.595300
N -43.174300 -18.794000 -8.671000
N -43.064700 -20.463700 -10.453700
H -42.916900 -20.233300 -7.304900
H -42.808400 -17.358100 -10.020700
H -42.803000 -21.895200 -9.057600
H -42.680900 -18.988000 -11.783200
C -42.343800 -19.660600 -7.838000
C -42.277100 -17.941600 -9.456200
C -42.229900 -21.299700 -9.564600
C -42.154800 -19.557900 -11.200700
H -41.823900 -19.112800 -7.229300
H -41.761500 -17.383100 -8.853500
H -41.639500 -21.846000 -10.106000
H -41.563500 -20.087800 -11.757000
N -41.428200 -20.500800 -8.635900
N -41.350600 -18.719100 -10.303400
C -40.584500 -19.599900 -9.427000
H -40.050200 -19.058600 -8.825100
H -39.976900 -20.129900 -9.966100
