22
Fragment
H -44.527900 -13.081400 -9.086000
H -44.492700 -11.936600 -10.156800
C -43.938600 -12.502200 -9.595300
N -43.174300 -11.661300 -8.671000
N -43.064700 -13.331000 -10.453700
H -42.916900 -13.100600 -7.304900
H -42.808400 -10.225400 -10.020700
H -42.803000 -14.762500 -9.057600
H -42.680900 -11.855300 -11.783200
C -42.343800 -12.527900 -7.838000
C -42.277100 -10.808900 -9.456200
C -42.229900 -14.167000 -9.564600
C -42.154800 -12.425200 -11.200700
H -41.823900 -11.980100 -7.229300
H -41.761500 -10.250400 -8.853500
H -41.639500 -14.713300 -10.106000
H -41.563500 -12.955100 -11.757000
N -41.428200 -13.368100 -8.635900
N -41.350600 -11.586400 -10.303400
C -40.584500 -12.467200 -9.427000
H -40.050200 -11.925900 -8.825100
H -39.976900 -12.997200 -9.966100
22
Fragment
H -41.387300 -15.533600 -13.704900
H -41.314000 -16.604900 -12.563900
C -40.779700 -16.063600 -13.165800
N -40.013600 -16.944400 -14.042200
N -39.936000 -15.162700 -12.374700
H -39.800700 -15.575700 -15.495800
H -39.724700 -13.817500 -13.844800
H -39.602700 -18.280400 -12.592300
H -39.540300 -16.550700 -10.968100
C -39.209400 -16.105600 -14.939500
C -39.134300 -14.363800 -13.303400
C -39.087100 -17.721900 -13.195000
C -39.020400 -16.002900 -11.576800
H -38.683300 -16.675500 -15.522000
H -38.561200 -13.768300 -12.796400
H -38.555800 -18.305400 -13.759500
H -38.447300 -15.430200 -11.043700
N -38.299500 -15.199800 -14.192500
N -38.189900 -16.869500 -12.409800
C -37.425600 -16.028600 -13.334100
H -36.871500 -16.594200 -13.895600
H -36.836300 -15.449400 -12.824800
44
Fragment
H -44.527900 -13.081400 -9.086000
H -44.492700 -11.936600 -10.156800
C -43.938600 -12.502200 -9.595300
N -43.174300 -11.661300 -8.671000
N -43.064700 -13.331000 -10.453700
H -42.916900 -13.100600 -7.304900
H -42.808400 -10.225400 -10.020700
H -42.803000 -14.762500 -9.057600
H -42.680900 -11.855300 -11.783200
C -42.343800 -12.527900 -7.838000
C -42.277100 -10.808900 -9.456200
C -42.229900 -14.167000 -9.564600
C -42.154800 -12.425200 -11.200700
H -41.823900 -11.980100 -7.229300
H -41.761500 -10.250400 -8.853500
H -41.639500 -14.713300 -10.106000
H -41.563500 -12.955100 -11.757000
N -41.428200 -13.368100 -8.635900
N -41.350600 -11.586400 -10.303400
C -40.584500 -12.467200 -9.427000
H -40.050200 -11.925900 -8.825100
H -39.976900 -12.997200 -9.966100
H -41.387300 -15.533600 -13.704900
H -41.314000 -16.604900 -12.563900
C -40.779700 -16.063600 -13.165800
N -40.013600 -16.944400 -14.042200
N -39.936000 -15.162700 -12.374700
H -39.800700 -15.575700 -15.495800
H -39.724700 -13.817500 -13.844800
H -39.602700 -18.280400 -12.592300
H -39.540300 -16.550700 -10.968100
C -39.209400 -16.105600 -14.939500
C -39.134300 -14.363800 -13.303400
C -39.087100 -17.721900 -13.195000
C -39.020400 -16.002900 -11.576800
H -38.683300 -16.675500 -15.522000
H -38.561200 -13.768300 -12.796400
H -38.555800 -18.305400 -13.759500
H -38.447300 -15.430200 -11.043700
N -38.299500 -15.199800 -14.192500
N -38.189900 -16.869500 -12.409800
C -37.425600 -16.028600 -13.334100
H -36.871500 -16.594200 -13.895600
H -36.836300 -15.449400 -12.824800
