22
Fragment
H -44.527900 -13.081400 -9.086000
H -44.492700 -11.936600 -10.156800
C -43.938600 -12.502200 -9.595300
N -43.174300 -11.661300 -8.671000
N -43.064700 -13.331000 -10.453700
H -42.916900 -13.100600 -7.304900
H -42.808400 -10.225400 -10.020700
H -42.803000 -14.762500 -9.057600
H -42.680900 -11.855300 -11.783200
C -42.343800 -12.527900 -7.838000
C -42.277100 -10.808900 -9.456200
C -42.229900 -14.167000 -9.564600
C -42.154800 -12.425200 -11.200700
H -41.823900 -11.980100 -7.229300
H -41.761500 -10.250400 -8.853500
H -41.639500 -14.713300 -10.106000
H -41.563500 -12.955100 -11.757000
N -41.428200 -13.368100 -8.635900
N -41.350600 -11.586400 -10.303400
C -40.584500 -12.467200 -9.427000
H -40.050200 -11.925900 -8.825100
H -39.976900 -12.997200 -9.966100
19
Fragment
O -47.619200 -12.745400 -11.695000
H -47.215600 -8.592100 -9.686500
C -46.730200 -12.474400 -12.482400
H -46.719300 -10.485800 -10.728100
H -46.442700 -13.145600 -13.235400
H -46.336900 -7.711900 -8.733100
C -46.330900 -8.458000 -9.336500
C -46.133800 -10.297500 -11.425000
H -46.049400 -9.246800 -8.867700
C -45.988900 -11.206900 -12.489800
O -45.428900 -8.195500 -10.410300
C -45.406400 -9.129100 -11.416100
C -45.139200 -10.907300 -13.533000
H -45.037800 -11.512200 -14.232900
C -44.547400 -8.821000 -12.489800
C -44.433300 -9.716900 -13.552400
H -43.882400 -9.514300 -14.274000
O -43.853400 -7.665500 -12.542200
H -43.806500 -7.161200 -11.672500
41
Fragment
H -44.527900 -13.081400 -9.086000
H -44.492700 -11.936600 -10.156800
C -43.938600 -12.502200 -9.595300
N -43.174300 -11.661300 -8.671000
N -43.064700 -13.331000 -10.453700
H -42.916900 -13.100600 -7.304900
H -42.808400 -10.225400 -10.020700
H -42.803000 -14.762500 -9.057600
H -42.680900 -11.855300 -11.783200
C -42.343800 -12.527900 -7.838000
C -42.277100 -10.808900 -9.456200
C -42.229900 -14.167000 -9.564600
C -42.154800 -12.425200 -11.200700
H -41.823900 -11.980100 -7.229300
H -41.761500 -10.250400 -8.853500
H -41.639500 -14.713300 -10.106000
H -41.563500 -12.955100 -11.757000
N -41.428200 -13.368100 -8.635900
N -41.350600 -11.586400 -10.303400
C -40.584500 -12.467200 -9.427000
H -40.050200 -11.925900 -8.825100
H -39.976900 -12.997200 -9.966100
O -47.619200 -12.745400 -11.695000
H -47.215600 -8.592100 -9.686500
C -46.730200 -12.474400 -12.482400
H -46.719300 -10.485800 -10.728100
H -46.442700 -13.145600 -13.235400
H -46.336900 -7.711900 -8.733100
C -46.330900 -8.458000 -9.336500
C -46.133800 -10.297500 -11.425000
H -46.049400 -9.246800 -8.867700
C -45.988900 -11.206900 -12.489800
O -45.428900 -8.195500 -10.410300
C -45.406400 -9.129100 -11.416100
C -45.139200 -10.907300 -13.533000
H -45.037800 -11.512200 -14.232900
C -44.547400 -8.821000 -12.489800
C -44.433300 -9.716900 -13.552400
H -43.882400 -9.514300 -14.274000
O -43.853400 -7.665500 -12.542200
H -43.806500 -7.161200 -11.672500
