33
Fragment
H -13.467800 -39.917100 -9.269500
O -12.795500 -40.334400 -9.203400
H -12.366200 -38.836700 -7.030200
H -11.933500 -38.565300 -9.247200
C -11.715200 -39.453700 -8.894200
H -11.620100 -40.255000 -6.991000
C -11.591400 -39.346200 -7.384100
H -11.296100 -40.206400 -11.339600
H -10.528300 -38.946800 -11.286500
C -10.517000 -39.827500 -11.046500
H -10.506400 -36.760500 -9.012600
N -10.500900 -35.119500 -7.993400
C -10.475300 -36.417400 -8.211100
C -10.460200 -39.927300 -9.562600
N -10.396600 -37.175200 -7.094100
C -10.369500 -35.037500 -6.619500
O -10.366500 -32.689900 -6.073300
H -10.315400 -40.759400 -9.338000
C -10.298200 -36.281700 -6.047100
C -10.292000 -38.649800 -6.948700
C -10.286700 -33.875200 -5.764800
N -10.195600 -36.612000 -4.747100
N -10.189700 -34.272100 -4.446300
H -10.179000 -33.647400 -3.855500
H -10.130000 -38.864900 -5.966400
C -10.108200 -35.564900 -3.979400
H -9.986700 -35.695500 -3.080900
O -9.413300 -40.472600 -11.693500
O -9.349500 -39.131100 -9.137200
C -9.137000 -39.207900 -7.751800
H -8.994500 -40.162800 -7.497900
H -8.794500 -39.940100 -11.773500
H -8.307100 -38.703600 -7.521000
33
Fragment
H -6.576800 -39.917100 -9.269500
O -5.904500 -40.334400 -9.203400
H -5.475200 -38.836700 -7.030200
H -5.042500 -38.565300 -9.247200
C -4.824200 -39.453700 -8.894200
H -4.729100 -40.255000 -6.991000
C -4.700400 -39.346200 -7.384100
H -4.405100 -40.206400 -11.339600
H -3.637300 -38.946800 -11.286500
C -3.626000 -39.827500 -11.046500
H -3.615400 -36.760500 -9.012600
N -3.609900 -35.119500 -7.993400
C -3.584300 -36.417400 -8.211100
C -3.569200 -39.927300 -9.562600
N -3.505600 -37.175200 -7.094100
C -3.478500 -35.037500 -6.619500
O -3.475500 -32.689900 -6.073300
H -3.424400 -40.759400 -9.338000
C -3.407200 -36.281700 -6.047100
C -3.401000 -38.649800 -6.948700
C -3.395700 -33.875200 -5.764800
N -3.304600 -36.612000 -4.747100
N -3.298700 -34.272100 -4.446300
H -3.288000 -33.647400 -3.855500
H -3.239000 -38.864900 -5.966400
C -3.217200 -35.564900 -3.979400
H -3.095700 -35.695500 -3.080900
O -2.522300 -40.472600 -11.693500
O -2.458500 -39.131100 -9.137200
C -2.246000 -39.207900 -7.751800
H -2.103500 -40.162800 -7.497900
H -1.903500 -39.940100 -11.773500
H -1.416100 -38.703600 -7.521000
66
Fragment
H -13.467800 -39.917100 -9.269500
O -12.795500 -40.334400 -9.203400
H -12.366200 -38.836700 -7.030200
H -11.933500 -38.565300 -9.247200
C -11.715200 -39.453700 -8.894200
H -11.620100 -40.255000 -6.991000
C -11.591400 -39.346200 -7.384100
H -11.296100 -40.206400 -11.339600
H -10.528300 -38.946800 -11.286500
C -10.517000 -39.827500 -11.046500
H -10.506400 -36.760500 -9.012600
N -10.500900 -35.119500 -7.993400
C -10.475300 -36.417400 -8.211100
C -10.460200 -39.927300 -9.562600
N -10.396600 -37.175200 -7.094100
C -10.369500 -35.037500 -6.619500
O -10.366500 -32.689900 -6.073300
H -10.315400 -40.759400 -9.338000
C -10.298200 -36.281700 -6.047100
C -10.292000 -38.649800 -6.948700
C -10.286700 -33.875200 -5.764800
N -10.195600 -36.612000 -4.747100
N -10.189700 -34.272100 -4.446300
H -10.179000 -33.647400 -3.855500
H -10.130000 -38.864900 -5.966400
C -10.108200 -35.564900 -3.979400
H -9.986700 -35.695500 -3.080900
O -9.413300 -40.472600 -11.693500
O -9.349500 -39.131100 -9.137200
C -9.137000 -39.207900 -7.751800
H -8.994500 -40.162800 -7.497900
H -8.794500 -39.940100 -11.773500
H -8.307100 -38.703600 -7.521000
H -6.576800 -39.917100 -9.269500
O -5.904500 -40.334400 -9.203400
H -5.475200 -38.836700 -7.030200
H -5.042500 -38.565300 -9.247200
C -4.824200 -39.453700 -8.894200
H -4.729100 -40.255000 -6.991000
C -4.700400 -39.346200 -7.384100
H -4.405100 -40.206400 -11.339600
H -3.637300 -38.946800 -11.286500
C -3.626000 -39.827500 -11.046500
H -3.615400 -36.760500 -9.012600
N -3.609900 -35.119500 -7.993400
C -3.584300 -36.417400 -8.211100
C -3.569200 -39.927300 -9.562600
N -3.505600 -37.175200 -7.094100
C -3.478500 -35.037500 -6.619500
O -3.475500 -32.689900 -6.073300
H -3.424400 -40.759400 -9.338000
C -3.407200 -36.281700 -6.047100
C -3.401000 -38.649800 -6.948700
C -3.395700 -33.875200 -5.764800
N -3.304600 -36.612000 -4.747100
N -3.298700 -34.272100 -4.446300
H -3.288000 -33.647400 -3.855500
H -3.239000 -38.864900 -5.966400
C -3.217200 -35.564900 -3.979400
H -3.095700 -35.695500 -3.080900
O -2.522300 -40.472600 -11.693500
O -2.458500 -39.131100 -9.137200
C -2.246000 -39.207900 -7.751800
H -2.103500 -40.162800 -7.497900
H -1.903500 -39.940100 -11.773500
H -1.416100 -38.703600 -7.521000
