33
Fragment
H -13.467800 -39.917100 -9.269500
O -12.795500 -40.334400 -9.203400
H -12.366200 -38.836700 -7.030200
H -11.933500 -38.565300 -9.247200
C -11.715200 -39.453700 -8.894200
H -11.620100 -40.255000 -6.991000
C -11.591400 -39.346200 -7.384100
H -11.296100 -40.206400 -11.339600
H -10.528300 -38.946800 -11.286500
C -10.517000 -39.827500 -11.046500
H -10.506400 -36.760500 -9.012600
N -10.500900 -35.119500 -7.993400
C -10.475300 -36.417400 -8.211100
C -10.460200 -39.927300 -9.562600
N -10.396600 -37.175200 -7.094100
C -10.369500 -35.037500 -6.619500
O -10.366500 -32.689900 -6.073300
H -10.315400 -40.759400 -9.338000
C -10.298200 -36.281700 -6.047100
C -10.292000 -38.649800 -6.948700
C -10.286700 -33.875200 -5.764800
N -10.195600 -36.612000 -4.747100
N -10.189700 -34.272100 -4.446300
H -10.179000 -33.647400 -3.855500
H -10.130000 -38.864900 -5.966400
C -10.108200 -35.564900 -3.979400
H -9.986700 -35.695500 -3.080900
O -9.413300 -40.472600 -11.693500
O -9.349500 -39.131100 -9.137200
C -9.137000 -39.207900 -7.751800
H -8.994500 -40.162800 -7.497900
H -8.794500 -39.940100 -11.773500
H -8.307100 -38.703600 -7.521000
33
Fragment
O -16.078900 -29.904500 -2.423900
H -16.026800 -29.180000 -2.807800
H -15.514700 -31.307500 -4.630900
H -15.048800 -31.563500 -2.387000
C -14.920400 -30.687900 -2.723200
H -14.811500 -29.825200 -4.625500
C -14.752100 -30.762200 -4.240100
H -14.735300 -29.832800 -0.257700
H -14.124900 -34.295100 -8.461800
H -14.018500 -36.325300 -7.798000
C -13.993200 -34.435900 -7.615600
N -13.950700 -35.713400 -7.197900
N -13.850100 -33.378600 -6.837200
C -13.809100 -36.123000 -5.894000
O -13.779500 -37.323700 -5.596300
C -13.762000 -30.163100 -0.577700
C -13.685600 -33.734400 -5.563300
C -13.683900 -30.083700 -2.067800
H -13.643400 -31.189700 -0.272300
C -13.642200 -34.999100 -5.003200
H -13.596300 -29.146700 -2.340100
N -13.477600 -32.864000 -4.515500
N -13.466300 -34.935100 -3.644000
C -13.449400 -31.379100 -4.658600
C -13.354000 -33.657600 -3.391700
H -13.326100 -31.189700 -5.532500
H -13.208600 -33.324800 -2.561600
O -12.759400 -29.361800 0.063800
O -12.509700 -30.815900 -2.482400
C -12.311700 -30.772400 -3.900900
H -12.209200 -29.904500 -4.160900
H -12.016700 -29.602400 -0.187700
H -11.544100 -31.217900 -4.107800
66
Fragment
H -13.467800 -39.917100 -9.269500
O -12.795500 -40.334400 -9.203400
H -12.366200 -38.836700 -7.030200
H -11.933500 -38.565300 -9.247200
C -11.715200 -39.453700 -8.894200
H -11.620100 -40.255000 -6.991000
C -11.591400 -39.346200 -7.384100
H -11.296100 -40.206400 -11.339600
H -10.528300 -38.946800 -11.286500
C -10.517000 -39.827500 -11.046500
H -10.506400 -36.760500 -9.012600
N -10.500900 -35.119500 -7.993400
C -10.475300 -36.417400 -8.211100
C -10.460200 -39.927300 -9.562600
N -10.396600 -37.175200 -7.094100
C -10.369500 -35.037500 -6.619500
O -10.366500 -32.689900 -6.073300
H -10.315400 -40.759400 -9.338000
C -10.298200 -36.281700 -6.047100
C -10.292000 -38.649800 -6.948700
C -10.286700 -33.875200 -5.764800
N -10.195600 -36.612000 -4.747100
N -10.189700 -34.272100 -4.446300
H -10.179000 -33.647400 -3.855500
H -10.130000 -38.864900 -5.966400
C -10.108200 -35.564900 -3.979400
H -9.986700 -35.695500 -3.080900
O -9.413300 -40.472600 -11.693500
O -9.349500 -39.131100 -9.137200
C -9.137000 -39.207900 -7.751800
H -8.994500 -40.162800 -7.497900
H -8.794500 -39.940100 -11.773500
H -8.307100 -38.703600 -7.521000
O -16.078900 -29.904500 -2.423900
H -16.026800 -29.180000 -2.807800
H -15.514700 -31.307500 -4.630900
H -15.048800 -31.563500 -2.387000
C -14.920400 -30.687900 -2.723200
H -14.811500 -29.825200 -4.625500
C -14.752100 -30.762200 -4.240100
H -14.735300 -29.832800 -0.257700
H -14.124900 -34.295100 -8.461800
H -14.018500 -36.325300 -7.798000
C -13.993200 -34.435900 -7.615600
N -13.950700 -35.713400 -7.197900
N -13.850100 -33.378600 -6.837200
C -13.809100 -36.123000 -5.894000
O -13.779500 -37.323700 -5.596300
C -13.762000 -30.163100 -0.577700
C -13.685600 -33.734400 -5.563300
C -13.683900 -30.083700 -2.067800
H -13.643400 -31.189700 -0.272300
C -13.642200 -34.999100 -5.003200
H -13.596300 -29.146700 -2.340100
N -13.477600 -32.864000 -4.515500
N -13.466300 -34.935100 -3.644000
C -13.449400 -31.379100 -4.658600
C -13.354000 -33.657600 -3.391700
H -13.326100 -31.189700 -5.532500
H -13.208600 -33.324800 -2.561600
O -12.759400 -29.361800 0.063800
O -12.509700 -30.815900 -2.482400
C -12.311700 -30.772400 -3.900900
H -12.209200 -29.904500 -4.160900
H -12.016700 -29.602400 -0.187700
H -11.544100 -31.217900 -4.107800
