33
Fragment
H -13.467800 -39.917100 -9.269500
O -12.795500 -40.334400 -9.203400
H -12.366200 -38.836700 -7.030200
H -11.933500 -38.565300 -9.247200
C -11.715200 -39.453700 -8.894200
H -11.620100 -40.255000 -6.991000
C -11.591400 -39.346200 -7.384100
H -11.296100 -40.206400 -11.339600
H -10.528300 -38.946800 -11.286500
C -10.517000 -39.827500 -11.046500
H -10.506400 -36.760500 -9.012600
N -10.500900 -35.119500 -7.993400
C -10.475300 -36.417400 -8.211100
C -10.460200 -39.927300 -9.562600
N -10.396600 -37.175200 -7.094100
C -10.369500 -35.037500 -6.619500
O -10.366500 -32.689900 -6.073300
H -10.315400 -40.759400 -9.338000
C -10.298200 -36.281700 -6.047100
C -10.292000 -38.649800 -6.948700
C -10.286700 -33.875200 -5.764800
N -10.195600 -36.612000 -4.747100
N -10.189700 -34.272100 -4.446300
H -10.179000 -33.647400 -3.855500
H -10.130000 -38.864900 -5.966400
C -10.108200 -35.564900 -3.979400
H -9.986700 -35.695500 -3.080900
O -9.413300 -40.472600 -11.693500
O -9.349500 -39.131100 -9.137200
C -9.137000 -39.207900 -7.751800
H -8.994500 -40.162800 -7.497900
H -8.794500 -39.940100 -11.773500
H -8.307100 -38.703600 -7.521000
33
Fragment
H -12.879900 -39.917100 -16.962100
O -12.207600 -40.334400 -16.896000
H -11.778300 -38.836700 -14.722800
H -11.345600 -38.565300 -16.939800
C -11.127300 -39.453700 -16.586700
H -11.032200 -40.255000 -14.683600
C -11.003600 -39.346200 -15.076700
H -10.708200 -40.206400 -19.032200
H -9.940500 -38.946800 -18.979100
C -9.929200 -39.827500 -18.739100
H -9.918500 -36.760500 -16.705200
N -9.913000 -35.119500 -15.685900
C -9.887400 -36.417400 -15.903600
C -9.872400 -39.927300 -17.255200
N -9.808800 -37.175200 -14.786700
C -9.781700 -35.037500 -14.312000
O -9.778600 -32.689900 -13.765900
H -9.727600 -40.759400 -17.030600
C -9.710300 -36.281700 -13.739700
C -9.704100 -38.649800 -14.641300
C -9.698800 -33.875200 -13.457400
N -9.607800 -36.612000 -12.439700
N -9.601800 -34.272100 -12.138900
H -9.591100 -33.647400 -11.548100
H -9.542200 -38.864900 -13.658900
C -9.520300 -35.564900 -11.671900
H -9.398800 -35.695500 -10.773400
O -8.825400 -40.472600 -19.386000
O -8.761600 -39.131100 -16.829800
C -8.549200 -39.207900 -15.444400
H -8.406600 -40.162800 -15.190500
H -8.206700 -39.940100 -19.466100
H -7.719200 -38.703600 -15.213600
66
Fragment
H -13.467800 -39.917100 -9.269500
O -12.795500 -40.334400 -9.203400
H -12.366200 -38.836700 -7.030200
H -11.933500 -38.565300 -9.247200
C -11.715200 -39.453700 -8.894200
H -11.620100 -40.255000 -6.991000
C -11.591400 -39.346200 -7.384100
H -11.296100 -40.206400 -11.339600
H -10.528300 -38.946800 -11.286500
C -10.517000 -39.827500 -11.046500
H -10.506400 -36.760500 -9.012600
N -10.500900 -35.119500 -7.993400
C -10.475300 -36.417400 -8.211100
C -10.460200 -39.927300 -9.562600
N -10.396600 -37.175200 -7.094100
C -10.369500 -35.037500 -6.619500
O -10.366500 -32.689900 -6.073300
H -10.315400 -40.759400 -9.338000
C -10.298200 -36.281700 -6.047100
C -10.292000 -38.649800 -6.948700
C -10.286700 -33.875200 -5.764800
N -10.195600 -36.612000 -4.747100
N -10.189700 -34.272100 -4.446300
H -10.179000 -33.647400 -3.855500
H -10.130000 -38.864900 -5.966400
C -10.108200 -35.564900 -3.979400
H -9.986700 -35.695500 -3.080900
O -9.413300 -40.472600 -11.693500
O -9.349500 -39.131100 -9.137200
C -9.137000 -39.207900 -7.751800
H -8.994500 -40.162800 -7.497900
H -8.794500 -39.940100 -11.773500
H -8.307100 -38.703600 -7.521000
H -12.879900 -39.917100 -16.962100
O -12.207600 -40.334400 -16.896000
H -11.778300 -38.836700 -14.722800
H -11.345600 -38.565300 -16.939800
C -11.127300 -39.453700 -16.586700
H -11.032200 -40.255000 -14.683600
C -11.003600 -39.346200 -15.076700
H -10.708200 -40.206400 -19.032200
H -9.940500 -38.946800 -18.979100
C -9.929200 -39.827500 -18.739100
H -9.918500 -36.760500 -16.705200
N -9.913000 -35.119500 -15.685900
C -9.887400 -36.417400 -15.903600
C -9.872400 -39.927300 -17.255200
N -9.808800 -37.175200 -14.786700
C -9.781700 -35.037500 -14.312000
O -9.778600 -32.689900 -13.765900
H -9.727600 -40.759400 -17.030600
C -9.710300 -36.281700 -13.739700
C -9.704100 -38.649800 -14.641300
C -9.698800 -33.875200 -13.457400
N -9.607800 -36.612000 -12.439700
N -9.601800 -34.272100 -12.138900
H -9.591100 -33.647400 -11.548100
H -9.542200 -38.864900 -13.658900
C -9.520300 -35.564900 -11.671900
H -9.398800 -35.695500 -10.773400
O -8.825400 -40.472600 -19.386000
O -8.761600 -39.131100 -16.829800
C -8.549200 -39.207900 -15.444400
H -8.406600 -40.162800 -15.190500
H -8.206700 -39.940100 -19.466100
H -7.719200 -38.703600 -15.213600
