33
Fragment
H -13.467800 -39.917100 -9.269500
O -12.795500 -40.334400 -9.203400
H -12.366200 -38.836700 -7.030200
H -11.933500 -38.565300 -9.247200
C -11.715200 -39.453700 -8.894200
H -11.620100 -40.255000 -6.991000
C -11.591400 -39.346200 -7.384100
H -11.296100 -40.206400 -11.339600
H -10.528300 -38.946800 -11.286500
C -10.517000 -39.827500 -11.046500
H -10.506400 -36.760500 -9.012600
N -10.500900 -35.119500 -7.993400
C -10.475300 -36.417400 -8.211100
C -10.460200 -39.927300 -9.562600
N -10.396600 -37.175200 -7.094100
C -10.369500 -35.037500 -6.619500
O -10.366500 -32.689900 -6.073300
H -10.315400 -40.759400 -9.338000
C -10.298200 -36.281700 -6.047100
C -10.292000 -38.649800 -6.948700
C -10.286700 -33.875200 -5.764800
N -10.195600 -36.612000 -4.747100
N -10.189700 -34.272100 -4.446300
H -10.179000 -33.647400 -3.855500
H -10.130000 -38.864900 -5.966400
C -10.108200 -35.564900 -3.979400
H -9.986700 -35.695500 -3.080900
O -9.413300 -40.472600 -11.693500
O -9.349500 -39.131100 -9.137200
C -9.137000 -39.207900 -7.751800
H -8.994500 -40.162800 -7.497900
H -8.794500 -39.940100 -11.773500
H -8.307100 -38.703600 -7.521000
33
Fragment
H -15.432000 -44.018400 -3.584700
H -14.959500 -42.402900 -7.504900
H -14.767000 -42.705000 -3.531700
C -14.664400 -43.572900 -3.791700
O -14.466400 -43.616400 -5.210200
O -14.216700 -42.162300 -7.756400
H -13.767500 -46.125300 -5.130900
H -13.650000 -43.990200 -2.160100
C -13.622200 -46.458100 -4.300900
C -13.526700 -44.179600 -3.033900
N -13.509800 -47.735600 -4.048600
N -13.498600 -45.664500 -3.177000
H -13.379900 -41.947200 -5.352500
C -13.333900 -47.799600 -2.689300
H -13.332800 -43.990200 -7.420300
C -13.292200 -42.884200 -5.624800
C -13.290600 -46.534900 -2.129300
C -13.214200 -42.963600 -7.114900
O -13.196600 -50.124200 -2.096200
C -13.167000 -48.923500 -1.798500
N -13.126100 -46.179100 -0.855400
N -13.025500 -48.513900 -0.494600
C -12.983000 -47.236400 -0.076900
H -12.957600 -49.125800 0.105400
H -12.851200 -47.095600 0.769300
H -12.240800 -42.633300 -7.434900
C -12.224000 -43.562700 -3.452400
H -12.164600 -42.625700 -3.067000
C -12.055700 -43.488400 -4.969400
H -11.927400 -44.364000 -5.305600
H -11.461400 -44.108000 -3.061600
H -10.949300 -41.980500 -4.884800
O -10.897200 -42.705000 -5.268600
66
Fragment
H -13.467800 -39.917100 -9.269500
O -12.795500 -40.334400 -9.203400
H -12.366200 -38.836700 -7.030200
H -11.933500 -38.565300 -9.247200
C -11.715200 -39.453700 -8.894200
H -11.620100 -40.255000 -6.991000
C -11.591400 -39.346200 -7.384100
H -11.296100 -40.206400 -11.339600
H -10.528300 -38.946800 -11.286500
C -10.517000 -39.827500 -11.046500
H -10.506400 -36.760500 -9.012600
N -10.500900 -35.119500 -7.993400
C -10.475300 -36.417400 -8.211100
C -10.460200 -39.927300 -9.562600
N -10.396600 -37.175200 -7.094100
C -10.369500 -35.037500 -6.619500
O -10.366500 -32.689900 -6.073300
H -10.315400 -40.759400 -9.338000
C -10.298200 -36.281700 -6.047100
C -10.292000 -38.649800 -6.948700
C -10.286700 -33.875200 -5.764800
N -10.195600 -36.612000 -4.747100
N -10.189700 -34.272100 -4.446300
H -10.179000 -33.647400 -3.855500
H -10.130000 -38.864900 -5.966400
C -10.108200 -35.564900 -3.979400
H -9.986700 -35.695500 -3.080900
O -9.413300 -40.472600 -11.693500
O -9.349500 -39.131100 -9.137200
C -9.137000 -39.207900 -7.751800
H -8.994500 -40.162800 -7.497900
H -8.794500 -39.940100 -11.773500
H -8.307100 -38.703600 -7.521000
H -15.432000 -44.018400 -3.584700
H -14.959500 -42.402900 -7.504900
H -14.767000 -42.705000 -3.531700
C -14.664400 -43.572900 -3.791700
O -14.466400 -43.616400 -5.210200
O -14.216700 -42.162300 -7.756400
H -13.767500 -46.125300 -5.130900
H -13.650000 -43.990200 -2.160100
C -13.622200 -46.458100 -4.300900
C -13.526700 -44.179600 -3.033900
N -13.509800 -47.735600 -4.048600
N -13.498600 -45.664500 -3.177000
H -13.379900 -41.947200 -5.352500
C -13.333900 -47.799600 -2.689300
H -13.332800 -43.990200 -7.420300
C -13.292200 -42.884200 -5.624800
C -13.290600 -46.534900 -2.129300
C -13.214200 -42.963600 -7.114900
O -13.196600 -50.124200 -2.096200
C -13.167000 -48.923500 -1.798500
N -13.126100 -46.179100 -0.855400
N -13.025500 -48.513900 -0.494600
C -12.983000 -47.236400 -0.076900
H -12.957600 -49.125800 0.105400
H -12.851200 -47.095600 0.769300
H -12.240800 -42.633300 -7.434900
C -12.224000 -43.562700 -3.452400
H -12.164600 -42.625700 -3.067000
C -12.055700 -43.488400 -4.969400
H -11.927400 -44.364000 -5.305600
H -11.461400 -44.108000 -3.061600
H -10.949300 -41.980500 -4.884800
O -10.897200 -42.705000 -5.268600
