33
Fragment
H -13.467800 -39.917100 -9.269500
O -12.795500 -40.334400 -9.203400
H -12.366200 -38.836700 -7.030200
H -11.933500 -38.565300 -9.247200
C -11.715200 -39.453700 -8.894200
H -11.620100 -40.255000 -6.991000
C -11.591400 -39.346200 -7.384100
H -11.296100 -40.206400 -11.339600
H -10.528300 -38.946800 -11.286500
C -10.517000 -39.827500 -11.046500
H -10.506400 -36.760500 -9.012600
N -10.500900 -35.119500 -7.993400
C -10.475300 -36.417400 -8.211100
C -10.460200 -39.927300 -9.562600
N -10.396600 -37.175200 -7.094100
C -10.369500 -35.037500 -6.619500
O -10.366500 -32.689900 -6.073300
H -10.315400 -40.759400 -9.338000
C -10.298200 -36.281700 -6.047100
C -10.292000 -38.649800 -6.948700
C -10.286700 -33.875200 -5.764800
N -10.195600 -36.612000 -4.747100
N -10.189700 -34.272100 -4.446300
H -10.179000 -33.647400 -3.855500
H -10.130000 -38.864900 -5.966400
C -10.108200 -35.564900 -3.979400
H -9.986700 -35.695500 -3.080900
O -9.413300 -40.472600 -11.693500
O -9.349500 -39.131100 -9.137200
C -9.137000 -39.207900 -7.751800
H -8.994500 -40.162800 -7.497900
H -8.794500 -39.940100 -11.773500
H -8.307100 -38.703600 -7.521000
33
Fragment
H -20.358800 -39.917100 -9.269500
O -19.686500 -40.334400 -9.203400
H -19.257200 -38.836700 -7.030200
H -18.824500 -38.565300 -9.247200
C -18.606200 -39.453700 -8.894200
H -18.511100 -40.255000 -6.991000
C -18.482400 -39.346200 -7.384100
H -18.187100 -40.206400 -11.339600
H -17.419300 -38.946800 -11.286500
C -17.408000 -39.827500 -11.046500
H -17.397400 -36.760500 -9.012600
N -17.391900 -35.119500 -7.993400
C -17.366300 -36.417400 -8.211100
C -17.351200 -39.927300 -9.562600
N -17.287600 -37.175200 -7.094100
C -17.260500 -35.037500 -6.619500
O -17.257500 -32.689900 -6.073300
H -17.206400 -40.759400 -9.338000
C -17.189200 -36.281700 -6.047100
C -17.183000 -38.649800 -6.948700
C -17.177700 -33.875200 -5.764800
N -17.086600 -36.612000 -4.747100
N -17.080700 -34.272100 -4.446300
H -17.070000 -33.647400 -3.855500
H -17.021000 -38.864900 -5.966400
C -16.999200 -35.564900 -3.979400
H -16.877700 -35.695500 -3.080900
O -16.304300 -40.472600 -11.693500
O -16.240500 -39.131100 -9.137200
C -16.028000 -39.207900 -7.751800
H -15.885500 -40.162800 -7.497900
H -15.685500 -39.940100 -11.773500
H -15.198100 -38.703600 -7.521000
66
Fragment
H -13.467800 -39.917100 -9.269500
O -12.795500 -40.334400 -9.203400
H -12.366200 -38.836700 -7.030200
H -11.933500 -38.565300 -9.247200
C -11.715200 -39.453700 -8.894200
H -11.620100 -40.255000 -6.991000
C -11.591400 -39.346200 -7.384100
H -11.296100 -40.206400 -11.339600
H -10.528300 -38.946800 -11.286500
C -10.517000 -39.827500 -11.046500
H -10.506400 -36.760500 -9.012600
N -10.500900 -35.119500 -7.993400
C -10.475300 -36.417400 -8.211100
C -10.460200 -39.927300 -9.562600
N -10.396600 -37.175200 -7.094100
C -10.369500 -35.037500 -6.619500
O -10.366500 -32.689900 -6.073300
H -10.315400 -40.759400 -9.338000
C -10.298200 -36.281700 -6.047100
C -10.292000 -38.649800 -6.948700
C -10.286700 -33.875200 -5.764800
N -10.195600 -36.612000 -4.747100
N -10.189700 -34.272100 -4.446300
H -10.179000 -33.647400 -3.855500
H -10.130000 -38.864900 -5.966400
C -10.108200 -35.564900 -3.979400
H -9.986700 -35.695500 -3.080900
O -9.413300 -40.472600 -11.693500
O -9.349500 -39.131100 -9.137200
C -9.137000 -39.207900 -7.751800
H -8.994500 -40.162800 -7.497900
H -8.794500 -39.940100 -11.773500
H -8.307100 -38.703600 -7.521000
H -20.358800 -39.917100 -9.269500
O -19.686500 -40.334400 -9.203400
H -19.257200 -38.836700 -7.030200
H -18.824500 -38.565300 -9.247200
C -18.606200 -39.453700 -8.894200
H -18.511100 -40.255000 -6.991000
C -18.482400 -39.346200 -7.384100
H -18.187100 -40.206400 -11.339600
H -17.419300 -38.946800 -11.286500
C -17.408000 -39.827500 -11.046500
H -17.397400 -36.760500 -9.012600
N -17.391900 -35.119500 -7.993400
C -17.366300 -36.417400 -8.211100
C -17.351200 -39.927300 -9.562600
N -17.287600 -37.175200 -7.094100
C -17.260500 -35.037500 -6.619500
O -17.257500 -32.689900 -6.073300
H -17.206400 -40.759400 -9.338000
C -17.189200 -36.281700 -6.047100
C -17.183000 -38.649800 -6.948700
C -17.177700 -33.875200 -5.764800
N -17.086600 -36.612000 -4.747100
N -17.080700 -34.272100 -4.446300
H -17.070000 -33.647400 -3.855500
H -17.021000 -38.864900 -5.966400
C -16.999200 -35.564900 -3.979400
H -16.877700 -35.695500 -3.080900
O -16.304300 -40.472600 -11.693500
O -16.240500 -39.131100 -9.137200
C -16.028000 -39.207900 -7.751800
H -15.885500 -40.162800 -7.497900
H -15.685500 -39.940100 -11.773500
H -15.198100 -38.703600 -7.521000
