33
Fragment
H -13.467800 -39.917100 -9.269500
O -12.795500 -40.334400 -9.203400
H -12.366200 -38.836700 -7.030200
H -11.933500 -38.565300 -9.247200
C -11.715200 -39.453700 -8.894200
H -11.620100 -40.255000 -6.991000
C -11.591400 -39.346200 -7.384100
H -11.296100 -40.206400 -11.339600
H -10.528300 -38.946800 -11.286500
C -10.517000 -39.827500 -11.046500
H -10.506400 -36.760500 -9.012600
N -10.500900 -35.119500 -7.993400
C -10.475300 -36.417400 -8.211100
C -10.460200 -39.927300 -9.562600
N -10.396600 -37.175200 -7.094100
C -10.369500 -35.037500 -6.619500
O -10.366500 -32.689900 -6.073300
H -10.315400 -40.759400 -9.338000
C -10.298200 -36.281700 -6.047100
C -10.292000 -38.649800 -6.948700
C -10.286700 -33.875200 -5.764800
N -10.195600 -36.612000 -4.747100
N -10.189700 -34.272100 -4.446300
H -10.179000 -33.647400 -3.855500
H -10.130000 -38.864900 -5.966400
C -10.108200 -35.564900 -3.979400
H -9.986700 -35.695500 -3.080900
O -9.413300 -40.472600 -11.693500
O -9.349500 -39.131100 -9.137200
C -9.137000 -39.207900 -7.751800
H -8.994500 -40.162800 -7.497900
H -8.794500 -39.940100 -11.773500
H -8.307100 -38.703600 -7.521000
33
Fragment
H -7.953200 -44.018400 -11.277300
H -7.480600 -42.402900 -15.197400
H -7.288100 -42.705000 -11.224200
C -7.185500 -43.572900 -11.484200
O -6.987600 -43.616400 -12.902700
O -6.737800 -42.162300 -15.449000
H -6.288700 -46.125300 -12.823500
H -6.171100 -43.990200 -9.852600
C -6.143300 -46.458100 -11.993500
C -6.047900 -44.179600 -10.726500
N -6.031000 -47.735600 -11.741200
N -6.019700 -45.664500 -10.869600
H -5.901000 -41.947200 -13.045100
C -5.855100 -47.799600 -10.381900
H -5.853900 -43.990200 -15.112800
C -5.813300 -42.884200 -13.317400
C -5.811700 -46.534900 -9.821900
C -5.735300 -42.963600 -14.807400
O -5.717800 -50.124200 -9.788800
C -5.688200 -48.923500 -9.491100
N -5.647200 -46.179100 -8.548000
N -5.546600 -48.513900 -8.187200
C -5.504100 -47.236400 -7.769500
H -5.478800 -49.125800 -7.587200
H -5.372400 -47.095600 -6.923300
H -4.762000 -42.633300 -15.127400
C -4.745200 -43.562700 -11.145000
H -4.685700 -42.625700 -10.759600
C -4.576900 -43.488400 -12.662000
H -4.448500 -44.364000 -12.998100
H -3.982600 -44.108000 -10.754200
H -3.470500 -41.980500 -12.577400
O -3.418400 -42.705000 -12.961200
66
Fragment
H -13.467800 -39.917100 -9.269500
O -12.795500 -40.334400 -9.203400
H -12.366200 -38.836700 -7.030200
H -11.933500 -38.565300 -9.247200
C -11.715200 -39.453700 -8.894200
H -11.620100 -40.255000 -6.991000
C -11.591400 -39.346200 -7.384100
H -11.296100 -40.206400 -11.339600
H -10.528300 -38.946800 -11.286500
C -10.517000 -39.827500 -11.046500
H -10.506400 -36.760500 -9.012600
N -10.500900 -35.119500 -7.993400
C -10.475300 -36.417400 -8.211100
C -10.460200 -39.927300 -9.562600
N -10.396600 -37.175200 -7.094100
C -10.369500 -35.037500 -6.619500
O -10.366500 -32.689900 -6.073300
H -10.315400 -40.759400 -9.338000
C -10.298200 -36.281700 -6.047100
C -10.292000 -38.649800 -6.948700
C -10.286700 -33.875200 -5.764800
N -10.195600 -36.612000 -4.747100
N -10.189700 -34.272100 -4.446300
H -10.179000 -33.647400 -3.855500
H -10.130000 -38.864900 -5.966400
C -10.108200 -35.564900 -3.979400
H -9.986700 -35.695500 -3.080900
O -9.413300 -40.472600 -11.693500
O -9.349500 -39.131100 -9.137200
C -9.137000 -39.207900 -7.751800
H -8.994500 -40.162800 -7.497900
H -8.794500 -39.940100 -11.773500
H -8.307100 -38.703600 -7.521000
H -7.953200 -44.018400 -11.277300
H -7.480600 -42.402900 -15.197400
H -7.288100 -42.705000 -11.224200
C -7.185500 -43.572900 -11.484200
O -6.987600 -43.616400 -12.902700
O -6.737800 -42.162300 -15.449000
H -6.288700 -46.125300 -12.823500
H -6.171100 -43.990200 -9.852600
C -6.143300 -46.458100 -11.993500
C -6.047900 -44.179600 -10.726500
N -6.031000 -47.735600 -11.741200
N -6.019700 -45.664500 -10.869600
H -5.901000 -41.947200 -13.045100
C -5.855100 -47.799600 -10.381900
H -5.853900 -43.990200 -15.112800
C -5.813300 -42.884200 -13.317400
C -5.811700 -46.534900 -9.821900
C -5.735300 -42.963600 -14.807400
O -5.717800 -50.124200 -9.788800
C -5.688200 -48.923500 -9.491100
N -5.647200 -46.179100 -8.548000
N -5.546600 -48.513900 -8.187200
C -5.504100 -47.236400 -7.769500
H -5.478800 -49.125800 -7.587200
H -5.372400 -47.095600 -6.923300
H -4.762000 -42.633300 -15.127400
C -4.745200 -43.562700 -11.145000
H -4.685700 -42.625700 -10.759600
C -4.576900 -43.488400 -12.662000
H -4.448500 -44.364000 -12.998100
H -3.982600 -44.108000 -10.754200
H -3.470500 -41.980500 -12.577400
O -3.418400 -42.705000 -12.961200
