19
Fragment
N -9.209300 -5.760300 -25.547500
N -8.567600 -5.276100 -26.561800
N -8.440200 -5.755500 -24.426700
N -7.349600 -4.944700 -26.104200
C -7.270600 -5.242700 -24.805900
H -6.948400 -5.622300 -22.177500
H -6.718800 -4.595200 -26.574600
N -6.257600 -5.315800 -22.588000
C -6.136300 -5.030900 -23.928700
C -5.088500 -5.016600 -22.072900
H -4.882100 -5.110900 -21.172000
C -4.874500 -4.554100 -24.207400
N -4.857700 -4.002400 -26.603900
C -4.239800 -4.088300 -25.421900
N -4.216100 -4.556700 -22.997200
N -3.911000 -3.527100 -27.443000
N -2.978900 -3.683400 -25.508500
N -2.796700 -3.341700 -26.790400
H -2.400700 -3.647500 -24.874000
19
Fragment
N -4.797300 -3.416200 -33.464600
N -4.155500 -3.900400 -34.478900
N -4.028200 -3.421000 -32.343800
N -2.937600 -4.231800 -34.021300
C -2.858500 -3.933800 -32.723100
H -2.536300 -3.554200 -30.094600
H -2.306800 -4.581300 -34.491700
N -1.845600 -3.860700 -30.505200
C -1.724300 -4.145600 -31.845800
C -0.676500 -4.159900 -29.990100
H -0.470000 -4.065600 -29.089100
C -0.462400 -4.622400 -32.124500
N -0.445700 -5.174100 -34.521000
C 0.172200 -5.088200 -33.339000
N 0.196000 -4.619800 -30.914300
N 0.501000 -5.649400 -35.360100
N 1.433200 -5.493100 -33.425600
N 1.615400 -5.834800 -34.707600
H 2.011300 -5.529000 -32.791200
38
Fragment
N -9.209300 -5.760300 -25.547500
N -8.567600 -5.276100 -26.561800
N -8.440200 -5.755500 -24.426700
N -7.349600 -4.944700 -26.104200
C -7.270600 -5.242700 -24.805900
H -6.948400 -5.622300 -22.177500
H -6.718800 -4.595200 -26.574600
N -6.257600 -5.315800 -22.588000
C -6.136300 -5.030900 -23.928700
C -5.088500 -5.016600 -22.072900
H -4.882100 -5.110900 -21.172000
C -4.874500 -4.554100 -24.207400
N -4.857700 -4.002400 -26.603900
C -4.239800 -4.088300 -25.421900
N -4.216100 -4.556700 -22.997200
N -3.911000 -3.527100 -27.443000
N -2.978900 -3.683400 -25.508500
N -2.796700 -3.341700 -26.790400
H -2.400700 -3.647500 -24.874000
N -4.797300 -3.416200 -33.464600
N -4.155500 -3.900400 -34.478900
N -4.028200 -3.421000 -32.343800
N -2.937600 -4.231800 -34.021300
C -2.858500 -3.933800 -32.723100
H -2.536300 -3.554200 -30.094600
H -2.306800 -4.581300 -34.491700
N -1.845600 -3.860700 -30.505200
C -1.724300 -4.145600 -31.845800
C -0.676500 -4.159900 -29.990100
H -0.470000 -4.065600 -29.089100
C -0.462400 -4.622400 -32.124500
N -0.445700 -5.174100 -34.521000
C 0.172200 -5.088200 -33.339000
N 0.196000 -4.619800 -30.914300
N 0.501000 -5.649400 -35.360100
N 1.433200 -5.493100 -33.425600
N 1.615400 -5.834800 -34.707600
H 2.011300 -5.529000 -32.791200
