19
Fragment
N -9.209300 -5.760300 -25.547500
N -8.567600 -5.276100 -26.561800
N -8.440200 -5.755500 -24.426700
N -7.349600 -4.944700 -26.104200
C -7.270600 -5.242700 -24.805900
H -6.948400 -5.622300 -22.177500
H -6.718800 -4.595200 -26.574600
N -6.257600 -5.315800 -22.588000
C -6.136300 -5.030900 -23.928700
C -5.088500 -5.016600 -22.072900
H -4.882100 -5.110900 -21.172000
C -4.874500 -4.554100 -24.207400
N -4.857700 -4.002400 -26.603900
C -4.239800 -4.088300 -25.421900
N -4.216100 -4.556700 -22.997200
N -3.911000 -3.527100 -27.443000
N -2.978900 -3.683400 -25.508500
N -2.796700 -3.341700 -26.790400
H -2.400700 -3.647500 -24.874000
19
Fragment
H -13.535900 -5.482800 -30.545900
N -13.140000 -5.177000 -28.629400
N -12.957800 -5.518700 -29.911400
N -12.025600 -5.362400 -27.976900
N -11.720600 -6.392000 -32.422700
C -11.696900 -5.923600 -29.998000
N -11.078900 -5.837700 -28.816000
C -11.062200 -6.389400 -31.212500
H -11.054600 -6.946200 -34.247900
C -10.848100 -6.851900 -33.346900
C -9.800300 -6.866200 -31.491200
N -9.679100 -7.151100 -32.831800
H -9.217900 -6.430500 -28.845300
H -8.988300 -7.457600 -33.242400
C -8.666100 -7.078000 -30.613900
N -8.587100 -6.780000 -29.315700
N -7.496500 -7.590800 -30.993200
N -7.369100 -7.111400 -28.858100
N -6.727300 -7.595600 -29.872400
38
Fragment
N -9.209300 -5.760300 -25.547500
N -8.567600 -5.276100 -26.561800
N -8.440200 -5.755500 -24.426700
N -7.349600 -4.944700 -26.104200
C -7.270600 -5.242700 -24.805900
H -6.948400 -5.622300 -22.177500
H -6.718800 -4.595200 -26.574600
N -6.257600 -5.315800 -22.588000
C -6.136300 -5.030900 -23.928700
C -5.088500 -5.016600 -22.072900
H -4.882100 -5.110900 -21.172000
C -4.874500 -4.554100 -24.207400
N -4.857700 -4.002400 -26.603900
C -4.239800 -4.088300 -25.421900
N -4.216100 -4.556700 -22.997200
N -3.911000 -3.527100 -27.443000
N -2.978900 -3.683400 -25.508500
N -2.796700 -3.341700 -26.790400
H -2.400700 -3.647500 -24.874000
H -13.535900 -5.482800 -30.545900
N -13.140000 -5.177000 -28.629400
N -12.957800 -5.518700 -29.911400
N -12.025600 -5.362400 -27.976900
N -11.720600 -6.392000 -32.422700
C -11.696900 -5.923600 -29.998000
N -11.078900 -5.837700 -28.816000
C -11.062200 -6.389400 -31.212500
H -11.054600 -6.946200 -34.247900
C -10.848100 -6.851900 -33.346900
C -9.800300 -6.866200 -31.491200
N -9.679100 -7.151100 -32.831800
H -9.217900 -6.430500 -28.845300
H -8.988300 -7.457600 -33.242400
C -8.666100 -7.078000 -30.613900
N -8.587100 -6.780000 -29.315700
N -7.496500 -7.590800 -30.993200
N -7.369100 -7.111400 -28.858100
N -6.727300 -7.595600 -29.872400
