19
Fragment
N -9.209300 -5.760300 -25.547500
N -8.567600 -5.276100 -26.561800
N -8.440200 -5.755500 -24.426700
N -7.349600 -4.944700 -26.104200
C -7.270600 -5.242700 -24.805900
H -6.948400 -5.622300 -22.177500
H -6.718800 -4.595200 -26.574600
N -6.257600 -5.315800 -22.588000
C -6.136300 -5.030900 -23.928700
C -5.088500 -5.016600 -22.072900
H -4.882100 -5.110900 -21.172000
C -4.874500 -4.554100 -24.207400
N -4.857700 -4.002400 -26.603900
C -4.239800 -4.088300 -25.421900
N -4.216100 -4.556700 -22.997200
N -3.911000 -3.527100 -27.443000
N -2.978900 -3.683400 -25.508500
N -2.796700 -3.341700 -26.790400
H -2.400700 -3.647500 -24.874000
19
Fragment
N -9.209300 -9.430900 -25.547500
N -8.567600 -8.946700 -26.561800
N -8.440200 -9.426100 -24.426700
N -7.349600 -8.615300 -26.104200
C -7.270600 -8.913300 -24.805900
H -6.948400 -9.292900 -22.177500
H -6.718800 -8.265800 -26.574600
N -6.257600 -8.986400 -22.588000
C -6.136300 -8.701500 -23.928700
C -5.088500 -8.687200 -22.072900
H -4.882100 -8.781500 -21.172000
C -4.874500 -8.224700 -24.207400
N -4.857700 -7.673000 -26.603900
C -4.239800 -7.758900 -25.421900
N -4.216100 -8.227300 -22.997200
N -3.911000 -7.197700 -27.443000
N -2.978900 -7.354000 -25.508500
N -2.796700 -7.012300 -26.790400
H -2.400700 -7.318100 -24.874000
38
Fragment
N -9.209300 -5.760300 -25.547500
N -8.567600 -5.276100 -26.561800
N -8.440200 -5.755500 -24.426700
N -7.349600 -4.944700 -26.104200
C -7.270600 -5.242700 -24.805900
H -6.948400 -5.622300 -22.177500
H -6.718800 -4.595200 -26.574600
N -6.257600 -5.315800 -22.588000
C -6.136300 -5.030900 -23.928700
C -5.088500 -5.016600 -22.072900
H -4.882100 -5.110900 -21.172000
C -4.874500 -4.554100 -24.207400
N -4.857700 -4.002400 -26.603900
C -4.239800 -4.088300 -25.421900
N -4.216100 -4.556700 -22.997200
N -3.911000 -3.527100 -27.443000
N -2.978900 -3.683400 -25.508500
N -2.796700 -3.341700 -26.790400
H -2.400700 -3.647500 -24.874000
N -9.209300 -9.430900 -25.547500
N -8.567600 -8.946700 -26.561800
N -8.440200 -9.426100 -24.426700
N -7.349600 -8.615300 -26.104200
C -7.270600 -8.913300 -24.805900
H -6.948400 -9.292900 -22.177500
H -6.718800 -8.265800 -26.574600
N -6.257600 -8.986400 -22.588000
C -6.136300 -8.701500 -23.928700
C -5.088500 -8.687200 -22.072900
H -4.882100 -8.781500 -21.172000
C -4.874500 -8.224700 -24.207400
N -4.857700 -7.673000 -26.603900
C -4.239800 -7.758900 -25.421900
N -4.216100 -8.227300 -22.997200
N -3.911000 -7.197700 -27.443000
N -2.978900 -7.354000 -25.508500
N -2.796700 -7.012300 -26.790400
H -2.400700 -7.318100 -24.874000
