19
Fragment
N -9.209300 -5.760300 -25.547500
N -8.567600 -5.276100 -26.561800
N -8.440200 -5.755500 -24.426700
N -7.349600 -4.944700 -26.104200
C -7.270600 -5.242700 -24.805900
H -6.948400 -5.622300 -22.177500
H -6.718800 -4.595200 -26.574600
N -6.257600 -5.315800 -22.588000
C -6.136300 -5.030900 -23.928700
C -5.088500 -5.016600 -22.072900
H -4.882100 -5.110900 -21.172000
C -4.874500 -4.554100 -24.207400
N -4.857700 -4.002400 -26.603900
C -4.239800 -4.088300 -25.421900
N -4.216100 -4.556700 -22.997200
N -3.911000 -3.527100 -27.443000
N -2.978900 -3.683400 -25.508500
N -2.796700 -3.341700 -26.790400
H -2.400700 -3.647500 -24.874000
19
Fragment
H -2.341000 -3.693700 -22.628700
N -1.945000 -3.999500 -20.712300
N -1.762800 -3.657800 -21.994200
N -0.830700 -3.814100 -20.059800
N -0.525600 -2.784500 -24.505600
C -0.501900 -3.252900 -22.080900
N 0.116000 -3.338800 -20.898800
C 0.132800 -2.787100 -23.295400
H 0.140300 -2.230300 -26.330800
C 0.346800 -2.324600 -25.429800
C 1.394600 -2.310300 -23.574000
N 1.515900 -2.025400 -24.914700
H 1.977100 -2.746000 -20.928100
H 2.206700 -1.718900 -25.325300
C 2.528900 -2.098500 -22.696800
N 2.607900 -2.396500 -21.398600
N 3.698500 -1.585700 -23.076000
N 3.825900 -2.065100 -20.941000
N 4.467600 -1.580900 -21.955300
38
Fragment
N -9.209300 -5.760300 -25.547500
N -8.567600 -5.276100 -26.561800
N -8.440200 -5.755500 -24.426700
N -7.349600 -4.944700 -26.104200
C -7.270600 -5.242700 -24.805900
H -6.948400 -5.622300 -22.177500
H -6.718800 -4.595200 -26.574600
N -6.257600 -5.315800 -22.588000
C -6.136300 -5.030900 -23.928700
C -5.088500 -5.016600 -22.072900
H -4.882100 -5.110900 -21.172000
C -4.874500 -4.554100 -24.207400
N -4.857700 -4.002400 -26.603900
C -4.239800 -4.088300 -25.421900
N -4.216100 -4.556700 -22.997200
N -3.911000 -3.527100 -27.443000
N -2.978900 -3.683400 -25.508500
N -2.796700 -3.341700 -26.790400
H -2.400700 -3.647500 -24.874000
H -2.341000 -3.693700 -22.628700
N -1.945000 -3.999500 -20.712300
N -1.762800 -3.657800 -21.994200
N -0.830700 -3.814100 -20.059800
N -0.525600 -2.784500 -24.505600
C -0.501900 -3.252900 -22.080900
N 0.116000 -3.338800 -20.898800
C 0.132800 -2.787100 -23.295400
H 0.140300 -2.230300 -26.330800
C 0.346800 -2.324600 -25.429800
C 1.394600 -2.310300 -23.574000
N 1.515900 -2.025400 -24.914700
H 1.977100 -2.746000 -20.928100
H 2.206700 -1.718900 -25.325300
C 2.528900 -2.098500 -22.696800
N 2.607900 -2.396500 -21.398600
N 3.698500 -1.585700 -23.076000
N 3.825900 -2.065100 -20.941000
N 4.467600 -1.580900 -21.955300
