28
Fragment
H -22.429400 -11.834700 -16.929900
H -22.311500 -16.156800 -20.783000
H -22.221800 -16.564200 -19.302700
H -22.181900 -13.201000 -16.165200
H -22.169900 -11.832500 -15.368600
H -22.109600 -17.677200 -20.354900
C -21.952900 -12.248000 -16.217600
C -21.918600 -16.729900 -20.180600
O -21.212500 -13.225600 -19.627500
H -20.713200 -11.217200 -18.218500
H -20.555500 -14.946600 -21.397500
N -20.528600 -12.078600 -16.459300
N -20.481300 -16.518900 -20.249200
O -20.232600 -18.202500 -18.840900
O -20.180200 -13.172000 -14.577300
C -20.025700 -13.431000 -19.359300
C -19.943100 -11.613600 -17.729200
C -19.853900 -15.339400 -20.873800
N -19.697000 -17.301300 -19.496400
N -19.692900 -12.599400 -15.555500
N -19.321900 -12.653100 -18.487100
N -19.283300 -14.409100 -19.945100
H -19.275600 -10.926400 -17.515600
H -19.151100 -15.643800 -21.457100
H -18.523100 -12.873800 -18.278200
H -18.512400 -14.573500 -19.636000
O -18.477000 -17.079500 -19.510100
O -18.468700 -12.481100 -15.749700
28
Fragment
H -19.165500 -4.146400 -16.929900
H -19.047700 -8.468400 -20.783000
H -18.958000 -8.875900 -19.302700
H -18.918100 -5.512700 -16.165200
H -18.906100 -4.144200 -15.368600
H -18.845800 -9.988900 -20.354900
C -18.689100 -4.559700 -16.217600
C -18.654800 -9.041600 -20.180600
O -17.948700 -5.537300 -19.627500
H -17.449400 -3.528900 -18.218500
H -17.291700 -7.258300 -21.397500
N -17.264800 -4.390300 -16.459300
N -17.217500 -8.830600 -20.249200
O -16.968800 -10.514200 -18.840900
O -16.916400 -5.483700 -14.577300
C -16.761900 -5.742700 -19.359300
C -16.679300 -3.925300 -17.729200
C -16.590100 -7.651100 -20.873800
N -16.433200 -9.613000 -19.496400
N -16.429100 -4.911100 -15.555500
N -16.058100 -4.964800 -18.487100
N -16.019500 -6.720800 -19.945100
H -16.011800 -3.238100 -17.515600
H -15.887300 -7.955500 -21.457100
H -15.259300 -5.185500 -18.278200
H -15.248600 -6.885200 -19.636000
O -15.213200 -9.391200 -19.510100
O -15.204800 -4.792800 -15.749700
56
Fragment
H -22.429400 -11.834700 -16.929900
H -22.311500 -16.156800 -20.783000
H -22.221800 -16.564200 -19.302700
H -22.181900 -13.201000 -16.165200
H -22.169900 -11.832500 -15.368600
H -22.109600 -17.677200 -20.354900
C -21.952900 -12.248000 -16.217600
C -21.918600 -16.729900 -20.180600
O -21.212500 -13.225600 -19.627500
H -20.713200 -11.217200 -18.218500
H -20.555500 -14.946600 -21.397500
N -20.528600 -12.078600 -16.459300
N -20.481300 -16.518900 -20.249200
O -20.232600 -18.202500 -18.840900
O -20.180200 -13.172000 -14.577300
C -20.025700 -13.431000 -19.359300
C -19.943100 -11.613600 -17.729200
C -19.853900 -15.339400 -20.873800
N -19.697000 -17.301300 -19.496400
N -19.692900 -12.599400 -15.555500
N -19.321900 -12.653100 -18.487100
N -19.283300 -14.409100 -19.945100
H -19.275600 -10.926400 -17.515600
H -19.151100 -15.643800 -21.457100
H -18.523100 -12.873800 -18.278200
H -18.512400 -14.573500 -19.636000
O -18.477000 -17.079500 -19.510100
O -18.468700 -12.481100 -15.749700
H -19.165500 -4.146400 -16.929900
H -19.047700 -8.468400 -20.783000
H -18.958000 -8.875900 -19.302700
H -18.918100 -5.512700 -16.165200
H -18.906100 -4.144200 -15.368600
H -18.845800 -9.988900 -20.354900
C -18.689100 -4.559700 -16.217600
C -18.654800 -9.041600 -20.180600
O -17.948700 -5.537300 -19.627500
H -17.449400 -3.528900 -18.218500
H -17.291700 -7.258300 -21.397500
N -17.264800 -4.390300 -16.459300
N -17.217500 -8.830600 -20.249200
O -16.968800 -10.514200 -18.840900
O -16.916400 -5.483700 -14.577300
C -16.761900 -5.742700 -19.359300
C -16.679300 -3.925300 -17.729200
C -16.590100 -7.651100 -20.873800
N -16.433200 -9.613000 -19.496400
N -16.429100 -4.911100 -15.555500
N -16.058100 -4.964800 -18.487100
N -16.019500 -6.720800 -19.945100
H -16.011800 -3.238100 -17.515600
H -15.887300 -7.955500 -21.457100
H -15.259300 -5.185500 -18.278200
H -15.248600 -6.885200 -19.636000
O -15.213200 -9.391200 -19.510100
O -15.204800 -4.792800 -15.749700
