28
Fragment
H -22.429400 -11.834700 -16.929900
H -22.311500 -16.156800 -20.783000
H -22.221800 -16.564200 -19.302700
H -22.181900 -13.201000 -16.165200
H -22.169900 -11.832500 -15.368600
H -22.109600 -17.677200 -20.354900
C -21.952900 -12.248000 -16.217600
C -21.918600 -16.729900 -20.180600
O -21.212500 -13.225600 -19.627500
H -20.713200 -11.217200 -18.218500
H -20.555500 -14.946600 -21.397500
N -20.528600 -12.078600 -16.459300
N -20.481300 -16.518900 -20.249200
O -20.232600 -18.202500 -18.840900
O -20.180200 -13.172000 -14.577300
C -20.025700 -13.431000 -19.359300
C -19.943100 -11.613600 -17.729200
C -19.853900 -15.339400 -20.873800
N -19.697000 -17.301300 -19.496400
N -19.692900 -12.599400 -15.555500
N -19.321900 -12.653100 -18.487100
N -19.283300 -14.409100 -19.945100
H -19.275600 -10.926400 -17.515600
H -19.151100 -15.643800 -21.457100
H -18.523100 -12.873800 -18.278200
H -18.512400 -14.573500 -19.636000
O -18.477000 -17.079500 -19.510100
O -18.468700 -12.481100 -15.749700
28
Fragment
O -19.109200 -8.426500 -16.199500
O -19.100800 -3.828100 -12.439100
H -19.065500 -6.334100 -12.313200
H -19.054800 -8.033800 -13.671100
H -18.426800 -5.263800 -10.492100
H -18.302300 -9.981200 -14.433600
N -18.294500 -6.498500 -12.004200
N -18.256000 -8.254500 -13.462100
N -17.885000 -8.308200 -16.393700
N -17.880900 -3.606300 -12.452900
C -17.724000 -5.568200 -11.075400
C -17.634700 -9.294000 -14.220100
C -17.552200 -7.476600 -12.589900
O -17.397700 -7.735600 -17.372000
O -17.345200 -2.705100 -13.108300
N -17.096600 -4.388700 -11.700000
N -17.049200 -8.829000 -15.489900
H -17.022400 -5.961000 -10.551800
H -16.864600 -9.690400 -13.730700
O -16.365400 -7.682000 -12.321800
C -15.659200 -4.177700 -11.768600
C -15.625000 -8.659600 -15.731600
H -15.468200 -3.230400 -11.594400
H -15.407900 -9.075100 -16.580600
H -15.395900 -7.706600 -15.784000
H -15.356100 -4.343400 -12.646600
H -15.266400 -4.750800 -11.166300
H -15.148500 -9.072900 -15.019300
56
Fragment
H -22.429400 -11.834700 -16.929900
H -22.311500 -16.156800 -20.783000
H -22.221800 -16.564200 -19.302700
H -22.181900 -13.201000 -16.165200
H -22.169900 -11.832500 -15.368600
H -22.109600 -17.677200 -20.354900
C -21.952900 -12.248000 -16.217600
C -21.918600 -16.729900 -20.180600
O -21.212500 -13.225600 -19.627500
H -20.713200 -11.217200 -18.218500
H -20.555500 -14.946600 -21.397500
N -20.528600 -12.078600 -16.459300
N -20.481300 -16.518900 -20.249200
O -20.232600 -18.202500 -18.840900
O -20.180200 -13.172000 -14.577300
C -20.025700 -13.431000 -19.359300
C -19.943100 -11.613600 -17.729200
C -19.853900 -15.339400 -20.873800
N -19.697000 -17.301300 -19.496400
N -19.692900 -12.599400 -15.555500
N -19.321900 -12.653100 -18.487100
N -19.283300 -14.409100 -19.945100
H -19.275600 -10.926400 -17.515600
H -19.151100 -15.643800 -21.457100
H -18.523100 -12.873800 -18.278200
H -18.512400 -14.573500 -19.636000
O -18.477000 -17.079500 -19.510100
O -18.468700 -12.481100 -15.749700
O -19.109200 -8.426500 -16.199500
O -19.100800 -3.828100 -12.439100
H -19.065500 -6.334100 -12.313200
H -19.054800 -8.033800 -13.671100
H -18.426800 -5.263800 -10.492100
H -18.302300 -9.981200 -14.433600
N -18.294500 -6.498500 -12.004200
N -18.256000 -8.254500 -13.462100
N -17.885000 -8.308200 -16.393700
N -17.880900 -3.606300 -12.452900
C -17.724000 -5.568200 -11.075400
C -17.634700 -9.294000 -14.220100
C -17.552200 -7.476600 -12.589900
O -17.397700 -7.735600 -17.372000
O -17.345200 -2.705100 -13.108300
N -17.096600 -4.388700 -11.700000
N -17.049200 -8.829000 -15.489900
H -17.022400 -5.961000 -10.551800
H -16.864600 -9.690400 -13.730700
O -16.365400 -7.682000 -12.321800
C -15.659200 -4.177700 -11.768600
C -15.625000 -8.659600 -15.731600
H -15.468200 -3.230400 -11.594400
H -15.407900 -9.075100 -16.580600
H -15.395900 -7.706600 -15.784000
H -15.356100 -4.343400 -12.646600
H -15.266400 -4.750800 -11.166300
H -15.148500 -9.072900 -15.019300
