28
Fragment
H -22.429400 -11.834700 -16.929900
H -22.311500 -16.156800 -20.783000
H -22.221800 -16.564200 -19.302700
H -22.181900 -13.201000 -16.165200
H -22.169900 -11.832500 -15.368600
H -22.109600 -17.677200 -20.354900
C -21.952900 -12.248000 -16.217600
C -21.918600 -16.729900 -20.180600
O -21.212500 -13.225600 -19.627500
H -20.713200 -11.217200 -18.218500
H -20.555500 -14.946600 -21.397500
N -20.528600 -12.078600 -16.459300
N -20.481300 -16.518900 -20.249200
O -20.232600 -18.202500 -18.840900
O -20.180200 -13.172000 -14.577300
C -20.025700 -13.431000 -19.359300
C -19.943100 -11.613600 -17.729200
C -19.853900 -15.339400 -20.873800
N -19.697000 -17.301300 -19.496400
N -19.692900 -12.599400 -15.555500
N -19.321900 -12.653100 -18.487100
N -19.283300 -14.409100 -19.945100
H -19.275600 -10.926400 -17.515600
H -19.151100 -15.643800 -21.457100
H -18.523100 -12.873800 -18.278200
H -18.512400 -14.573500 -19.636000
O -18.477000 -17.079500 -19.510100
O -18.468700 -12.481100 -15.749700
28
Fragment
H -19.064700 -19.523000 -16.929900
H -18.946800 -23.845100 -20.783000
H -18.857100 -24.252600 -19.302700
H -18.817200 -20.889300 -16.165200
H -18.805200 -19.520800 -15.368600
H -18.745000 -25.365500 -20.354900
C -18.588200 -19.936300 -16.217600
C -18.553900 -24.418200 -20.180600
O -17.847800 -20.913900 -19.627500
H -17.348600 -18.905500 -18.218500
H -17.190800 -22.635000 -21.397500
N -17.163900 -19.766900 -16.459300
N -17.116600 -24.207200 -20.249200
O -16.867900 -25.890800 -18.840900
O -16.815500 -20.860300 -14.577300
C -16.661000 -21.119300 -19.359300
C -16.578400 -19.301900 -17.729200
C -16.489200 -23.027700 -20.873800
N -16.332300 -24.989600 -19.496400
N -16.328200 -20.287700 -15.555500
N -15.957200 -20.341400 -18.487100
N -15.918600 -22.097400 -19.945100
H -15.910900 -18.614700 -17.515600
H -15.786400 -23.332100 -21.457100
H -15.158400 -20.562200 -18.278200
H -15.147700 -22.261800 -19.636000
O -15.112400 -24.767800 -19.510100
O -15.104000 -20.169400 -15.749700
56
Fragment
H -22.429400 -11.834700 -16.929900
H -22.311500 -16.156800 -20.783000
H -22.221800 -16.564200 -19.302700
H -22.181900 -13.201000 -16.165200
H -22.169900 -11.832500 -15.368600
H -22.109600 -17.677200 -20.354900
C -21.952900 -12.248000 -16.217600
C -21.918600 -16.729900 -20.180600
O -21.212500 -13.225600 -19.627500
H -20.713200 -11.217200 -18.218500
H -20.555500 -14.946600 -21.397500
N -20.528600 -12.078600 -16.459300
N -20.481300 -16.518900 -20.249200
O -20.232600 -18.202500 -18.840900
O -20.180200 -13.172000 -14.577300
C -20.025700 -13.431000 -19.359300
C -19.943100 -11.613600 -17.729200
C -19.853900 -15.339400 -20.873800
N -19.697000 -17.301300 -19.496400
N -19.692900 -12.599400 -15.555500
N -19.321900 -12.653100 -18.487100
N -19.283300 -14.409100 -19.945100
H -19.275600 -10.926400 -17.515600
H -19.151100 -15.643800 -21.457100
H -18.523100 -12.873800 -18.278200
H -18.512400 -14.573500 -19.636000
O -18.477000 -17.079500 -19.510100
O -18.468700 -12.481100 -15.749700
H -19.064700 -19.523000 -16.929900
H -18.946800 -23.845100 -20.783000
H -18.857100 -24.252600 -19.302700
H -18.817200 -20.889300 -16.165200
H -18.805200 -19.520800 -15.368600
H -18.745000 -25.365500 -20.354900
C -18.588200 -19.936300 -16.217600
C -18.553900 -24.418200 -20.180600
O -17.847800 -20.913900 -19.627500
H -17.348600 -18.905500 -18.218500
H -17.190800 -22.635000 -21.397500
N -17.163900 -19.766900 -16.459300
N -17.116600 -24.207200 -20.249200
O -16.867900 -25.890800 -18.840900
O -16.815500 -20.860300 -14.577300
C -16.661000 -21.119300 -19.359300
C -16.578400 -19.301900 -17.729200
C -16.489200 -23.027700 -20.873800
N -16.332300 -24.989600 -19.496400
N -16.328200 -20.287700 -15.555500
N -15.957200 -20.341400 -18.487100
N -15.918600 -22.097400 -19.945100
H -15.910900 -18.614700 -17.515600
H -15.786400 -23.332100 -21.457100
H -15.158400 -20.562200 -18.278200
H -15.147700 -22.261800 -19.636000
O -15.112400 -24.767800 -19.510100
O -15.104000 -20.169400 -15.749700
