16
Fragment
O -11.251000 -23.474900 -17.647300
N -10.778500 -22.910800 -16.672300
O -10.738200 -21.679100 -16.617300
H -10.710200 -25.451600 -16.467400
C -10.369800 -25.072100 -15.689200
C -10.301200 -23.694500 -15.578200
H -9.987400 -26.792300 -14.785100
C -9.953500 -25.868000 -14.692400
H -9.914100 -21.211700 -14.814800
C -9.789500 -23.081300 -14.406300
N -9.668300 -21.765200 -14.203700
C -9.471500 -25.297000 -13.520500
C -9.379600 -23.972100 -13.387700
H -9.346000 -21.471800 -13.463200
H -9.209700 -25.846900 -12.816600
H -9.033400 -23.622500 -12.599200
16
Fragment
O -8.059600 -20.452600 -11.925100
N -7.587100 -21.016700 -10.950000
O -7.546800 -22.248400 -10.895100
H -7.518900 -18.475900 -10.745200
C -7.178500 -18.855400 -9.967000
C -7.109900 -20.233000 -9.856000
H -6.796100 -17.135200 -9.062900
C -6.762200 -18.059500 -8.970200
H -6.722800 -22.715800 -9.092600
C -6.598200 -20.846200 -8.684000
N -6.477000 -22.162300 -8.481500
C -6.280200 -18.630500 -7.798200
C -6.188300 -19.955400 -7.665500
H -6.154700 -22.455700 -7.741000
H -6.018300 -18.080600 -7.094400
H -5.842100 -20.305000 -6.877000
32
Fragment
O -11.251000 -23.474900 -17.647300
N -10.778500 -22.910800 -16.672300
O -10.738200 -21.679100 -16.617300
H -10.710200 -25.451600 -16.467400
C -10.369800 -25.072100 -15.689200
C -10.301200 -23.694500 -15.578200
H -9.987400 -26.792300 -14.785100
C -9.953500 -25.868000 -14.692400
H -9.914100 -21.211700 -14.814800
C -9.789500 -23.081300 -14.406300
N -9.668300 -21.765200 -14.203700
C -9.471500 -25.297000 -13.520500
C -9.379600 -23.972100 -13.387700
H -9.346000 -21.471800 -13.463200
H -9.209700 -25.846900 -12.816600
H -9.033400 -23.622500 -12.599200
O -8.059600 -20.452600 -11.925100
N -7.587100 -21.016700 -10.950000
O -7.546800 -22.248400 -10.895100
H -7.518900 -18.475900 -10.745200
C -7.178500 -18.855400 -9.967000
C -7.109900 -20.233000 -9.856000
H -6.796100 -17.135200 -9.062900
C -6.762200 -18.059500 -8.970200
H -6.722800 -22.715800 -9.092600
C -6.598200 -20.846200 -8.684000
N -6.477000 -22.162300 -8.481500
C -6.280200 -18.630500 -7.798200
C -6.188300 -19.955400 -7.665500
H -6.154700 -22.455700 -7.741000
H -6.018300 -18.080600 -7.094400
H -5.842100 -20.305000 -6.877000
