16
Fragment
O -11.251000 -23.474900 -17.647300
N -10.778500 -22.910800 -16.672300
O -10.738200 -21.679100 -16.617300
H -10.710200 -25.451600 -16.467400
C -10.369800 -25.072100 -15.689200
C -10.301200 -23.694500 -15.578200
H -9.987400 -26.792300 -14.785100
C -9.953500 -25.868000 -14.692400
H -9.914100 -21.211700 -14.814800
C -9.789500 -23.081300 -14.406300
N -9.668300 -21.765200 -14.203700
C -9.471500 -25.297000 -13.520500
C -9.379600 -23.972100 -13.387700
H -9.346000 -21.471800 -13.463200
H -9.209700 -25.846900 -12.816600
H -9.033400 -23.622500 -12.599200
20
Fragment
O -14.113800 -26.230000 -22.175900
H -13.807700 -32.318300 -19.206100
H -13.788800 -28.658300 -21.968800
C -13.459700 -28.658300 -21.099000
H -13.437800 -30.638600 -20.882700
N -13.398700 -26.189600 -21.148200
C -13.251100 -29.839100 -20.446700
C -13.184900 -27.475800 -20.471800
C -12.868700 -32.262100 -19.012700
O -12.867600 -25.214400 -20.701900
C -12.765300 -29.870700 -19.145400
C -12.699000 -27.460000 -19.179800
H -12.625600 -32.965000 -18.405000
O -12.574000 -30.977800 -18.409500
H -12.513000 -26.655200 -18.751700
C -12.498400 -28.647800 -18.545700
H -12.368900 -32.357000 -19.826400
O -12.261000 -27.626900 -16.508600
N -11.980000 -28.575700 -17.170100
O -11.249300 -29.447200 -16.770700
36
Fragment
O -11.251000 -23.474900 -17.647300
N -10.778500 -22.910800 -16.672300
O -10.738200 -21.679100 -16.617300
H -10.710200 -25.451600 -16.467400
C -10.369800 -25.072100 -15.689200
C -10.301200 -23.694500 -15.578200
H -9.987400 -26.792300 -14.785100
C -9.953500 -25.868000 -14.692400
H -9.914100 -21.211700 -14.814800
C -9.789500 -23.081300 -14.406300
N -9.668300 -21.765200 -14.203700
C -9.471500 -25.297000 -13.520500
C -9.379600 -23.972100 -13.387700
H -9.346000 -21.471800 -13.463200
H -9.209700 -25.846900 -12.816600
H -9.033400 -23.622500 -12.599200
O -14.113800 -26.230000 -22.175900
H -13.807700 -32.318300 -19.206100
H -13.788800 -28.658300 -21.968800
C -13.459700 -28.658300 -21.099000
H -13.437800 -30.638600 -20.882700
N -13.398700 -26.189600 -21.148200
C -13.251100 -29.839100 -20.446700
C -13.184900 -27.475800 -20.471800
C -12.868700 -32.262100 -19.012700
O -12.867600 -25.214400 -20.701900
C -12.765300 -29.870700 -19.145400
C -12.699000 -27.460000 -19.179800
H -12.625600 -32.965000 -18.405000
O -12.574000 -30.977800 -18.409500
H -12.513000 -26.655200 -18.751700
C -12.498400 -28.647800 -18.545700
H -12.368900 -32.357000 -19.826400
O -12.261000 -27.626900 -16.508600
N -11.980000 -28.575700 -17.170100
O -11.249300 -29.447200 -16.770700
