14
Fragment
O -11.575800 -13.600600 -47.024200
H -11.484800 -11.328300 -48.143500
H -11.472800 -14.189300 -46.375600
C -10.636900 -11.563400 -47.786500
C -10.477300 -12.779900 -47.134800
H -9.684100 -9.854000 -48.361000
C -9.564600 -10.686600 -47.919200
C -9.228100 -13.121000 -46.622000
H -9.108500 -13.953600 -46.180200
C -8.315400 -11.027700 -47.406400
C -8.155800 -12.244200 -46.754700
H -7.319900 -9.618300 -48.165600
H -7.307900 -12.479300 -46.397700
O -7.216900 -10.207000 -47.517000
29
Fragment
H -15.380800 -14.017300 -41.733600
H -14.957600 -12.844800 -39.748300
C -14.496200 -13.969100 -41.392000
C -14.244000 -13.266800 -40.214400
H -13.984000 -17.226600 -43.895500
N -13.753200 -15.316400 -43.285100
H -13.726500 -17.093300 -42.326100
H -13.626800 -14.991600 -45.269500
C -13.458700 -14.600000 -42.068000
C -13.442900 -16.756400 -43.213500
H -13.188200 -13.731000 -44.396500
C -13.116800 -14.715500 -44.468400
C -12.948100 -13.184100 -39.721200
H -12.774400 -12.707900 -38.916300
H -12.158300 -16.900400 -45.423900
C -12.148100 -14.512500 -41.577000
N -12.032400 -17.114200 -43.414600
C -11.903700 -13.800100 -40.407500
N -11.691800 -15.067100 -44.675800
C -11.595200 -16.542100 -44.693700
H -11.480200 -16.944500 -41.487800
C -11.153000 -16.602800 -42.356300
N -11.047200 -15.133700 -42.268400
H -11.017000 -13.732800 -40.072900
H -10.906900 -13.580500 -43.548800
C -10.805200 -14.563700 -43.605200
H -10.657900 -16.808800 -44.869300
H -10.245900 -16.973000 -42.499400
H -9.867000 -14.751800 -43.860800
43
Fragment
O -11.575800 -13.600600 -47.024200
H -11.484800 -11.328300 -48.143500
H -11.472800 -14.189300 -46.375600
C -10.636900 -11.563400 -47.786500
C -10.477300 -12.779900 -47.134800
H -9.684100 -9.854000 -48.361000
C -9.564600 -10.686600 -47.919200
C -9.228100 -13.121000 -46.622000
H -9.108500 -13.953600 -46.180200
C -8.315400 -11.027700 -47.406400
C -8.155800 -12.244200 -46.754700
H -7.319900 -9.618300 -48.165600
H -7.307900 -12.479300 -46.397700
O -7.216900 -10.207000 -47.517000
H -15.380800 -14.017300 -41.733600
H -14.957600 -12.844800 -39.748300
C -14.496200 -13.969100 -41.392000
C -14.244000 -13.266800 -40.214400
H -13.984000 -17.226600 -43.895500
N -13.753200 -15.316400 -43.285100
H -13.726500 -17.093300 -42.326100
H -13.626800 -14.991600 -45.269500
C -13.458700 -14.600000 -42.068000
C -13.442900 -16.756400 -43.213500
H -13.188200 -13.731000 -44.396500
C -13.116800 -14.715500 -44.468400
C -12.948100 -13.184100 -39.721200
H -12.774400 -12.707900 -38.916300
H -12.158300 -16.900400 -45.423900
C -12.148100 -14.512500 -41.577000
N -12.032400 -17.114200 -43.414600
C -11.903700 -13.800100 -40.407500
N -11.691800 -15.067100 -44.675800
C -11.595200 -16.542100 -44.693700
H -11.480200 -16.944500 -41.487800
C -11.153000 -16.602800 -42.356300
N -11.047200 -15.133700 -42.268400
H -11.017000 -13.732800 -40.072900
H -10.906900 -13.580500 -43.548800
C -10.805200 -14.563700 -43.605200
H -10.657900 -16.808800 -44.869300
H -10.245900 -16.973000 -42.499400
H -9.867000 -14.751800 -43.860800
