14
Fragment
O -11.575800 -13.600600 -47.024200
H -11.484800 -11.328300 -48.143500
H -11.472800 -14.189300 -46.375600
C -10.636900 -11.563400 -47.786500
C -10.477300 -12.779900 -47.134800
H -9.684100 -9.854000 -48.361000
C -9.564600 -10.686600 -47.919200
C -9.228100 -13.121000 -46.622000
H -9.108500 -13.953600 -46.180200
C -8.315400 -11.027700 -47.406400
C -8.155800 -12.244200 -46.754700
H -7.319900 -9.618300 -48.165600
H -7.307900 -12.479300 -46.397700
O -7.216900 -10.207000 -47.517000
14
Fragment
O -11.575800 -19.552500 -47.024200
H -11.484800 -17.280200 -48.143500
H -11.472800 -20.141200 -46.375600
C -10.636900 -17.515300 -47.786500
C -10.477300 -18.731800 -47.134800
H -9.684100 -15.805900 -48.361000
C -9.564600 -16.638500 -47.919200
C -9.228100 -19.072900 -46.622000
H -9.108500 -19.905500 -46.180200
C -8.315400 -16.979600 -47.406400
C -8.155800 -18.196100 -46.754700
H -7.319900 -15.570200 -48.165600
H -7.307900 -18.431200 -46.397700
O -7.216900 -16.158900 -47.517000
28
Fragment
O -11.575800 -13.600600 -47.024200
H -11.484800 -11.328300 -48.143500
H -11.472800 -14.189300 -46.375600
C -10.636900 -11.563400 -47.786500
C -10.477300 -12.779900 -47.134800
H -9.684100 -9.854000 -48.361000
C -9.564600 -10.686600 -47.919200
C -9.228100 -13.121000 -46.622000
H -9.108500 -13.953600 -46.180200
C -8.315400 -11.027700 -47.406400
C -8.155800 -12.244200 -46.754700
H -7.319900 -9.618300 -48.165600
H -7.307900 -12.479300 -46.397700
O -7.216900 -10.207000 -47.517000
O -11.575800 -19.552500 -47.024200
H -11.484800 -17.280200 -48.143500
H -11.472800 -20.141200 -46.375600
C -10.636900 -17.515300 -47.786500
C -10.477300 -18.731800 -47.134800
H -9.684100 -15.805900 -48.361000
C -9.564600 -16.638500 -47.919200
C -9.228100 -19.072900 -46.622000
H -9.108500 -19.905500 -46.180200
C -8.315400 -16.979600 -47.406400
C -8.155800 -18.196100 -46.754700
H -7.319900 -15.570200 -48.165600
H -7.307900 -18.431200 -46.397700
O -7.216900 -16.158900 -47.517000
