14
Fragment
O -11.575800 -13.600600 -47.024200
H -11.484800 -11.328300 -48.143500
H -11.472800 -14.189300 -46.375600
C -10.636900 -11.563400 -47.786500
C -10.477300 -12.779900 -47.134800
H -9.684100 -9.854000 -48.361000
C -9.564600 -10.686600 -47.919200
C -9.228100 -13.121000 -46.622000
H -9.108500 -13.953600 -46.180200
C -8.315400 -11.027700 -47.406400
C -8.155800 -12.244200 -46.754700
H -7.319900 -9.618300 -48.165600
H -7.307900 -12.479300 -46.397700
O -7.216900 -10.207000 -47.517000
29
Fragment
H -8.925700 -9.055800 -50.680400
H -8.546700 -6.834600 -52.041800
H -8.134800 -6.998800 -49.671900
C -7.987400 -9.243900 -50.936000
H -7.885800 -10.227100 -50.992400
H -7.775700 -10.074800 -54.468300
N -7.745500 -8.673900 -52.272800
C -7.639700 -7.204800 -52.184900
H -7.312400 -6.863100 -53.053400
C -7.197400 -7.265500 -49.847500
N -7.100900 -8.740500 -49.865400
C -6.889000 -10.007500 -54.133700
N -6.760300 -6.693400 -51.126600
C -6.644600 -9.295100 -52.964200
H -6.634300 -6.907200 -49.117300
H -6.018300 -11.099700 -55.624900
C -5.844600 -10.623500 -54.820000
C -5.675900 -9.092100 -50.072800
H -5.604400 -10.076600 -50.144700
C -5.349800 -7.051200 -51.327700
C -5.334000 -9.207600 -52.473200
H -5.165900 -8.816000 -49.271700
H -5.066200 -6.714300 -52.215100
N -5.039500 -8.491200 -51.256100
H -4.808700 -6.581000 -50.645700
C -4.548700 -10.540800 -54.326800
C -4.296400 -9.838500 -53.149200
H -3.835000 -10.962800 -54.792900
H -3.411800 -9.790300 -52.807600
43
Fragment
O -11.575800 -13.600600 -47.024200
H -11.484800 -11.328300 -48.143500
H -11.472800 -14.189300 -46.375600
C -10.636900 -11.563400 -47.786500
C -10.477300 -12.779900 -47.134800
H -9.684100 -9.854000 -48.361000
C -9.564600 -10.686600 -47.919200
C -9.228100 -13.121000 -46.622000
H -9.108500 -13.953600 -46.180200
C -8.315400 -11.027700 -47.406400
C -8.155800 -12.244200 -46.754700
H -7.319900 -9.618300 -48.165600
H -7.307900 -12.479300 -46.397700
O -7.216900 -10.207000 -47.517000
H -8.925700 -9.055800 -50.680400
H -8.546700 -6.834600 -52.041800
H -8.134800 -6.998800 -49.671900
C -7.987400 -9.243900 -50.936000
H -7.885800 -10.227100 -50.992400
H -7.775700 -10.074800 -54.468300
N -7.745500 -8.673900 -52.272800
C -7.639700 -7.204800 -52.184900
H -7.312400 -6.863100 -53.053400
C -7.197400 -7.265500 -49.847500
N -7.100900 -8.740500 -49.865400
C -6.889000 -10.007500 -54.133700
N -6.760300 -6.693400 -51.126600
C -6.644600 -9.295100 -52.964200
H -6.634300 -6.907200 -49.117300
H -6.018300 -11.099700 -55.624900
C -5.844600 -10.623500 -54.820000
C -5.675900 -9.092100 -50.072800
H -5.604400 -10.076600 -50.144700
C -5.349800 -7.051200 -51.327700
C -5.334000 -9.207600 -52.473200
H -5.165900 -8.816000 -49.271700
H -5.066200 -6.714300 -52.215100
N -5.039500 -8.491200 -51.256100
H -4.808700 -6.581000 -50.645700
C -4.548700 -10.540800 -54.326800
C -4.296400 -9.838500 -53.149200
H -3.835000 -10.962800 -54.792900
H -3.411800 -9.790300 -52.807600
