34
Fragment
N -15.146000 -15.569200 -43.767300
C -14.113700 -15.181700 -44.102900
H -13.267600 -13.214400 -45.851400
C -12.844500 -14.734100 -44.535200
H -12.644800 -17.079400 -42.687900
C -12.598100 -13.729600 -45.460500
N -11.786800 -17.135400 -42.668500
C -11.557700 -15.261400 -44.196600
H -11.405800 -17.739800 -42.191300
N -11.273500 -13.576800 -45.738800
C -11.051900 -16.289000 -43.376200
C -10.673900 -14.498100 -44.970600
H -10.571200 -12.465800 -47.132500
O -10.378200 -12.018600 -47.791200
N -9.689300 -16.453200 -43.284200
H -9.474300 -14.437000 -47.505000
H -9.319800 -10.627400 -46.895500
N -9.314600 -14.751000 -44.893000
C -9.160500 -11.321800 -47.553000
C -8.918200 -15.708100 -44.029800
H -8.880100 -10.890200 -48.374200
C -8.527200 -14.540300 -47.276700
O -8.395000 -12.755400 -45.749500
C -8.319000 -14.164200 -45.804200
O -8.120600 -15.853900 -47.573600
C -8.036900 -12.214500 -47.061100
H -8.002500 -15.852900 -43.957800
H -7.989200 -13.290700 -48.882200
C -7.726400 -13.430600 -47.947800
H -7.423600 -14.447900 -45.524000
H -7.305300 -15.874700 -47.663100
H -7.223300 -11.675500 -46.968900
O -6.369100 -13.844000 -47.820800
H -5.894600 -13.375000 -48.298000
34
Fragment
N -10.376900 -19.135000 -40.891800
C -9.344600 -19.522500 -40.556200
H -8.498500 -21.489900 -38.807700
C -8.075400 -19.970100 -40.123900
H -7.875700 -17.624800 -41.971200
C -7.829000 -20.974700 -39.198600
N -7.017700 -17.568900 -41.990600
C -6.788600 -19.442800 -40.462500
H -6.636700 -16.964400 -42.467800
N -6.504400 -21.127500 -38.920300
C -6.282800 -18.415300 -41.282900
C -5.904800 -20.206100 -39.688500
H -5.802100 -22.238500 -37.526600
O -5.609100 -22.685700 -36.867900
N -4.920200 -18.251100 -41.374900
H -4.705200 -20.267300 -37.154100
H -4.550700 -24.076800 -37.763600
N -4.545500 -19.953300 -39.766100
C -4.391400 -23.382400 -37.106100
C -4.149100 -18.996100 -40.629300
H -4.111000 -23.814100 -36.284900
C -3.758100 -20.164000 -37.382400
O -3.625900 -21.948900 -38.909600
C -3.549900 -20.540100 -38.854900
O -3.351500 -18.850400 -37.085500
C -3.267800 -22.489700 -37.598000
H -3.233400 -18.851300 -40.701300
H -3.220100 -21.413500 -35.776900
C -2.957300 -21.273600 -36.711300
H -2.654500 -20.256400 -39.135100
H -2.536200 -18.829500 -36.996000
H -2.454200 -23.028700 -37.690200
O -1.600000 -20.860200 -36.838300
H -1.125500 -21.329200 -36.361100
68
Fragment
N -15.146000 -15.569200 -43.767300
C -14.113700 -15.181700 -44.102900
H -13.267600 -13.214400 -45.851400
C -12.844500 -14.734100 -44.535200
H -12.644800 -17.079400 -42.687900
C -12.598100 -13.729600 -45.460500
N -11.786800 -17.135400 -42.668500
C -11.557700 -15.261400 -44.196600
H -11.405800 -17.739800 -42.191300
N -11.273500 -13.576800 -45.738800
C -11.051900 -16.289000 -43.376200
C -10.673900 -14.498100 -44.970600
H -10.571200 -12.465800 -47.132500
O -10.378200 -12.018600 -47.791200
N -9.689300 -16.453200 -43.284200
H -9.474300 -14.437000 -47.505000
H -9.319800 -10.627400 -46.895500
N -9.314600 -14.751000 -44.893000
C -9.160500 -11.321800 -47.553000
C -8.918200 -15.708100 -44.029800
H -8.880100 -10.890200 -48.374200
C -8.527200 -14.540300 -47.276700
O -8.395000 -12.755400 -45.749500
C -8.319000 -14.164200 -45.804200
O -8.120600 -15.853900 -47.573600
C -8.036900 -12.214500 -47.061100
H -8.002500 -15.852900 -43.957800
H -7.989200 -13.290700 -48.882200
C -7.726400 -13.430600 -47.947800
H -7.423600 -14.447900 -45.524000
H -7.305300 -15.874700 -47.663100
H -7.223300 -11.675500 -46.968900
O -6.369100 -13.844000 -47.820800
H -5.894600 -13.375000 -48.298000
N -10.376900 -19.135000 -40.891800
C -9.344600 -19.522500 -40.556200
H -8.498500 -21.489900 -38.807700
C -8.075400 -19.970100 -40.123900
H -7.875700 -17.624800 -41.971200
C -7.829000 -20.974700 -39.198600
N -7.017700 -17.568900 -41.990600
C -6.788600 -19.442800 -40.462500
H -6.636700 -16.964400 -42.467800
N -6.504400 -21.127500 -38.920300
C -6.282800 -18.415300 -41.282900
C -5.904800 -20.206100 -39.688500
H -5.802100 -22.238500 -37.526600
O -5.609100 -22.685700 -36.867900
N -4.920200 -18.251100 -41.374900
H -4.705200 -20.267300 -37.154100
H -4.550700 -24.076800 -37.763600
N -4.545500 -19.953300 -39.766100
C -4.391400 -23.382400 -37.106100
C -4.149100 -18.996100 -40.629300
H -4.111000 -23.814100 -36.284900
C -3.758100 -20.164000 -37.382400
O -3.625900 -21.948900 -38.909600
C -3.549900 -20.540100 -38.854900
O -3.351500 -18.850400 -37.085500
C -3.267800 -22.489700 -37.598000
H -3.233400 -18.851300 -40.701300
H -3.220100 -21.413500 -35.776900
C -2.957300 -21.273600 -36.711300
H -2.654500 -20.256400 -39.135100
H -2.536200 -18.829500 -36.996000
H -2.454200 -23.028700 -37.690200
O -1.600000 -20.860200 -36.838300
H -1.125500 -21.329200 -36.361100
