34
Fragment
N -15.146000 -15.569200 -43.767300
C -14.113700 -15.181700 -44.102900
H -13.267600 -13.214400 -45.851400
C -12.844500 -14.734100 -44.535200
H -12.644800 -17.079400 -42.687900
C -12.598100 -13.729600 -45.460500
N -11.786800 -17.135400 -42.668500
C -11.557700 -15.261400 -44.196600
H -11.405800 -17.739800 -42.191300
N -11.273500 -13.576800 -45.738800
C -11.051900 -16.289000 -43.376200
C -10.673900 -14.498100 -44.970600
H -10.571200 -12.465800 -47.132500
O -10.378200 -12.018600 -47.791200
N -9.689300 -16.453200 -43.284200
H -9.474300 -14.437000 -47.505000
H -9.319800 -10.627400 -46.895500
N -9.314600 -14.751000 -44.893000
C -9.160500 -11.321800 -47.553000
C -8.918200 -15.708100 -44.029800
H -8.880100 -10.890200 -48.374200
C -8.527200 -14.540300 -47.276700
O -8.395000 -12.755400 -45.749500
C -8.319000 -14.164200 -45.804200
O -8.120600 -15.853900 -47.573600
C -8.036900 -12.214500 -47.061100
H -8.002500 -15.852900 -43.957800
H -7.989200 -13.290700 -48.882200
C -7.726400 -13.430600 -47.947800
H -7.423600 -14.447900 -45.524000
H -7.305300 -15.874700 -47.663100
H -7.223300 -11.675500 -46.968900
O -6.369100 -13.844000 -47.820800
H -5.894600 -13.375000 -48.298000
34
Fragment
N -15.146000 -14.177300 -40.891800
C -14.113700 -14.564800 -40.556200
H -13.267600 -16.532100 -38.807700
C -12.844500 -15.012400 -40.123900
H -12.644800 -12.667100 -41.971200
C -12.598100 -16.016900 -39.198600
N -11.786800 -12.611100 -41.990600
C -11.557700 -14.485100 -40.462500
H -11.405800 -12.006700 -42.467800
N -11.273500 -16.169700 -38.920300
C -11.051900 -13.457500 -41.282900
C -10.673900 -15.248400 -39.688500
H -10.571200 -17.280700 -37.526600
O -10.378200 -17.727900 -36.867900
N -9.689300 -13.293300 -41.374900
H -9.474300 -15.309500 -37.154100
H -9.319800 -19.119100 -37.763600
N -9.314600 -14.995500 -39.766100
C -9.160500 -18.424700 -37.106100
C -8.918200 -14.038400 -40.629300
H -8.880100 -18.856300 -36.284900
C -8.527200 -15.206200 -37.382400
O -8.395000 -16.991100 -38.909600
C -8.319000 -15.582300 -38.854900
O -8.120600 -13.892600 -37.085500
C -8.036900 -17.532000 -37.598000
H -8.002500 -13.893600 -40.701300
H -7.989200 -16.455800 -35.776900
C -7.726400 -16.315900 -36.711300
H -7.423600 -15.298600 -39.135100
H -7.305300 -13.871800 -36.996000
H -7.223300 -18.071000 -37.690200
O -6.369100 -15.902500 -36.838300
H -5.894600 -16.371500 -36.361100
68
Fragment
N -15.146000 -15.569200 -43.767300
C -14.113700 -15.181700 -44.102900
H -13.267600 -13.214400 -45.851400
C -12.844500 -14.734100 -44.535200
H -12.644800 -17.079400 -42.687900
C -12.598100 -13.729600 -45.460500
N -11.786800 -17.135400 -42.668500
C -11.557700 -15.261400 -44.196600
H -11.405800 -17.739800 -42.191300
N -11.273500 -13.576800 -45.738800
C -11.051900 -16.289000 -43.376200
C -10.673900 -14.498100 -44.970600
H -10.571200 -12.465800 -47.132500
O -10.378200 -12.018600 -47.791200
N -9.689300 -16.453200 -43.284200
H -9.474300 -14.437000 -47.505000
H -9.319800 -10.627400 -46.895500
N -9.314600 -14.751000 -44.893000
C -9.160500 -11.321800 -47.553000
C -8.918200 -15.708100 -44.029800
H -8.880100 -10.890200 -48.374200
C -8.527200 -14.540300 -47.276700
O -8.395000 -12.755400 -45.749500
C -8.319000 -14.164200 -45.804200
O -8.120600 -15.853900 -47.573600
C -8.036900 -12.214500 -47.061100
H -8.002500 -15.852900 -43.957800
H -7.989200 -13.290700 -48.882200
C -7.726400 -13.430600 -47.947800
H -7.423600 -14.447900 -45.524000
H -7.305300 -15.874700 -47.663100
H -7.223300 -11.675500 -46.968900
O -6.369100 -13.844000 -47.820800
H -5.894600 -13.375000 -48.298000
N -15.146000 -14.177300 -40.891800
C -14.113700 -14.564800 -40.556200
H -13.267600 -16.532100 -38.807700
C -12.844500 -15.012400 -40.123900
H -12.644800 -12.667100 -41.971200
C -12.598100 -16.016900 -39.198600
N -11.786800 -12.611100 -41.990600
C -11.557700 -14.485100 -40.462500
H -11.405800 -12.006700 -42.467800
N -11.273500 -16.169700 -38.920300
C -11.051900 -13.457500 -41.282900
C -10.673900 -15.248400 -39.688500
H -10.571200 -17.280700 -37.526600
O -10.378200 -17.727900 -36.867900
N -9.689300 -13.293300 -41.374900
H -9.474300 -15.309500 -37.154100
H -9.319800 -19.119100 -37.763600
N -9.314600 -14.995500 -39.766100
C -9.160500 -18.424700 -37.106100
C -8.918200 -14.038400 -40.629300
H -8.880100 -18.856300 -36.284900
C -8.527200 -15.206200 -37.382400
O -8.395000 -16.991100 -38.909600
C -8.319000 -15.582300 -38.854900
O -8.120600 -13.892600 -37.085500
C -8.036900 -17.532000 -37.598000
H -8.002500 -13.893600 -40.701300
H -7.989200 -16.455800 -35.776900
C -7.726400 -16.315900 -36.711300
H -7.423600 -15.298600 -39.135100
H -7.305300 -13.871800 -36.996000
H -7.223300 -18.071000 -37.690200
O -6.369100 -15.902500 -36.838300
H -5.894600 -16.371500 -36.361100
