27
Fragment
O -17.743600 -4.451100 -26.323400
O -17.565100 -5.278800 -28.334000
N -17.361900 -5.305600 -27.128800
C -16.597100 -6.415900 -26.614200
N -16.358300 -6.444600 -25.311400
H -16.051900 -7.634300 -28.261200
C -16.018800 -7.460400 -27.327700
N -15.603200 -7.529700 -25.163800
H -15.414100 -7.792100 -24.384700
C -15.385500 -8.179900 -26.336700
C -14.597000 -9.388100 -26.366400
N -14.495800 -10.267700 -27.309100
O -13.860700 -9.686900 -25.263400
N -13.603700 -11.236300 -26.821900
C -13.274700 -10.851500 -25.633000
O -13.108800 -9.710200 -22.590700
C -12.371100 -11.564400 -24.751900
N -11.968800 -10.158400 -22.679400
H -11.963500 -13.146100 -25.965700
N -11.830100 -12.720600 -25.189400
C -11.785300 -11.316400 -23.520400
O -10.992000 -9.698200 -22.112500
N -10.931600 -13.241100 -24.343700
C -10.898300 -12.384200 -23.337600
O -10.385000 -12.233000 -21.118800
N -10.052600 -12.692000 -22.205700
O -9.076200 -13.398300 -22.390300
27
Fragment
O -10.118900 -10.410500 -26.045900
N -9.142500 -9.704200 -26.230600
O -8.810100 -9.245300 -27.317500
C -8.296800 -9.396500 -25.098700
N -8.263500 -10.253400 -24.092600
O -8.203100 -6.710500 -26.323700
C -7.409800 -8.328700 -24.915800
N -7.365000 -9.732900 -23.246900
H -7.231600 -10.158400 -22.470500
N -7.226300 -7.170600 -25.756800
C -6.824000 -8.576600 -23.684400
O -6.086300 -6.722400 -25.845600
C -5.920400 -7.863800 -22.803200
N -5.591400 -8.248600 -21.614400
O -5.334400 -6.699100 -23.172900
N -4.699300 -7.280000 -21.127100
C -4.598100 -6.400400 -22.069900
C -3.809600 -5.192100 -22.099500
H -3.781000 -4.804300 -24.051500
N -3.591900 -4.542000 -23.272500
C -3.176300 -4.472700 -21.108500
H -3.143100 -4.646500 -20.175100
N -2.836800 -3.456800 -23.124800
C -2.598000 -3.428100 -21.822100
N -1.833200 -2.317900 -21.307500
O -1.630000 -2.291000 -20.102200
O -1.451500 -1.463400 -22.112900
54
Fragment
O -17.743600 -4.451100 -26.323400
O -17.565100 -5.278800 -28.334000
N -17.361900 -5.305600 -27.128800
C -16.597100 -6.415900 -26.614200
N -16.358300 -6.444600 -25.311400
H -16.051900 -7.634300 -28.261200
C -16.018800 -7.460400 -27.327700
N -15.603200 -7.529700 -25.163800
H -15.414100 -7.792100 -24.384700
C -15.385500 -8.179900 -26.336700
C -14.597000 -9.388100 -26.366400
N -14.495800 -10.267700 -27.309100
O -13.860700 -9.686900 -25.263400
N -13.603700 -11.236300 -26.821900
C -13.274700 -10.851500 -25.633000
O -13.108800 -9.710200 -22.590700
C -12.371100 -11.564400 -24.751900
N -11.968800 -10.158400 -22.679400
H -11.963500 -13.146100 -25.965700
N -11.830100 -12.720600 -25.189400
C -11.785300 -11.316400 -23.520400
O -10.992000 -9.698200 -22.112500
N -10.931600 -13.241100 -24.343700
C -10.898300 -12.384200 -23.337600
O -10.385000 -12.233000 -21.118800
N -10.052600 -12.692000 -22.205700
O -9.076200 -13.398300 -22.390300
O -10.118900 -10.410500 -26.045900
N -9.142500 -9.704200 -26.230600
O -8.810100 -9.245300 -27.317500
C -8.296800 -9.396500 -25.098700
N -8.263500 -10.253400 -24.092600
O -8.203100 -6.710500 -26.323700
C -7.409800 -8.328700 -24.915800
N -7.365000 -9.732900 -23.246900
H -7.231600 -10.158400 -22.470500
N -7.226300 -7.170600 -25.756800
C -6.824000 -8.576600 -23.684400
O -6.086300 -6.722400 -25.845600
C -5.920400 -7.863800 -22.803200
N -5.591400 -8.248600 -21.614400
O -5.334400 -6.699100 -23.172900
N -4.699300 -7.280000 -21.127100
C -4.598100 -6.400400 -22.069900
C -3.809600 -5.192100 -22.099500
H -3.781000 -4.804300 -24.051500
N -3.591900 -4.542000 -23.272500
C -3.176300 -4.472700 -21.108500
H -3.143100 -4.646500 -20.175100
N -2.836800 -3.456800 -23.124800
C -2.598000 -3.428100 -21.822100
N -1.833200 -2.317900 -21.307500
O -1.630000 -2.291000 -20.102200
O -1.451500 -1.463400 -22.112900
