27
Fragment
O -17.743600 -4.451100 -26.323400
O -17.565100 -5.278800 -28.334000
N -17.361900 -5.305600 -27.128800
C -16.597100 -6.415900 -26.614200
N -16.358300 -6.444600 -25.311400
H -16.051900 -7.634300 -28.261200
C -16.018800 -7.460400 -27.327700
N -15.603200 -7.529700 -25.163800
H -15.414100 -7.792100 -24.384700
C -15.385500 -8.179900 -26.336700
C -14.597000 -9.388100 -26.366400
N -14.495800 -10.267700 -27.309100
O -13.860700 -9.686900 -25.263400
N -13.603700 -11.236300 -26.821900
C -13.274700 -10.851500 -25.633000
O -13.108800 -9.710200 -22.590700
C -12.371100 -11.564400 -24.751900
N -11.968800 -10.158400 -22.679400
H -11.963500 -13.146100 -25.965700
N -11.830100 -12.720600 -25.189400
C -11.785300 -11.316400 -23.520400
O -10.992000 -9.698200 -22.112500
N -10.931600 -13.241100 -24.343700
C -10.898300 -12.384200 -23.337600
O -10.385000 -12.233000 -21.118800
N -10.052600 -12.692000 -22.205700
O -9.076200 -13.398300 -22.390300
10
Fragment
H -12.267900 -10.023300 -29.035000
O -12.078700 -8.323900 -27.288200
H -11.955900 -9.001000 -30.226200
C -11.636800 -9.351700 -29.368400
C -11.530400 -8.234800 -28.382100
H -10.965300 -6.728400 -29.642200
H -10.880900 -6.318000 -28.097700
H -10.756100 -9.764000 -29.491700
C -10.714600 -7.034400 -28.745600
H -9.763500 -7.270200 -28.734900
37
Fragment
O -17.743600 -4.451100 -26.323400
O -17.565100 -5.278800 -28.334000
N -17.361900 -5.305600 -27.128800
C -16.597100 -6.415900 -26.614200
N -16.358300 -6.444600 -25.311400
H -16.051900 -7.634300 -28.261200
C -16.018800 -7.460400 -27.327700
N -15.603200 -7.529700 -25.163800
H -15.414100 -7.792100 -24.384700
C -15.385500 -8.179900 -26.336700
C -14.597000 -9.388100 -26.366400
N -14.495800 -10.267700 -27.309100
O -13.860700 -9.686900 -25.263400
N -13.603700 -11.236300 -26.821900
C -13.274700 -10.851500 -25.633000
O -13.108800 -9.710200 -22.590700
C -12.371100 -11.564400 -24.751900
N -11.968800 -10.158400 -22.679400
H -11.963500 -13.146100 -25.965700
N -11.830100 -12.720600 -25.189400
C -11.785300 -11.316400 -23.520400
O -10.992000 -9.698200 -22.112500
N -10.931600 -13.241100 -24.343700
C -10.898300 -12.384200 -23.337600
O -10.385000 -12.233000 -21.118800
N -10.052600 -12.692000 -22.205700
O -9.076200 -13.398300 -22.390300
H -12.267900 -10.023300 -29.035000
O -12.078700 -8.323900 -27.288200
H -11.955900 -9.001000 -30.226200
C -11.636800 -9.351700 -29.368400
C -11.530400 -8.234800 -28.382100
H -10.965300 -6.728400 -29.642200
H -10.880900 -6.318000 -28.097700
H -10.756100 -9.764000 -29.491700
C -10.714600 -7.034400 -28.745600
H -9.763500 -7.270200 -28.734900
