27
Fragment
O -17.743600 -4.451100 -26.323400
O -17.565100 -5.278800 -28.334000
N -17.361900 -5.305600 -27.128800
C -16.597100 -6.415900 -26.614200
N -16.358300 -6.444600 -25.311400
H -16.051900 -7.634300 -28.261200
C -16.018800 -7.460400 -27.327700
N -15.603200 -7.529700 -25.163800
H -15.414100 -7.792100 -24.384700
C -15.385500 -8.179900 -26.336700
C -14.597000 -9.388100 -26.366400
N -14.495800 -10.267700 -27.309100
O -13.860700 -9.686900 -25.263400
N -13.603700 -11.236300 -26.821900
C -13.274700 -10.851500 -25.633000
O -13.108800 -9.710200 -22.590700
C -12.371100 -11.564400 -24.751900
N -11.968800 -10.158400 -22.679400
H -11.963500 -13.146100 -25.965700
N -11.830100 -12.720600 -25.189400
C -11.785300 -11.316400 -23.520400
O -10.992000 -9.698200 -22.112500
N -10.931600 -13.241100 -24.343700
C -10.898300 -12.384200 -23.337600
O -10.385000 -12.233000 -21.118800
N -10.052600 -12.692000 -22.205700
O -9.076200 -13.398300 -22.390300
10
Fragment
H -9.431600 -16.233400 -19.701300
C -8.480500 -15.997600 -19.690700
H -8.438900 -18.727200 -18.944600
H -8.314200 -15.281300 -20.338600
H -8.229800 -15.691700 -18.794000
C -7.664700 -17.198100 -20.054200
C -7.558300 -18.314900 -19.067800
H -7.239200 -17.964200 -18.210100
O -7.116400 -17.287100 -21.148000
H -6.927200 -18.986600 -19.401200
37
Fragment
O -17.743600 -4.451100 -26.323400
O -17.565100 -5.278800 -28.334000
N -17.361900 -5.305600 -27.128800
C -16.597100 -6.415900 -26.614200
N -16.358300 -6.444600 -25.311400
H -16.051900 -7.634300 -28.261200
C -16.018800 -7.460400 -27.327700
N -15.603200 -7.529700 -25.163800
H -15.414100 -7.792100 -24.384700
C -15.385500 -8.179900 -26.336700
C -14.597000 -9.388100 -26.366400
N -14.495800 -10.267700 -27.309100
O -13.860700 -9.686900 -25.263400
N -13.603700 -11.236300 -26.821900
C -13.274700 -10.851500 -25.633000
O -13.108800 -9.710200 -22.590700
C -12.371100 -11.564400 -24.751900
N -11.968800 -10.158400 -22.679400
H -11.963500 -13.146100 -25.965700
N -11.830100 -12.720600 -25.189400
C -11.785300 -11.316400 -23.520400
O -10.992000 -9.698200 -22.112500
N -10.931600 -13.241100 -24.343700
C -10.898300 -12.384200 -23.337600
O -10.385000 -12.233000 -21.118800
N -10.052600 -12.692000 -22.205700
O -9.076200 -13.398300 -22.390300
H -9.431600 -16.233400 -19.701300
C -8.480500 -15.997600 -19.690700
H -8.438900 -18.727200 -18.944600
H -8.314200 -15.281300 -20.338600
H -8.229800 -15.691700 -18.794000
C -7.664700 -17.198100 -20.054200
C -7.558300 -18.314900 -19.067800
H -7.239200 -17.964200 -18.210100
O -7.116400 -17.287100 -21.148000
H -6.927200 -18.986600 -19.401200
