27
Fragment
O -17.743600 -4.451100 -26.323400
O -17.565100 -5.278800 -28.334000
N -17.361900 -5.305600 -27.128800
C -16.597100 -6.415900 -26.614200
N -16.358300 -6.444600 -25.311400
H -16.051900 -7.634300 -28.261200
C -16.018800 -7.460400 -27.327700
N -15.603200 -7.529700 -25.163800
H -15.414100 -7.792100 -24.384700
C -15.385500 -8.179900 -26.336700
C -14.597000 -9.388100 -26.366400
N -14.495800 -10.267700 -27.309100
O -13.860700 -9.686900 -25.263400
N -13.603700 -11.236300 -26.821900
C -13.274700 -10.851500 -25.633000
O -13.108800 -9.710200 -22.590700
C -12.371100 -11.564400 -24.751900
N -11.968800 -10.158400 -22.679400
H -11.963500 -13.146100 -25.965700
N -11.830100 -12.720600 -25.189400
C -11.785300 -11.316400 -23.520400
O -10.992000 -9.698200 -22.112500
N -10.931600 -13.241100 -24.343700
C -10.898300 -12.384200 -23.337600
O -10.385000 -12.233000 -21.118800
N -10.052600 -12.692000 -22.205700
O -9.076200 -13.398300 -22.390300
27
Fragment
O -17.743600 -10.426600 -26.323400
O -17.565100 -11.254300 -28.334000
N -17.361900 -11.281100 -27.128800
C -16.597100 -12.391400 -26.614200
N -16.358300 -12.420100 -25.311400
H -16.051900 -13.609800 -28.261200
C -16.018800 -13.435900 -27.327700
N -15.603200 -13.505200 -25.163800
H -15.414100 -13.767600 -24.384700
C -15.385500 -14.155400 -26.336700
C -14.597000 -15.363600 -26.366400
N -14.495800 -16.243200 -27.309100
O -13.860700 -15.662400 -25.263400
N -13.603700 -17.211800 -26.821900
C -13.274700 -16.827000 -25.633000
O -13.108800 -15.685700 -22.590700
C -12.371100 -17.539900 -24.751900
N -11.968800 -16.133900 -22.679400
H -11.963500 -19.121600 -25.965700
N -11.830100 -18.696100 -25.189400
C -11.785300 -17.291900 -23.520400
O -10.992000 -15.673700 -22.112500
N -10.931600 -19.216600 -24.343700
C -10.898300 -18.359700 -23.337600
O -10.385000 -18.208500 -21.118800
N -10.052600 -18.667500 -22.205700
O -9.076200 -19.373800 -22.390300
54
Fragment
O -17.743600 -4.451100 -26.323400
O -17.565100 -5.278800 -28.334000
N -17.361900 -5.305600 -27.128800
C -16.597100 -6.415900 -26.614200
N -16.358300 -6.444600 -25.311400
H -16.051900 -7.634300 -28.261200
C -16.018800 -7.460400 -27.327700
N -15.603200 -7.529700 -25.163800
H -15.414100 -7.792100 -24.384700
C -15.385500 -8.179900 -26.336700
C -14.597000 -9.388100 -26.366400
N -14.495800 -10.267700 -27.309100
O -13.860700 -9.686900 -25.263400
N -13.603700 -11.236300 -26.821900
C -13.274700 -10.851500 -25.633000
O -13.108800 -9.710200 -22.590700
C -12.371100 -11.564400 -24.751900
N -11.968800 -10.158400 -22.679400
H -11.963500 -13.146100 -25.965700
N -11.830100 -12.720600 -25.189400
C -11.785300 -11.316400 -23.520400
O -10.992000 -9.698200 -22.112500
N -10.931600 -13.241100 -24.343700
C -10.898300 -12.384200 -23.337600
O -10.385000 -12.233000 -21.118800
N -10.052600 -12.692000 -22.205700
O -9.076200 -13.398300 -22.390300
O -17.743600 -10.426600 -26.323400
O -17.565100 -11.254300 -28.334000
N -17.361900 -11.281100 -27.128800
C -16.597100 -12.391400 -26.614200
N -16.358300 -12.420100 -25.311400
H -16.051900 -13.609800 -28.261200
C -16.018800 -13.435900 -27.327700
N -15.603200 -13.505200 -25.163800
H -15.414100 -13.767600 -24.384700
C -15.385500 -14.155400 -26.336700
C -14.597000 -15.363600 -26.366400
N -14.495800 -16.243200 -27.309100
O -13.860700 -15.662400 -25.263400
N -13.603700 -17.211800 -26.821900
C -13.274700 -16.827000 -25.633000
O -13.108800 -15.685700 -22.590700
C -12.371100 -17.539900 -24.751900
N -11.968800 -16.133900 -22.679400
H -11.963500 -19.121600 -25.965700
N -11.830100 -18.696100 -25.189400
C -11.785300 -17.291900 -23.520400
O -10.992000 -15.673700 -22.112500
N -10.931600 -19.216600 -24.343700
C -10.898300 -18.359700 -23.337600
O -10.385000 -18.208500 -21.118800
N -10.052600 -18.667500 -22.205700
O -9.076200 -19.373800 -22.390300
