27
Fragment
O -17.743600 -4.451100 -26.323400
O -17.565100 -5.278800 -28.334000
N -17.361900 -5.305600 -27.128800
C -16.597100 -6.415900 -26.614200
N -16.358300 -6.444600 -25.311400
H -16.051900 -7.634300 -28.261200
C -16.018800 -7.460400 -27.327700
N -15.603200 -7.529700 -25.163800
H -15.414100 -7.792100 -24.384700
C -15.385500 -8.179900 -26.336700
C -14.597000 -9.388100 -26.366400
N -14.495800 -10.267700 -27.309100
O -13.860700 -9.686900 -25.263400
N -13.603700 -11.236300 -26.821900
C -13.274700 -10.851500 -25.633000
O -13.108800 -9.710200 -22.590700
C -12.371100 -11.564400 -24.751900
N -11.968800 -10.158400 -22.679400
H -11.963500 -13.146100 -25.965700
N -11.830100 -12.720600 -25.189400
C -11.785300 -11.316400 -23.520400
O -10.992000 -9.698200 -22.112500
N -10.931600 -13.241100 -24.343700
C -10.898300 -12.384200 -23.337600
O -10.385000 -12.233000 -21.118800
N -10.052600 -12.692000 -22.205700
O -9.076200 -13.398300 -22.390300
27
Fragment
O -23.741800 -16.386000 -26.045900
N -22.765400 -15.679700 -26.230600
O -22.433000 -15.220800 -27.317500
C -21.919700 -15.372000 -25.098700
N -21.886400 -16.228900 -24.092600
O -21.826000 -12.686000 -26.323700
C -21.032700 -14.304200 -24.915800
N -20.987900 -15.708400 -23.246900
H -20.854500 -16.133900 -22.470500
N -20.849200 -13.146100 -25.756800
C -20.446900 -14.552100 -23.684400
O -19.709200 -12.697900 -25.845600
C -19.543300 -13.839300 -22.803200
N -19.214300 -14.224100 -21.614400
O -18.957300 -12.674600 -23.172900
N -18.322200 -13.255500 -21.127100
C -18.221000 -12.375900 -22.069900
C -17.432500 -11.167600 -22.099500
H -17.403900 -10.779800 -24.051500
N -17.214800 -10.517500 -23.272500
C -16.799200 -10.448200 -21.108500
H -16.766000 -10.622000 -20.175100
N -16.459700 -9.432300 -23.124800
C -16.220900 -9.403600 -21.822100
N -15.456100 -8.293400 -21.307500
O -15.252900 -8.266500 -20.102200
O -15.074400 -7.438900 -22.112900
54
Fragment
O -17.743600 -4.451100 -26.323400
O -17.565100 -5.278800 -28.334000
N -17.361900 -5.305600 -27.128800
C -16.597100 -6.415900 -26.614200
N -16.358300 -6.444600 -25.311400
H -16.051900 -7.634300 -28.261200
C -16.018800 -7.460400 -27.327700
N -15.603200 -7.529700 -25.163800
H -15.414100 -7.792100 -24.384700
C -15.385500 -8.179900 -26.336700
C -14.597000 -9.388100 -26.366400
N -14.495800 -10.267700 -27.309100
O -13.860700 -9.686900 -25.263400
N -13.603700 -11.236300 -26.821900
C -13.274700 -10.851500 -25.633000
O -13.108800 -9.710200 -22.590700
C -12.371100 -11.564400 -24.751900
N -11.968800 -10.158400 -22.679400
H -11.963500 -13.146100 -25.965700
N -11.830100 -12.720600 -25.189400
C -11.785300 -11.316400 -23.520400
O -10.992000 -9.698200 -22.112500
N -10.931600 -13.241100 -24.343700
C -10.898300 -12.384200 -23.337600
O -10.385000 -12.233000 -21.118800
N -10.052600 -12.692000 -22.205700
O -9.076200 -13.398300 -22.390300
O -23.741800 -16.386000 -26.045900
N -22.765400 -15.679700 -26.230600
O -22.433000 -15.220800 -27.317500
C -21.919700 -15.372000 -25.098700
N -21.886400 -16.228900 -24.092600
O -21.826000 -12.686000 -26.323700
C -21.032700 -14.304200 -24.915800
N -20.987900 -15.708400 -23.246900
H -20.854500 -16.133900 -22.470500
N -20.849200 -13.146100 -25.756800
C -20.446900 -14.552100 -23.684400
O -19.709200 -12.697900 -25.845600
C -19.543300 -13.839300 -22.803200
N -19.214300 -14.224100 -21.614400
O -18.957300 -12.674600 -23.172900
N -18.322200 -13.255500 -21.127100
C -18.221000 -12.375900 -22.069900
C -17.432500 -11.167600 -22.099500
H -17.403900 -10.779800 -24.051500
N -17.214800 -10.517500 -23.272500
C -16.799200 -10.448200 -21.108500
H -16.766000 -10.622000 -20.175100
N -16.459700 -9.432300 -23.124800
C -16.220900 -9.403600 -21.822100
N -15.456100 -8.293400 -21.307500
O -15.252900 -8.266500 -20.102200
O -15.074400 -7.438900 -22.112900
