16
Fragment
H -10.978600 -15.853200 -17.242300
O -10.439400 -14.206100 -15.683200
O -10.387800 -16.230300 -16.740300
C -10.104200 -15.370200 -15.758500
H -9.520800 -17.870400 -14.780000
C -9.304800 -15.910800 -14.632100
O -9.222100 -13.234300 -12.646400
N -9.180000 -17.217400 -14.298100
C -8.627800 -15.225700 -13.639900
N -8.517400 -13.778500 -13.508400
N -8.482700 -17.427600 -13.154600
C -8.141000 -16.204800 -12.762900
O -7.742200 -13.217700 -14.264100
N -7.362900 -15.986100 -11.556400
O -7.178200 -16.902100 -10.724300
O -6.926000 -14.846600 -11.453800
16
Fragment
O -13.724200 -9.794600 -20.059600
O -13.472000 -11.850100 -20.789100
N -13.287300 -10.934100 -19.957000
O -12.907900 -8.165700 -17.249200
C -12.509100 -11.152800 -18.750400
N -12.167400 -12.375600 -18.358800
N -12.132800 -8.726500 -18.004900
C -12.022400 -10.173700 -17.873500
N -11.470200 -12.165400 -17.215300
O -11.428100 -8.182300 -18.867000
C -11.345300 -10.858800 -16.881300
H -11.129300 -12.818400 -16.733300
C -10.545900 -10.318200 -15.754900
O -10.262400 -11.178300 -14.773000
O -10.210700 -9.154100 -15.830100
H -9.671500 -10.801200 -14.271000
32
Fragment
H -10.978600 -15.853200 -17.242300
O -10.439400 -14.206100 -15.683200
O -10.387800 -16.230300 -16.740300
C -10.104200 -15.370200 -15.758500
H -9.520800 -17.870400 -14.780000
C -9.304800 -15.910800 -14.632100
O -9.222100 -13.234300 -12.646400
N -9.180000 -17.217400 -14.298100
C -8.627800 -15.225700 -13.639900
N -8.517400 -13.778500 -13.508400
N -8.482700 -17.427600 -13.154600
C -8.141000 -16.204800 -12.762900
O -7.742200 -13.217700 -14.264100
N -7.362900 -15.986100 -11.556400
O -7.178200 -16.902100 -10.724300
O -6.926000 -14.846600 -11.453800
O -13.724200 -9.794600 -20.059600
O -13.472000 -11.850100 -20.789100
N -13.287300 -10.934100 -19.957000
O -12.907900 -8.165700 -17.249200
C -12.509100 -11.152800 -18.750400
N -12.167400 -12.375600 -18.358800
N -12.132800 -8.726500 -18.004900
C -12.022400 -10.173700 -17.873500
N -11.470200 -12.165400 -17.215300
O -11.428100 -8.182300 -18.867000
C -11.345300 -10.858800 -16.881300
H -11.129300 -12.818400 -16.733300
C -10.545900 -10.318200 -15.754900
O -10.262400 -11.178300 -14.773000
O -10.210700 -9.154100 -15.830100
H -9.671500 -10.801200 -14.271000
