25
Fragment
O -26.792000 -11.721800 -31.967600
O -26.683800 -10.210800 -33.525600
N -26.163200 -11.004000 -32.734500
N -25.096300 -13.308200 -30.342200
C -24.730400 -11.053300 -32.714600
O -24.665000 -16.217600 -27.415900
N -24.646400 -14.240800 -29.383800
H -24.216700 -9.643600 -34.169300
C -24.040300 -12.780000 -30.855800
C -23.932200 -10.267100 -33.511400
C -23.850500 -11.800600 -31.900200
N -23.526900 -16.588200 -27.104800
C -23.358100 -14.181900 -29.393500
O -23.302800 -17.537300 -26.348400
O -22.893300 -13.273500 -30.294300
N -22.678700 -10.560600 -33.170200
N -22.590600 -11.480200 -32.199300
C -22.406100 -15.897200 -27.648300
C -22.344600 -14.885900 -28.633200
H -22.006300 -10.157100 -33.534800
C -21.105900 -16.159600 -27.285200
N -21.068000 -14.575000 -28.879100
H -20.806600 -16.780400 -26.631800
N -20.354100 -15.357800 -28.043300
H -19.491700 -15.343900 -28.003200
25
Fragment
O -33.749900 -11.721800 -34.336700
O -33.641600 -10.210800 -32.778800
N -33.121000 -11.004000 -33.569900
N -32.054100 -13.308200 -35.962200
C -31.688300 -11.053300 -33.589800
O -31.622900 -16.217600 -38.888400
N -31.604200 -14.240800 -36.920500
H -31.174500 -9.643600 -32.135100
C -30.998200 -12.780000 -35.448600
C -30.890100 -10.267100 -32.793000
C -30.808400 -11.800600 -34.404200
N -30.484700 -16.588200 -39.199500
C -30.315900 -14.181900 -36.910900
O -30.260700 -17.537300 -39.955900
O -29.851100 -13.273500 -36.010100
N -29.636500 -10.560600 -33.134200
N -29.548500 -11.480200 -34.105100
C -29.363900 -15.897200 -38.656000
C -29.302400 -14.885900 -37.671100
H -28.964100 -10.157100 -32.769500
C -28.063800 -16.159600 -39.019200
N -28.025800 -14.575000 -37.425200
H -27.764500 -16.780400 -39.672500
N -27.311900 -15.357800 -38.261000
H -26.449600 -15.343900 -38.301200
50
Fragment
O -26.792000 -11.721800 -31.967600
O -26.683800 -10.210800 -33.525600
N -26.163200 -11.004000 -32.734500
N -25.096300 -13.308200 -30.342200
C -24.730400 -11.053300 -32.714600
O -24.665000 -16.217600 -27.415900
N -24.646400 -14.240800 -29.383800
H -24.216700 -9.643600 -34.169300
C -24.040300 -12.780000 -30.855800
C -23.932200 -10.267100 -33.511400
C -23.850500 -11.800600 -31.900200
N -23.526900 -16.588200 -27.104800
C -23.358100 -14.181900 -29.393500
O -23.302800 -17.537300 -26.348400
O -22.893300 -13.273500 -30.294300
N -22.678700 -10.560600 -33.170200
N -22.590600 -11.480200 -32.199300
C -22.406100 -15.897200 -27.648300
C -22.344600 -14.885900 -28.633200
H -22.006300 -10.157100 -33.534800
C -21.105900 -16.159600 -27.285200
N -21.068000 -14.575000 -28.879100
H -20.806600 -16.780400 -26.631800
N -20.354100 -15.357800 -28.043300
H -19.491700 -15.343900 -28.003200
O -33.749900 -11.721800 -34.336700
O -33.641600 -10.210800 -32.778800
N -33.121000 -11.004000 -33.569900
N -32.054100 -13.308200 -35.962200
C -31.688300 -11.053300 -33.589800
O -31.622900 -16.217600 -38.888400
N -31.604200 -14.240800 -36.920500
H -31.174500 -9.643600 -32.135100
C -30.998200 -12.780000 -35.448600
C -30.890100 -10.267100 -32.793000
C -30.808400 -11.800600 -34.404200
N -30.484700 -16.588200 -39.199500
C -30.315900 -14.181900 -36.910900
O -30.260700 -17.537300 -39.955900
O -29.851100 -13.273500 -36.010100
N -29.636500 -10.560600 -33.134200
N -29.548500 -11.480200 -34.105100
C -29.363900 -15.897200 -38.656000
C -29.302400 -14.885900 -37.671100
H -28.964100 -10.157100 -32.769500
C -28.063800 -16.159600 -39.019200
N -28.025800 -14.575000 -37.425200
H -27.764500 -16.780400 -39.672500
N -27.311900 -15.357800 -38.261000
H -26.449600 -15.343900 -38.301200
