25
Fragment
O -26.792000 -11.721800 -31.967600
O -26.683800 -10.210800 -33.525600
N -26.163200 -11.004000 -32.734500
N -25.096300 -13.308200 -30.342200
C -24.730400 -11.053300 -32.714600
O -24.665000 -16.217600 -27.415900
N -24.646400 -14.240800 -29.383800
H -24.216700 -9.643600 -34.169300
C -24.040300 -12.780000 -30.855800
C -23.932200 -10.267100 -33.511400
C -23.850500 -11.800600 -31.900200
N -23.526900 -16.588200 -27.104800
C -23.358100 -14.181900 -29.393500
O -23.302800 -17.537300 -26.348400
O -22.893300 -13.273500 -30.294300
N -22.678700 -10.560600 -33.170200
N -22.590600 -11.480200 -32.199300
C -22.406100 -15.897200 -27.648300
C -22.344600 -14.885900 -28.633200
H -22.006300 -10.157100 -33.534800
C -21.105900 -16.159600 -27.285200
N -21.068000 -14.575000 -28.879100
H -20.806600 -16.780400 -26.631800
N -20.354100 -15.357800 -28.043300
H -19.491700 -15.343900 -28.003200
25
Fragment
H -29.213200 -19.673500 -28.003200
N -28.350900 -19.687300 -28.043300
H -27.898300 -21.109900 -26.631800
N -27.637000 -18.904500 -28.879100
C -27.599000 -20.489200 -27.285200
H -26.698700 -14.486700 -33.534800
C -26.360400 -19.215400 -28.633200
C -26.298900 -20.226800 -27.648300
N -26.114300 -15.809800 -32.199300
N -26.026300 -14.890200 -33.170200
O -25.811700 -17.603100 -30.294300
O -25.402100 -21.866800 -26.348400
C -25.346900 -18.511400 -29.393500
N -25.178100 -20.917800 -27.104800
C -24.854400 -16.130200 -31.900200
C -24.772700 -14.596600 -33.511400
C -24.664600 -17.109500 -30.855800
H -24.488300 -13.973100 -34.169300
N -24.058600 -18.570300 -29.383800
O -24.039900 -20.547200 -27.415900
C -23.974500 -15.382900 -32.714600
N -23.608700 -17.637700 -30.342200
N -22.541800 -15.333500 -32.734500
O -22.021200 -14.540400 -33.525600
O -21.912900 -16.051400 -31.967600
50
Fragment
O -26.792000 -11.721800 -31.967600
O -26.683800 -10.210800 -33.525600
N -26.163200 -11.004000 -32.734500
N -25.096300 -13.308200 -30.342200
C -24.730400 -11.053300 -32.714600
O -24.665000 -16.217600 -27.415900
N -24.646400 -14.240800 -29.383800
H -24.216700 -9.643600 -34.169300
C -24.040300 -12.780000 -30.855800
C -23.932200 -10.267100 -33.511400
C -23.850500 -11.800600 -31.900200
N -23.526900 -16.588200 -27.104800
C -23.358100 -14.181900 -29.393500
O -23.302800 -17.537300 -26.348400
O -22.893300 -13.273500 -30.294300
N -22.678700 -10.560600 -33.170200
N -22.590600 -11.480200 -32.199300
C -22.406100 -15.897200 -27.648300
C -22.344600 -14.885900 -28.633200
H -22.006300 -10.157100 -33.534800
C -21.105900 -16.159600 -27.285200
N -21.068000 -14.575000 -28.879100
H -20.806600 -16.780400 -26.631800
N -20.354100 -15.357800 -28.043300
H -19.491700 -15.343900 -28.003200
H -29.213200 -19.673500 -28.003200
N -28.350900 -19.687300 -28.043300
H -27.898300 -21.109900 -26.631800
N -27.637000 -18.904500 -28.879100
C -27.599000 -20.489200 -27.285200
H -26.698700 -14.486700 -33.534800
C -26.360400 -19.215400 -28.633200
C -26.298900 -20.226800 -27.648300
N -26.114300 -15.809800 -32.199300
N -26.026300 -14.890200 -33.170200
O -25.811700 -17.603100 -30.294300
O -25.402100 -21.866800 -26.348400
C -25.346900 -18.511400 -29.393500
N -25.178100 -20.917800 -27.104800
C -24.854400 -16.130200 -31.900200
C -24.772700 -14.596600 -33.511400
C -24.664600 -17.109500 -30.855800
H -24.488300 -13.973100 -34.169300
N -24.058600 -18.570300 -29.383800
O -24.039900 -20.547200 -27.415900
C -23.974500 -15.382900 -32.714600
N -23.608700 -17.637700 -30.342200
N -22.541800 -15.333500 -32.734500
O -22.021200 -14.540400 -33.525600
O -21.912900 -16.051400 -31.967600
