25
Fragment
O -26.792000 -11.721800 -31.967600
O -26.683800 -10.210800 -33.525600
N -26.163200 -11.004000 -32.734500
N -25.096300 -13.308200 -30.342200
C -24.730400 -11.053300 -32.714600
O -24.665000 -16.217600 -27.415900
N -24.646400 -14.240800 -29.383800
H -24.216700 -9.643600 -34.169300
C -24.040300 -12.780000 -30.855800
C -23.932200 -10.267100 -33.511400
C -23.850500 -11.800600 -31.900200
N -23.526900 -16.588200 -27.104800
C -23.358100 -14.181900 -29.393500
O -23.302800 -17.537300 -26.348400
O -22.893300 -13.273500 -30.294300
N -22.678700 -10.560600 -33.170200
N -22.590600 -11.480200 -32.199300
C -22.406100 -15.897200 -27.648300
C -22.344600 -14.885900 -28.633200
H -22.006300 -10.157100 -33.534800
C -21.105900 -16.159600 -27.285200
N -21.068000 -14.575000 -28.879100
H -20.806600 -16.780400 -26.631800
N -20.354100 -15.357800 -28.043300
H -19.491700 -15.343900 -28.003200
25
Fragment
H -29.213200 -10.633400 -37.475200
N -28.350900 -10.619500 -37.515400
H -27.898300 -9.196900 -36.103900
N -27.637000 -11.402300 -38.351200
C -27.599000 -9.817700 -36.757200
H -26.698700 -15.820200 -43.006900
C -26.360400 -11.091400 -38.105300
C -26.298900 -10.080100 -37.120400
N -26.114300 -14.497100 -41.671300
N -26.026300 -15.416700 -42.642200
O -25.811700 -12.703800 -39.766300
O -25.402100 -8.440000 -35.820500
C -25.346900 -11.795400 -38.865500
N -25.178100 -9.389100 -36.576900
C -24.854400 -14.176700 -41.372200
C -24.772700 -15.710200 -42.983400
C -24.664600 -13.197300 -40.327800
H -24.488300 -16.333700 -43.641300
N -24.058600 -11.736500 -38.855900
O -24.039900 -9.759700 -36.888000
C -23.974500 -14.924000 -42.186600
N -23.608700 -12.669100 -39.814200
N -22.541800 -14.973300 -42.206500
O -22.021200 -15.766500 -42.997600
O -21.912900 -14.255500 -41.439700
50
Fragment
O -26.792000 -11.721800 -31.967600
O -26.683800 -10.210800 -33.525600
N -26.163200 -11.004000 -32.734500
N -25.096300 -13.308200 -30.342200
C -24.730400 -11.053300 -32.714600
O -24.665000 -16.217600 -27.415900
N -24.646400 -14.240800 -29.383800
H -24.216700 -9.643600 -34.169300
C -24.040300 -12.780000 -30.855800
C -23.932200 -10.267100 -33.511400
C -23.850500 -11.800600 -31.900200
N -23.526900 -16.588200 -27.104800
C -23.358100 -14.181900 -29.393500
O -23.302800 -17.537300 -26.348400
O -22.893300 -13.273500 -30.294300
N -22.678700 -10.560600 -33.170200
N -22.590600 -11.480200 -32.199300
C -22.406100 -15.897200 -27.648300
C -22.344600 -14.885900 -28.633200
H -22.006300 -10.157100 -33.534800
C -21.105900 -16.159600 -27.285200
N -21.068000 -14.575000 -28.879100
H -20.806600 -16.780400 -26.631800
N -20.354100 -15.357800 -28.043300
H -19.491700 -15.343900 -28.003200
H -29.213200 -10.633400 -37.475200
N -28.350900 -10.619500 -37.515400
H -27.898300 -9.196900 -36.103900
N -27.637000 -11.402300 -38.351200
C -27.599000 -9.817700 -36.757200
H -26.698700 -15.820200 -43.006900
C -26.360400 -11.091400 -38.105300
C -26.298900 -10.080100 -37.120400
N -26.114300 -14.497100 -41.671300
N -26.026300 -15.416700 -42.642200
O -25.811700 -12.703800 -39.766300
O -25.402100 -8.440000 -35.820500
C -25.346900 -11.795400 -38.865500
N -25.178100 -9.389100 -36.576900
C -24.854400 -14.176700 -41.372200
C -24.772700 -15.710200 -42.983400
C -24.664600 -13.197300 -40.327800
H -24.488300 -16.333700 -43.641300
N -24.058600 -11.736500 -38.855900
O -24.039900 -9.759700 -36.888000
C -23.974500 -14.924000 -42.186600
N -23.608700 -12.669100 -39.814200
N -22.541800 -14.973300 -42.206500
O -22.021200 -15.766500 -42.997600
O -21.912900 -14.255500 -41.439700
