21
Fragment
H -13.363600 -18.951500 -24.887000
H -12.604600 -18.891900 -23.478900
C -12.521700 -19.142300 -24.423100
N -12.343900 -20.654200 -26.963400
H -12.321100 -23.413300 -21.755100
H -12.222800 -21.581900 -28.749700
N -12.221200 -20.575600 -24.525100
C -12.146900 -21.664800 -27.805800
C -12.137600 -21.209600 -25.741100
O -12.038900 -20.786100 -22.269200
C -11.986000 -21.298500 -23.378000
N -11.831000 -22.810300 -27.189200
C -11.826500 -22.539500 -25.844700
H -11.797600 -18.626000 -24.835600
N -11.694900 -22.659900 -23.520600
H -11.630900 -23.576100 -27.591600
C -11.588700 -23.366900 -24.719800
C -11.483400 -23.388900 -22.263200
O -11.350200 -24.576800 -24.737000
H -11.194400 -24.304200 -22.460900
H -10.793400 -22.936200 -21.735600
21
Fragment
H -16.375000 -20.322000 -21.803000
H -16.177400 -19.815100 -27.527700
O -16.113200 -18.975200 -24.553600
N -15.978500 -20.595700 -27.156000
H -15.908800 -21.776900 -28.797500
C -15.819200 -20.171800 -24.648200
C -15.806600 -21.728100 -27.854400
C -15.741300 -20.928000 -25.839000
N -15.496000 -20.923900 -23.518300
C -15.487100 -20.250600 -22.213700
N -15.478100 -22.776600 -27.101700
H -15.466400 -24.796200 -25.475800
C -15.448000 -22.263800 -25.848600
H -15.310700 -24.799900 -23.883300
H -15.259300 -19.305700 -22.335000
C -15.212300 -22.305100 -23.486700
N -15.189000 -22.955700 -24.694400
O -14.992000 -22.881400 -22.438400
C -14.980100 -24.408500 -24.718200
H -14.823400 -20.674900 -21.631000
H -14.023300 -24.599900 -24.812600
42
Fragment
H -13.363600 -18.951500 -24.887000
H -12.604600 -18.891900 -23.478900
C -12.521700 -19.142300 -24.423100
N -12.343900 -20.654200 -26.963400
H -12.321100 -23.413300 -21.755100
H -12.222800 -21.581900 -28.749700
N -12.221200 -20.575600 -24.525100
C -12.146900 -21.664800 -27.805800
C -12.137600 -21.209600 -25.741100
O -12.038900 -20.786100 -22.269200
C -11.986000 -21.298500 -23.378000
N -11.831000 -22.810300 -27.189200
C -11.826500 -22.539500 -25.844700
H -11.797600 -18.626000 -24.835600
N -11.694900 -22.659900 -23.520600
H -11.630900 -23.576100 -27.591600
C -11.588700 -23.366900 -24.719800
C -11.483400 -23.388900 -22.263200
O -11.350200 -24.576800 -24.737000
H -11.194400 -24.304200 -22.460900
H -10.793400 -22.936200 -21.735600
H -16.375000 -20.322000 -21.803000
H -16.177400 -19.815100 -27.527700
O -16.113200 -18.975200 -24.553600
N -15.978500 -20.595700 -27.156000
H -15.908800 -21.776900 -28.797500
C -15.819200 -20.171800 -24.648200
C -15.806600 -21.728100 -27.854400
C -15.741300 -20.928000 -25.839000
N -15.496000 -20.923900 -23.518300
C -15.487100 -20.250600 -22.213700
N -15.478100 -22.776600 -27.101700
H -15.466400 -24.796200 -25.475800
C -15.448000 -22.263800 -25.848600
H -15.310700 -24.799900 -23.883300
H -15.259300 -19.305700 -22.335000
C -15.212300 -22.305100 -23.486700
N -15.189000 -22.955700 -24.694400
O -14.992000 -22.881400 -22.438400
C -14.980100 -24.408500 -24.718200
H -14.823400 -20.674900 -21.631000
H -14.023300 -24.599900 -24.812600
