21
Fragment
H -13.363600 -18.951500 -24.887000
H -12.604600 -18.891900 -23.478900
C -12.521700 -19.142300 -24.423100
N -12.343900 -20.654200 -26.963400
H -12.321100 -23.413300 -21.755100
H -12.222800 -21.581900 -28.749700
N -12.221200 -20.575600 -24.525100
C -12.146900 -21.664800 -27.805800
C -12.137600 -21.209600 -25.741100
O -12.038900 -20.786100 -22.269200
C -11.986000 -21.298500 -23.378000
N -11.831000 -22.810300 -27.189200
C -11.826500 -22.539500 -25.844700
H -11.797600 -18.626000 -24.835600
N -11.694900 -22.659900 -23.520600
H -11.630900 -23.576100 -27.591600
C -11.588700 -23.366900 -24.719800
C -11.483400 -23.388900 -22.263200
O -11.350200 -24.576800 -24.737000
H -11.194400 -24.304200 -22.460900
H -10.793400 -22.936200 -21.735600
18
Fragment
H -9.300900 -18.352700 -25.887300
O -9.240600 -18.847600 -23.602000
O -9.098000 -19.168200 -25.799800
C -9.019800 -19.589100 -24.555600
H -8.822100 -20.044900 -22.290700
H -8.693200 -21.498600 -26.394500
C -8.669200 -21.000500 -24.418700
C -8.563800 -21.853400 -25.522700
O -8.551300 -20.814300 -22.013300
C -8.460600 -21.556900 -23.145000
C -8.278200 -23.188900 -25.379700
H -8.222800 -23.746300 -26.146200
C -8.140600 -22.892800 -22.992600
C -8.068600 -23.732700 -24.101800
H -7.968500 -23.240600 -22.125800
N -7.834800 -25.069100 -23.954400
H -7.656100 -25.515600 -24.695500
H -7.575100 -25.359000 -23.161500
39
Fragment
H -13.363600 -18.951500 -24.887000
H -12.604600 -18.891900 -23.478900
C -12.521700 -19.142300 -24.423100
N -12.343900 -20.654200 -26.963400
H -12.321100 -23.413300 -21.755100
H -12.222800 -21.581900 -28.749700
N -12.221200 -20.575600 -24.525100
C -12.146900 -21.664800 -27.805800
C -12.137600 -21.209600 -25.741100
O -12.038900 -20.786100 -22.269200
C -11.986000 -21.298500 -23.378000
N -11.831000 -22.810300 -27.189200
C -11.826500 -22.539500 -25.844700
H -11.797600 -18.626000 -24.835600
N -11.694900 -22.659900 -23.520600
H -11.630900 -23.576100 -27.591600
C -11.588700 -23.366900 -24.719800
C -11.483400 -23.388900 -22.263200
O -11.350200 -24.576800 -24.737000
H -11.194400 -24.304200 -22.460900
H -10.793400 -22.936200 -21.735600
H -9.300900 -18.352700 -25.887300
O -9.240600 -18.847600 -23.602000
O -9.098000 -19.168200 -25.799800
C -9.019800 -19.589100 -24.555600
H -8.822100 -20.044900 -22.290700
H -8.693200 -21.498600 -26.394500
C -8.669200 -21.000500 -24.418700
C -8.563800 -21.853400 -25.522700
O -8.551300 -20.814300 -22.013300
C -8.460600 -21.556900 -23.145000
C -8.278200 -23.188900 -25.379700
H -8.222800 -23.746300 -26.146200
C -8.140600 -22.892800 -22.992600
C -8.068600 -23.732700 -24.101800
H -7.968500 -23.240600 -22.125800
N -7.834800 -25.069100 -23.954400
H -7.656100 -25.515600 -24.695500
H -7.575100 -25.359000 -23.161500
