21
Fragment
H -13.363600 -18.951500 -24.887000
H -12.604600 -18.891900 -23.478900
C -12.521700 -19.142300 -24.423100
N -12.343900 -20.654200 -26.963400
H -12.321100 -23.413300 -21.755100
H -12.222800 -21.581900 -28.749700
N -12.221200 -20.575600 -24.525100
C -12.146900 -21.664800 -27.805800
C -12.137600 -21.209600 -25.741100
O -12.038900 -20.786100 -22.269200
C -11.986000 -21.298500 -23.378000
N -11.831000 -22.810300 -27.189200
C -11.826500 -22.539500 -25.844700
H -11.797600 -18.626000 -24.835600
N -11.694900 -22.659900 -23.520600
H -11.630900 -23.576100 -27.591600
C -11.588700 -23.366900 -24.719800
C -11.483400 -23.388900 -22.263200
O -11.350200 -24.576800 -24.737000
H -11.194400 -24.304200 -22.460900
H -10.793400 -22.936200 -21.735600
18
Fragment
H -13.001200 -25.134100 -34.754600
O -12.940800 -24.639200 -32.469300
O -12.798300 -24.318600 -34.667200
C -12.720100 -23.897700 -33.422900
H -12.522400 -23.441900 -31.158000
H -12.393500 -21.988200 -35.261800
C -12.369500 -22.486300 -33.286000
C -12.264100 -21.633400 -34.390000
O -12.251600 -22.672500 -30.880600
C -12.160900 -21.929900 -32.012300
C -11.978500 -20.297900 -34.247000
H -11.923100 -19.740500 -35.013500
C -11.840900 -20.594000 -31.860000
C -11.768900 -19.754100 -32.969100
H -11.668700 -20.246200 -30.993100
N -11.535100 -18.417700 -32.821700
H -11.356400 -17.971200 -33.562800
H -11.275300 -18.127800 -32.028800
39
Fragment
H -13.363600 -18.951500 -24.887000
H -12.604600 -18.891900 -23.478900
C -12.521700 -19.142300 -24.423100
N -12.343900 -20.654200 -26.963400
H -12.321100 -23.413300 -21.755100
H -12.222800 -21.581900 -28.749700
N -12.221200 -20.575600 -24.525100
C -12.146900 -21.664800 -27.805800
C -12.137600 -21.209600 -25.741100
O -12.038900 -20.786100 -22.269200
C -11.986000 -21.298500 -23.378000
N -11.831000 -22.810300 -27.189200
C -11.826500 -22.539500 -25.844700
H -11.797600 -18.626000 -24.835600
N -11.694900 -22.659900 -23.520600
H -11.630900 -23.576100 -27.591600
C -11.588700 -23.366900 -24.719800
C -11.483400 -23.388900 -22.263200
O -11.350200 -24.576800 -24.737000
H -11.194400 -24.304200 -22.460900
H -10.793400 -22.936200 -21.735600
H -13.001200 -25.134100 -34.754600
O -12.940800 -24.639200 -32.469300
O -12.798300 -24.318600 -34.667200
C -12.720100 -23.897700 -33.422900
H -12.522400 -23.441900 -31.158000
H -12.393500 -21.988200 -35.261800
C -12.369500 -22.486300 -33.286000
C -12.264100 -21.633400 -34.390000
O -12.251600 -22.672500 -30.880600
C -12.160900 -21.929900 -32.012300
C -11.978500 -20.297900 -34.247000
H -11.923100 -19.740500 -35.013500
C -11.840900 -20.594000 -31.860000
C -11.768900 -19.754100 -32.969100
H -11.668700 -20.246200 -30.993100
N -11.535100 -18.417700 -32.821700
H -11.356400 -17.971200 -33.562800
H -11.275300 -18.127800 -32.028800
