21
Fragment
H -13.363600 -18.951500 -24.887000
H -12.604600 -18.891900 -23.478900
C -12.521700 -19.142300 -24.423100
N -12.343900 -20.654200 -26.963400
H -12.321100 -23.413300 -21.755100
H -12.222800 -21.581900 -28.749700
N -12.221200 -20.575600 -24.525100
C -12.146900 -21.664800 -27.805800
C -12.137600 -21.209600 -25.741100
O -12.038900 -20.786100 -22.269200
C -11.986000 -21.298500 -23.378000
N -11.831000 -22.810300 -27.189200
C -11.826500 -22.539500 -25.844700
H -11.797600 -18.626000 -24.835600
N -11.694900 -22.659900 -23.520600
H -11.630900 -23.576100 -27.591600
C -11.588700 -23.366900 -24.719800
C -11.483400 -23.388900 -22.263200
O -11.350200 -24.576800 -24.737000
H -11.194400 -24.304200 -22.460900
H -10.793400 -22.936200 -21.735600
21
Fragment
H -11.408300 -14.338200 -31.468400
H -11.007400 -12.970200 -30.743000
O -10.851500 -12.697600 -28.467000
C -10.718400 -13.885500 -30.940800
C -10.613000 -13.907500 -28.484200
H -10.570900 -13.698300 -25.612400
N -10.506900 -14.614500 -29.683400
H -10.404200 -18.648400 -28.368400
C -10.375300 -14.734900 -27.359300
N -10.370700 -14.464100 -26.014800
C -10.215800 -15.975900 -29.826000
O -10.162800 -16.488300 -30.934700
C -10.064100 -16.064800 -27.462800
C -10.054900 -15.609600 -25.398200
N -9.980500 -16.698800 -28.678900
H -9.978900 -15.692500 -24.454300
H -9.880700 -13.861100 -31.448900
N -9.857900 -16.620200 -26.240600
C -9.680100 -18.132100 -28.780900
H -9.597100 -18.382500 -29.725100
H -8.838100 -18.322900 -28.316900
42
Fragment
H -13.363600 -18.951500 -24.887000
H -12.604600 -18.891900 -23.478900
C -12.521700 -19.142300 -24.423100
N -12.343900 -20.654200 -26.963400
H -12.321100 -23.413300 -21.755100
H -12.222800 -21.581900 -28.749700
N -12.221200 -20.575600 -24.525100
C -12.146900 -21.664800 -27.805800
C -12.137600 -21.209600 -25.741100
O -12.038900 -20.786100 -22.269200
C -11.986000 -21.298500 -23.378000
N -11.831000 -22.810300 -27.189200
C -11.826500 -22.539500 -25.844700
H -11.797600 -18.626000 -24.835600
N -11.694900 -22.659900 -23.520600
H -11.630900 -23.576100 -27.591600
C -11.588700 -23.366900 -24.719800
C -11.483400 -23.388900 -22.263200
O -11.350200 -24.576800 -24.737000
H -11.194400 -24.304200 -22.460900
H -10.793400 -22.936200 -21.735600
H -11.408300 -14.338200 -31.468400
H -11.007400 -12.970200 -30.743000
O -10.851500 -12.697600 -28.467000
C -10.718400 -13.885500 -30.940800
C -10.613000 -13.907500 -28.484200
H -10.570900 -13.698300 -25.612400
N -10.506900 -14.614500 -29.683400
H -10.404200 -18.648400 -28.368400
C -10.375300 -14.734900 -27.359300
N -10.370700 -14.464100 -26.014800
C -10.215800 -15.975900 -29.826000
O -10.162800 -16.488300 -30.934700
C -10.064100 -16.064800 -27.462800
C -10.054900 -15.609600 -25.398200
N -9.980500 -16.698800 -28.678900
H -9.978900 -15.692500 -24.454300
H -9.880700 -13.861100 -31.448900
N -9.857900 -16.620200 -26.240600
C -9.680100 -18.132100 -28.780900
H -9.597100 -18.382500 -29.725100
H -8.838100 -18.322900 -28.316900
