18
Fragment
H -6.057200 -12.773000 -18.466900
O -5.887400 -10.506800 -18.357100
O -5.662700 -12.569900 -19.156400
C -5.510200 -11.267100 -19.206100
H -5.000300 -12.474300 -21.553100
C -4.795400 -10.810300 -20.434400
C -4.646300 -11.614500 -21.554300
O -4.480400 -13.077500 -23.940200
H -4.336700 -8.997800 -19.698900
H -4.324700 -13.474400 -24.640600
C -4.246700 -9.541700 -20.448000
C -3.972500 -11.150900 -22.678000
C -3.787800 -11.976400 -23.902600
C -3.568000 -9.067400 -21.549400
C -3.437500 -9.876300 -22.652100
H -3.203600 -8.212000 -21.545700
O -3.046400 -11.616700 -24.799300
H -2.979300 -9.559700 -23.396200
28
Fragment
H -7.870700 -8.904800 -14.236100
C -7.211400 -8.333100 -14.556400
H -6.775400 -9.099400 -16.393400
N -6.718700 -7.257400 -13.881800
C -6.611300 -8.449700 -15.749000
H -6.212300 -6.563900 -18.324000
H -5.885000 -5.192300 -20.365400
C -5.820600 -6.734000 -14.683300
H -5.723400 -5.353800 -17.456600
N -5.711300 -7.427100 -15.832600
C -5.429500 -6.150200 -17.926000
H -5.320300 -5.976500 -14.482500
H -5.312400 -3.983200 -19.551100
C -5.070400 -4.800900 -20.013100
C -4.833400 -7.092000 -16.947800
H -4.591400 -7.909700 -17.409800
H -4.583500 -5.916300 -22.478400
C -4.474300 -5.742700 -19.034800
N -4.192500 -4.465800 -21.128300
H -4.180400 -6.539100 -19.504200
C -4.083100 -5.158800 -22.277500
H -4.018800 -6.700600 -16.595400
H -3.691500 -5.329000 -18.636900
C -3.292500 -3.443200 -21.211800
N -3.185100 -4.635500 -23.079100
H -3.128400 -2.793500 -20.567500
C -2.692400 -3.559700 -22.404400
H -2.033100 -2.988100 -22.724800
46
Fragment
H -6.057200 -12.773000 -18.466900
O -5.887400 -10.506800 -18.357100
O -5.662700 -12.569900 -19.156400
C -5.510200 -11.267100 -19.206100
H -5.000300 -12.474300 -21.553100
C -4.795400 -10.810300 -20.434400
C -4.646300 -11.614500 -21.554300
O -4.480400 -13.077500 -23.940200
H -4.336700 -8.997800 -19.698900
H -4.324700 -13.474400 -24.640600
C -4.246700 -9.541700 -20.448000
C -3.972500 -11.150900 -22.678000
C -3.787800 -11.976400 -23.902600
C -3.568000 -9.067400 -21.549400
C -3.437500 -9.876300 -22.652100
H -3.203600 -8.212000 -21.545700
O -3.046400 -11.616700 -24.799300
H -2.979300 -9.559700 -23.396200
H -7.870700 -8.904800 -14.236100
C -7.211400 -8.333100 -14.556400
H -6.775400 -9.099400 -16.393400
N -6.718700 -7.257400 -13.881800
C -6.611300 -8.449700 -15.749000
H -6.212300 -6.563900 -18.324000
H -5.885000 -5.192300 -20.365400
C -5.820600 -6.734000 -14.683300
H -5.723400 -5.353800 -17.456600
N -5.711300 -7.427100 -15.832600
C -5.429500 -6.150200 -17.926000
H -5.320300 -5.976500 -14.482500
H -5.312400 -3.983200 -19.551100
C -5.070400 -4.800900 -20.013100
C -4.833400 -7.092000 -16.947800
H -4.591400 -7.909700 -17.409800
H -4.583500 -5.916300 -22.478400
C -4.474300 -5.742700 -19.034800
N -4.192500 -4.465800 -21.128300
H -4.180400 -6.539100 -19.504200
C -4.083100 -5.158800 -22.277500
H -4.018800 -6.700600 -16.595400
H -3.691500 -5.329000 -18.636900
C -3.292500 -3.443200 -21.211800
N -3.185100 -4.635500 -23.079100
H -3.128400 -2.793500 -20.567500
C -2.692400 -3.559700 -22.404400
H -2.033100 -2.988100 -22.724800
