18
Fragment
H -6.057200 -12.773000 -18.466900
O -5.887400 -10.506800 -18.357100
O -5.662700 -12.569900 -19.156400
C -5.510200 -11.267100 -19.206100
H -5.000300 -12.474300 -21.553100
C -4.795400 -10.810300 -20.434400
C -4.646300 -11.614500 -21.554300
O -4.480400 -13.077500 -23.940200
H -4.336700 -8.997800 -19.698900
H -4.324700 -13.474400 -24.640600
C -4.246700 -9.541700 -20.448000
C -3.972500 -11.150900 -22.678000
C -3.787800 -11.976400 -23.902600
C -3.568000 -9.067400 -21.549400
C -3.437500 -9.876300 -22.652100
H -3.203600 -8.212000 -21.545700
O -3.046400 -11.616700 -24.799300
H -2.979300 -9.559700 -23.396200
28
Fragment
H -9.343300 -7.772600 -8.124000
H -8.941300 -11.800800 -14.201600
C -8.899300 -8.534200 -8.418500
H -8.886000 -13.143200 -13.393400
N -8.725300 -9.662200 -7.675500
H -8.674900 -10.499900 -12.086200
H -8.629700 -11.838800 -11.271800
C -8.346100 -12.488900 -13.864000
C -8.345000 -8.670200 -9.630800
H -8.342600 -8.043800 -10.317000
C -8.085000 -11.187400 -11.741200
C -8.051700 -10.470300 -8.461600
H -7.791900 -11.329100 -8.220100
N -7.783100 -9.918400 -9.651500
N -7.681200 -13.138800 -14.989100
H -7.672300 -11.728100 -16.420500
C -7.412500 -12.586900 -16.179000
C -7.379200 -11.869800 -12.899300
H -7.121700 -15.013400 -14.323600
C -7.119300 -14.387100 -15.009800
C -7.118200 -10.568300 -10.776600
H -6.834600 -11.218500 -13.368700
H -6.789300 -12.557300 -12.554400
N -6.739000 -13.395000 -16.965000
H -6.578200 -9.914000 -11.247200
C -6.564900 -14.523000 -16.222100
H -6.523000 -11.256400 -10.439000
H -6.120900 -15.284600 -16.516600
46
Fragment
H -6.057200 -12.773000 -18.466900
O -5.887400 -10.506800 -18.357100
O -5.662700 -12.569900 -19.156400
C -5.510200 -11.267100 -19.206100
H -5.000300 -12.474300 -21.553100
C -4.795400 -10.810300 -20.434400
C -4.646300 -11.614500 -21.554300
O -4.480400 -13.077500 -23.940200
H -4.336700 -8.997800 -19.698900
H -4.324700 -13.474400 -24.640600
C -4.246700 -9.541700 -20.448000
C -3.972500 -11.150900 -22.678000
C -3.787800 -11.976400 -23.902600
C -3.568000 -9.067400 -21.549400
C -3.437500 -9.876300 -22.652100
H -3.203600 -8.212000 -21.545700
O -3.046400 -11.616700 -24.799300
H -2.979300 -9.559700 -23.396200
H -9.343300 -7.772600 -8.124000
H -8.941300 -11.800800 -14.201600
C -8.899300 -8.534200 -8.418500
H -8.886000 -13.143200 -13.393400
N -8.725300 -9.662200 -7.675500
H -8.674900 -10.499900 -12.086200
H -8.629700 -11.838800 -11.271800
C -8.346100 -12.488900 -13.864000
C -8.345000 -8.670200 -9.630800
H -8.342600 -8.043800 -10.317000
C -8.085000 -11.187400 -11.741200
C -8.051700 -10.470300 -8.461600
H -7.791900 -11.329100 -8.220100
N -7.783100 -9.918400 -9.651500
N -7.681200 -13.138800 -14.989100
H -7.672300 -11.728100 -16.420500
C -7.412500 -12.586900 -16.179000
C -7.379200 -11.869800 -12.899300
H -7.121700 -15.013400 -14.323600
C -7.119300 -14.387100 -15.009800
C -7.118200 -10.568300 -10.776600
H -6.834600 -11.218500 -13.368700
H -6.789300 -12.557300 -12.554400
N -6.739000 -13.395000 -16.965000
H -6.578200 -9.914000 -11.247200
C -6.564900 -14.523000 -16.222100
H -6.523000 -11.256400 -10.439000
H -6.120900 -15.284600 -16.516600
