18
Fragment
H -6.057200 -12.773000 -18.466900
O -5.887400 -10.506800 -18.357100
O -5.662700 -12.569900 -19.156400
C -5.510200 -11.267100 -19.206100
H -5.000300 -12.474300 -21.553100
C -4.795400 -10.810300 -20.434400
C -4.646300 -11.614500 -21.554300
O -4.480400 -13.077500 -23.940200
H -4.336700 -8.997800 -19.698900
H -4.324700 -13.474400 -24.640600
C -4.246700 -9.541700 -20.448000
C -3.972500 -11.150900 -22.678000
C -3.787800 -11.976400 -23.902600
C -3.568000 -9.067400 -21.549400
C -3.437500 -9.876300 -22.652100
H -3.203600 -8.212000 -21.545700
O -3.046400 -11.616700 -24.799300
H -2.979300 -9.559700 -23.396200
28
Fragment
H -5.360100 -17.982000 -14.236100
C -4.700800 -17.410300 -14.556400
H -4.264700 -18.176600 -16.393400
N -4.208000 -16.334600 -13.881800
C -4.100600 -17.526900 -15.749000
H -3.701600 -15.641000 -18.324000
H -3.374300 -14.269500 -20.365400
C -3.310000 -15.811200 -14.683300
H -3.212700 -14.430900 -17.456600
N -3.200600 -16.504300 -15.832600
C -2.918900 -15.227400 -17.926000
H -2.809600 -15.053700 -14.482500
H -2.801800 -13.060400 -19.551100
C -2.559700 -13.878000 -20.013100
C -2.322700 -16.169200 -16.947800
H -2.080700 -16.986800 -17.409800
H -2.072800 -14.993500 -22.478400
C -1.963600 -14.819900 -19.034800
N -1.681800 -13.543000 -21.128300
H -1.669800 -15.616300 -19.504200
C -1.572500 -14.236000 -22.277500
H -1.508100 -15.777700 -16.595400
H -1.180800 -14.406200 -18.636900
C -0.781800 -12.520300 -21.211800
N -0.674400 -13.712600 -23.079100
H -0.617700 -11.870600 -20.567500
C -0.181700 -12.636900 -22.404400
H 0.477600 -12.065200 -22.724800
46
Fragment
H -6.057200 -12.773000 -18.466900
O -5.887400 -10.506800 -18.357100
O -5.662700 -12.569900 -19.156400
C -5.510200 -11.267100 -19.206100
H -5.000300 -12.474300 -21.553100
C -4.795400 -10.810300 -20.434400
C -4.646300 -11.614500 -21.554300
O -4.480400 -13.077500 -23.940200
H -4.336700 -8.997800 -19.698900
H -4.324700 -13.474400 -24.640600
C -4.246700 -9.541700 -20.448000
C -3.972500 -11.150900 -22.678000
C -3.787800 -11.976400 -23.902600
C -3.568000 -9.067400 -21.549400
C -3.437500 -9.876300 -22.652100
H -3.203600 -8.212000 -21.545700
O -3.046400 -11.616700 -24.799300
H -2.979300 -9.559700 -23.396200
H -5.360100 -17.982000 -14.236100
C -4.700800 -17.410300 -14.556400
H -4.264700 -18.176600 -16.393400
N -4.208000 -16.334600 -13.881800
C -4.100600 -17.526900 -15.749000
H -3.701600 -15.641000 -18.324000
H -3.374300 -14.269500 -20.365400
C -3.310000 -15.811200 -14.683300
H -3.212700 -14.430900 -17.456600
N -3.200600 -16.504300 -15.832600
C -2.918900 -15.227400 -17.926000
H -2.809600 -15.053700 -14.482500
H -2.801800 -13.060400 -19.551100
C -2.559700 -13.878000 -20.013100
C -2.322700 -16.169200 -16.947800
H -2.080700 -16.986800 -17.409800
H -2.072800 -14.993500 -22.478400
C -1.963600 -14.819900 -19.034800
N -1.681800 -13.543000 -21.128300
H -1.669800 -15.616300 -19.504200
C -1.572500 -14.236000 -22.277500
H -1.508100 -15.777700 -16.595400
H -1.180800 -14.406200 -18.636900
C -0.781800 -12.520300 -21.211800
N -0.674400 -13.712600 -23.079100
H -0.617700 -11.870600 -20.567500
C -0.181700 -12.636900 -22.404400
H 0.477600 -12.065200 -22.724800
