18
Fragment
H -6.057200 -12.773000 -18.466900
O -5.887400 -10.506800 -18.357100
O -5.662700 -12.569900 -19.156400
C -5.510200 -11.267100 -19.206100
H -5.000300 -12.474300 -21.553100
C -4.795400 -10.810300 -20.434400
C -4.646300 -11.614500 -21.554300
O -4.480400 -13.077500 -23.940200
H -4.336700 -8.997800 -19.698900
H -4.324700 -13.474400 -24.640600
C -4.246700 -9.541700 -20.448000
C -3.972500 -11.150900 -22.678000
C -3.787800 -11.976400 -23.902600
C -3.568000 -9.067400 -21.549400
C -3.437500 -9.876300 -22.652100
H -3.203600 -8.212000 -21.545700
O -3.046400 -11.616700 -24.799300
H -2.979300 -9.559700 -23.396200
28
Fragment
H -1.272200 -5.685400 -20.444300
H -0.870100 -9.713700 -26.521900
C -0.828200 -6.447100 -20.738700
H -0.814900 -11.056000 -25.713700
N -0.654100 -7.575000 -19.995800
H -0.603800 -8.412700 -24.406500
H -0.558500 -9.751600 -23.592100
C -0.274900 -10.401700 -26.184300
C -0.273800 -6.583000 -21.951100
H -0.271400 -5.956600 -22.637300
C -0.013900 -9.100200 -24.061500
C 0.019400 -8.383200 -20.781900
H 0.279200 -9.241900 -20.540400
N 0.288100 -7.831200 -21.971800
N 0.390000 -11.051600 -27.309400
H 0.398800 -9.640900 -28.740800
C 0.658600 -10.499700 -28.499300
C 0.691900 -9.782700 -25.219600
H 0.949400 -12.926300 -26.643900
C 0.951800 -12.299900 -27.330100
C 0.952900 -8.481200 -23.096800
H 1.236600 -9.131300 -25.689000
H 1.281800 -10.470200 -24.874700
N 1.332200 -11.307800 -29.285300
H 1.492900 -7.826900 -23.567500
C 1.506200 -12.435800 -28.542400
H 1.548200 -9.169200 -22.759300
H 1.950200 -13.197400 -28.836900
46
Fragment
H -6.057200 -12.773000 -18.466900
O -5.887400 -10.506800 -18.357100
O -5.662700 -12.569900 -19.156400
C -5.510200 -11.267100 -19.206100
H -5.000300 -12.474300 -21.553100
C -4.795400 -10.810300 -20.434400
C -4.646300 -11.614500 -21.554300
O -4.480400 -13.077500 -23.940200
H -4.336700 -8.997800 -19.698900
H -4.324700 -13.474400 -24.640600
C -4.246700 -9.541700 -20.448000
C -3.972500 -11.150900 -22.678000
C -3.787800 -11.976400 -23.902600
C -3.568000 -9.067400 -21.549400
C -3.437500 -9.876300 -22.652100
H -3.203600 -8.212000 -21.545700
O -3.046400 -11.616700 -24.799300
H -2.979300 -9.559700 -23.396200
H -1.272200 -5.685400 -20.444300
H -0.870100 -9.713700 -26.521900
C -0.828200 -6.447100 -20.738700
H -0.814900 -11.056000 -25.713700
N -0.654100 -7.575000 -19.995800
H -0.603800 -8.412700 -24.406500
H -0.558500 -9.751600 -23.592100
C -0.274900 -10.401700 -26.184300
C -0.273800 -6.583000 -21.951100
H -0.271400 -5.956600 -22.637300
C -0.013900 -9.100200 -24.061500
C 0.019400 -8.383200 -20.781900
H 0.279200 -9.241900 -20.540400
N 0.288100 -7.831200 -21.971800
N 0.390000 -11.051600 -27.309400
H 0.398800 -9.640900 -28.740800
C 0.658600 -10.499700 -28.499300
C 0.691900 -9.782700 -25.219600
H 0.949400 -12.926300 -26.643900
C 0.951800 -12.299900 -27.330100
C 0.952900 -8.481200 -23.096800
H 1.236600 -9.131300 -25.689000
H 1.281800 -10.470200 -24.874700
N 1.332200 -11.307800 -29.285300
H 1.492900 -7.826900 -23.567500
C 1.506200 -12.435800 -28.542400
H 1.548200 -9.169200 -22.759300
H 1.950200 -13.197400 -28.836900
