18
Fragment
O -13.466900 -14.798300 -19.407500
O -12.777400 -12.722300 -19.241100
N -12.647500 -13.880600 -19.669200
N -11.632200 -14.256000 -20.453600
H -10.829600 -11.669200 -19.665000
C -10.706400 -13.311700 -20.761900
N -10.392900 -12.091200 -20.301700
N -9.816200 -13.586300 -21.736000
H -9.785700 -14.318900 -22.222000
N -9.287000 -11.587600 -20.964600
C -8.968900 -12.515200 -21.827200
H -8.141300 -12.758500 -23.693900
C -7.850600 -12.437900 -22.804100
H -7.526300 -11.506300 -22.890800
O -6.811600 -13.293500 -22.265000
O -5.922800 -13.114500 -24.319600
N -5.844200 -13.629500 -23.236900
O -5.026700 -14.411500 -22.817100
18
Fragment
O -21.859900 -10.619000 -13.366100
N -21.042500 -9.837000 -12.946400
O -20.963900 -9.322000 -11.863600
O -20.075100 -9.501000 -13.918200
H -19.360300 -7.713800 -13.292400
C -19.036100 -8.645400 -13.379100
H -18.745400 -8.966000 -12.489300
C -17.917700 -8.722800 -14.356100
N -17.599700 -7.795100 -15.218700
H -17.101000 -10.526400 -13.961200
N -17.070500 -9.793800 -14.447200
N -16.493700 -8.298700 -15.881500
C -16.180300 -9.519200 -15.421300
H -16.057100 -7.876700 -16.518200
N -15.254400 -10.463500 -15.729600
N -14.239100 -10.088100 -16.514000
O -14.109200 -8.929800 -16.942100
O -13.419800 -11.005800 -16.775700
36
Fragment
O -13.466900 -14.798300 -19.407500
O -12.777400 -12.722300 -19.241100
N -12.647500 -13.880600 -19.669200
N -11.632200 -14.256000 -20.453600
H -10.829600 -11.669200 -19.665000
C -10.706400 -13.311700 -20.761900
N -10.392900 -12.091200 -20.301700
N -9.816200 -13.586300 -21.736000
H -9.785700 -14.318900 -22.222000
N -9.287000 -11.587600 -20.964600
C -8.968900 -12.515200 -21.827200
H -8.141300 -12.758500 -23.693900
C -7.850600 -12.437900 -22.804100
H -7.526300 -11.506300 -22.890800
O -6.811600 -13.293500 -22.265000
O -5.922800 -13.114500 -24.319600
N -5.844200 -13.629500 -23.236900
O -5.026700 -14.411500 -22.817100
O -21.859900 -10.619000 -13.366100
N -21.042500 -9.837000 -12.946400
O -20.963900 -9.322000 -11.863600
O -20.075100 -9.501000 -13.918200
H -19.360300 -7.713800 -13.292400
C -19.036100 -8.645400 -13.379100
H -18.745400 -8.966000 -12.489300
C -17.917700 -8.722800 -14.356100
N -17.599700 -7.795100 -15.218700
H -17.101000 -10.526400 -13.961200
N -17.070500 -9.793800 -14.447200
N -16.493700 -8.298700 -15.881500
C -16.180300 -9.519200 -15.421300
H -16.057100 -7.876700 -16.518200
N -15.254400 -10.463500 -15.729600
N -14.239100 -10.088100 -16.514000
O -14.109200 -8.929800 -16.942100
O -13.419800 -11.005800 -16.775700
