18
Fragment
O -13.466900 -14.798300 -19.407500
O -12.777400 -12.722300 -19.241100
N -12.647500 -13.880600 -19.669200
N -11.632200 -14.256000 -20.453600
H -10.829600 -11.669200 -19.665000
C -10.706400 -13.311700 -20.761900
N -10.392900 -12.091200 -20.301700
N -9.816200 -13.586300 -21.736000
H -9.785700 -14.318900 -22.222000
N -9.287000 -11.587600 -20.964600
C -8.968900 -12.515200 -21.827200
H -8.141300 -12.758500 -23.693900
C -7.850600 -12.437900 -22.804100
H -7.526300 -11.506300 -22.890800
O -6.811600 -13.293500 -22.265000
O -5.922800 -13.114500 -24.319600
N -5.844200 -13.629500 -23.236900
O -5.026700 -14.411500 -22.817100
18
Fragment
O -16.919700 -8.343500 -20.602700
N -16.102200 -9.125500 -20.183000
O -16.023600 -9.640500 -19.100200
O -15.134800 -9.461500 -21.154900
H -14.420000 -11.248700 -20.529100
C -14.095800 -10.317100 -20.615700
H -13.805100 -9.996500 -19.725900
C -12.977500 -10.239800 -21.592700
N -12.659400 -11.167400 -22.455300
H -12.160700 -8.436100 -21.197900
N -12.130200 -9.168700 -21.683900
N -11.553400 -10.663800 -23.118200
C -11.240000 -9.443300 -22.657900
H -11.116800 -11.085800 -23.754900
N -10.314200 -8.499000 -22.966200
N -9.298900 -8.874500 -23.750700
O -9.168900 -10.032700 -24.178800
O -8.479500 -7.956700 -24.012300
36
Fragment
O -13.466900 -14.798300 -19.407500
O -12.777400 -12.722300 -19.241100
N -12.647500 -13.880600 -19.669200
N -11.632200 -14.256000 -20.453600
H -10.829600 -11.669200 -19.665000
C -10.706400 -13.311700 -20.761900
N -10.392900 -12.091200 -20.301700
N -9.816200 -13.586300 -21.736000
H -9.785700 -14.318900 -22.222000
N -9.287000 -11.587600 -20.964600
C -8.968900 -12.515200 -21.827200
H -8.141300 -12.758500 -23.693900
C -7.850600 -12.437900 -22.804100
H -7.526300 -11.506300 -22.890800
O -6.811600 -13.293500 -22.265000
O -5.922800 -13.114500 -24.319600
N -5.844200 -13.629500 -23.236900
O -5.026700 -14.411500 -22.817100
O -16.919700 -8.343500 -20.602700
N -16.102200 -9.125500 -20.183000
O -16.023600 -9.640500 -19.100200
O -15.134800 -9.461500 -21.154900
H -14.420000 -11.248700 -20.529100
C -14.095800 -10.317100 -20.615700
H -13.805100 -9.996500 -19.725900
C -12.977500 -10.239800 -21.592700
N -12.659400 -11.167400 -22.455300
H -12.160700 -8.436100 -21.197900
N -12.130200 -9.168700 -21.683900
N -11.553400 -10.663800 -23.118200
C -11.240000 -9.443300 -22.657900
H -11.116800 -11.085800 -23.754900
N -10.314200 -8.499000 -22.966200
N -9.298900 -8.874500 -23.750700
O -9.168900 -10.032700 -24.178800
O -8.479500 -7.956700 -24.012300
