18
Fragment
O -13.466900 -14.798300 -19.407500
O -12.777400 -12.722300 -19.241100
N -12.647500 -13.880600 -19.669200
N -11.632200 -14.256000 -20.453600
H -10.829600 -11.669200 -19.665000
C -10.706400 -13.311700 -20.761900
N -10.392900 -12.091200 -20.301700
N -9.816200 -13.586300 -21.736000
H -9.785700 -14.318900 -22.222000
N -9.287000 -11.587600 -20.964600
C -8.968900 -12.515200 -21.827200
H -8.141300 -12.758500 -23.693900
C -7.850600 -12.437900 -22.804100
H -7.526300 -11.506300 -22.890800
O -6.811600 -13.293500 -22.265000
O -5.922800 -13.114500 -24.319600
N -5.844200 -13.629500 -23.236900
O -5.026700 -14.411500 -22.817100
18
Fragment
O -22.064900 -14.798300 -19.407500
O -21.375400 -12.722300 -19.241100
N -21.245500 -13.880600 -19.669200
N -20.230200 -14.256000 -20.453600
H -19.427600 -11.669200 -19.665000
C -19.304400 -13.311700 -20.761900
N -18.990900 -12.091200 -20.301700
N -18.414200 -13.586300 -21.736000
H -18.383700 -14.318900 -22.222000
N -17.885000 -11.587600 -20.964600
C -17.566900 -12.515200 -21.827200
H -16.739300 -12.758500 -23.693900
C -16.448600 -12.437900 -22.804100
H -16.124300 -11.506300 -22.890800
O -15.409600 -13.293500 -22.265000
O -14.520800 -13.114500 -24.319600
N -14.442200 -13.629500 -23.236900
O -13.624700 -14.411500 -22.817100
36
Fragment
O -13.466900 -14.798300 -19.407500
O -12.777400 -12.722300 -19.241100
N -12.647500 -13.880600 -19.669200
N -11.632200 -14.256000 -20.453600
H -10.829600 -11.669200 -19.665000
C -10.706400 -13.311700 -20.761900
N -10.392900 -12.091200 -20.301700
N -9.816200 -13.586300 -21.736000
H -9.785700 -14.318900 -22.222000
N -9.287000 -11.587600 -20.964600
C -8.968900 -12.515200 -21.827200
H -8.141300 -12.758500 -23.693900
C -7.850600 -12.437900 -22.804100
H -7.526300 -11.506300 -22.890800
O -6.811600 -13.293500 -22.265000
O -5.922800 -13.114500 -24.319600
N -5.844200 -13.629500 -23.236900
O -5.026700 -14.411500 -22.817100
O -22.064900 -14.798300 -19.407500
O -21.375400 -12.722300 -19.241100
N -21.245500 -13.880600 -19.669200
N -20.230200 -14.256000 -20.453600
H -19.427600 -11.669200 -19.665000
C -19.304400 -13.311700 -20.761900
N -18.990900 -12.091200 -20.301700
N -18.414200 -13.586300 -21.736000
H -18.383700 -14.318900 -22.222000
N -17.885000 -11.587600 -20.964600
C -17.566900 -12.515200 -21.827200
H -16.739300 -12.758500 -23.693900
C -16.448600 -12.437900 -22.804100
H -16.124300 -11.506300 -22.890800
O -15.409600 -13.293500 -22.265000
O -14.520800 -13.114500 -24.319600
N -14.442200 -13.629500 -23.236900
O -13.624700 -14.411500 -22.817100
