18
Fragment
O -13.466900 -14.798300 -19.407500
O -12.777400 -12.722300 -19.241100
N -12.647500 -13.880600 -19.669200
N -11.632200 -14.256000 -20.453600
H -10.829600 -11.669200 -19.665000
C -10.706400 -13.311700 -20.761900
N -10.392900 -12.091200 -20.301700
N -9.816200 -13.586300 -21.736000
H -9.785700 -14.318900 -22.222000
N -9.287000 -11.587600 -20.964600
C -8.968900 -12.515200 -21.827200
H -8.141300 -12.758500 -23.693900
C -7.850600 -12.437900 -22.804100
H -7.526300 -11.506300 -22.890800
O -6.811600 -13.293500 -22.265000
O -5.922800 -13.114500 -24.319600
N -5.844200 -13.629500 -23.236900
O -5.026700 -14.411500 -22.817100
18
Fragment
O -4.868900 -14.798300 -19.407500
O -4.179400 -12.722300 -19.241100
N -4.049500 -13.880600 -19.669200
N -3.034200 -14.256000 -20.453600
H -2.231600 -11.669200 -19.665000
C -2.108400 -13.311700 -20.761900
N -1.794900 -12.091200 -20.301700
N -1.218200 -13.586300 -21.736000
H -1.187700 -14.318900 -22.222000
N -0.689000 -11.587600 -20.964600
C -0.370900 -12.515200 -21.827200
H 0.456700 -12.758500 -23.693900
C 0.747400 -12.437900 -22.804100
H 1.071700 -11.506300 -22.890800
O 1.786400 -13.293500 -22.265000
O 2.675200 -13.114500 -24.319600
N 2.753800 -13.629500 -23.236900
O 3.571300 -14.411500 -22.817100
36
Fragment
O -13.466900 -14.798300 -19.407500
O -12.777400 -12.722300 -19.241100
N -12.647500 -13.880600 -19.669200
N -11.632200 -14.256000 -20.453600
H -10.829600 -11.669200 -19.665000
C -10.706400 -13.311700 -20.761900
N -10.392900 -12.091200 -20.301700
N -9.816200 -13.586300 -21.736000
H -9.785700 -14.318900 -22.222000
N -9.287000 -11.587600 -20.964600
C -8.968900 -12.515200 -21.827200
H -8.141300 -12.758500 -23.693900
C -7.850600 -12.437900 -22.804100
H -7.526300 -11.506300 -22.890800
O -6.811600 -13.293500 -22.265000
O -5.922800 -13.114500 -24.319600
N -5.844200 -13.629500 -23.236900
O -5.026700 -14.411500 -22.817100
O -4.868900 -14.798300 -19.407500
O -4.179400 -12.722300 -19.241100
N -4.049500 -13.880600 -19.669200
N -3.034200 -14.256000 -20.453600
H -2.231600 -11.669200 -19.665000
C -2.108400 -13.311700 -20.761900
N -1.794900 -12.091200 -20.301700
N -1.218200 -13.586300 -21.736000
H -1.187700 -14.318900 -22.222000
N -0.689000 -11.587600 -20.964600
C -0.370900 -12.515200 -21.827200
H 0.456700 -12.758500 -23.693900
C 0.747400 -12.437900 -22.804100
H 1.071700 -11.506300 -22.890800
O 1.786400 -13.293500 -22.265000
O 2.675200 -13.114500 -24.319600
N 2.753800 -13.629500 -23.236900
O 3.571300 -14.411500 -22.817100
