18
Fragment
O -13.466900 -14.798300 -19.407500
O -12.777400 -12.722300 -19.241100
N -12.647500 -13.880600 -19.669200
N -11.632200 -14.256000 -20.453600
H -10.829600 -11.669200 -19.665000
C -10.706400 -13.311700 -20.761900
N -10.392900 -12.091200 -20.301700
N -9.816200 -13.586300 -21.736000
H -9.785700 -14.318900 -22.222000
N -9.287000 -11.587600 -20.964600
C -8.968900 -12.515200 -21.827200
H -8.141300 -12.758500 -23.693900
C -7.850600 -12.437900 -22.804100
H -7.526300 -11.506300 -22.890800
O -6.811600 -13.293500 -22.265000
O -5.922800 -13.114500 -24.319600
N -5.844200 -13.629500 -23.236900
O -5.026700 -14.411500 -22.817100
18
Fragment
O -8.526600 -11.749200 -26.644200
O -7.837200 -13.825200 -26.477700
N -7.707200 -12.667000 -26.905800
N -6.691900 -12.291500 -27.690300
H -5.889300 -14.878300 -26.901600
C -5.766100 -13.235800 -27.998600
N -5.452700 -14.456300 -27.538300
N -4.875900 -12.961200 -28.972600
H -4.845400 -12.228600 -29.458600
N -4.346700 -14.959900 -28.201200
C -4.028700 -14.032200 -29.063800
H -3.201000 -13.789000 -30.930600
C -2.910300 -14.109600 -30.040800
H -2.586100 -15.041200 -30.127400
O -1.871300 -13.254000 -29.501600
O -0.982500 -13.433000 -31.556200
N -0.903900 -12.918000 -30.473500
O -0.086400 -12.136000 -30.053800
36
Fragment
O -13.466900 -14.798300 -19.407500
O -12.777400 -12.722300 -19.241100
N -12.647500 -13.880600 -19.669200
N -11.632200 -14.256000 -20.453600
H -10.829600 -11.669200 -19.665000
C -10.706400 -13.311700 -20.761900
N -10.392900 -12.091200 -20.301700
N -9.816200 -13.586300 -21.736000
H -9.785700 -14.318900 -22.222000
N -9.287000 -11.587600 -20.964600
C -8.968900 -12.515200 -21.827200
H -8.141300 -12.758500 -23.693900
C -7.850600 -12.437900 -22.804100
H -7.526300 -11.506300 -22.890800
O -6.811600 -13.293500 -22.265000
O -5.922800 -13.114500 -24.319600
N -5.844200 -13.629500 -23.236900
O -5.026700 -14.411500 -22.817100
O -8.526600 -11.749200 -26.644200
O -7.837200 -13.825200 -26.477700
N -7.707200 -12.667000 -26.905800
N -6.691900 -12.291500 -27.690300
H -5.889300 -14.878300 -26.901600
C -5.766100 -13.235800 -27.998600
N -5.452700 -14.456300 -27.538300
N -4.875900 -12.961200 -28.972600
H -4.845400 -12.228600 -29.458600
N -4.346700 -14.959900 -28.201200
C -4.028700 -14.032200 -29.063800
H -3.201000 -13.789000 -30.930600
C -2.910300 -14.109600 -30.040800
H -2.586100 -15.041200 -30.127400
O -1.871300 -13.254000 -29.501600
O -0.982500 -13.433000 -31.556200
N -0.903900 -12.918000 -30.473500
O -0.086400 -12.136000 -30.053800
