14
Fragment
H -15.201600 -11.451100 -18.552500
O -14.791200 -13.463900 -17.641200
O -14.437800 -11.622500 -18.798400
C -14.091100 -12.807700 -18.353000
H -12.919100 -13.774500 -19.688200
C -12.767100 -13.261300 -18.879600
H -12.367200 -13.858400 -18.227400
H -12.186100 -11.575600 -19.838900
C -11.786200 -12.172700 -19.186700
H -11.634200 -11.659500 -18.378000
C -10.462200 -12.626300 -19.713200
O -10.115500 -13.811500 -19.267900
O -9.762100 -11.970100 -20.425100
H -9.351700 -13.982900 -19.513800
21
Fragment
H -17.444100 -12.732600 -13.983400
C -16.603900 -12.789900 -14.444900
H -16.572500 -12.123900 -15.135500
H -16.512600 -13.661400 -14.835900
H -15.603500 -11.689100 -13.064700
H -15.528700 -13.230200 -12.781400
C -15.490300 -12.558500 -13.480500
N -14.172400 -12.615300 -14.137800
H -13.849600 -10.707700 -14.740500
N -13.599500 -14.967900 -13.896700
C -13.507100 -11.571600 -14.716400
C -13.367600 -13.702100 -14.311600
H -12.682300 -16.660500 -13.982400
C -12.580200 -15.768200 -14.224100
N -12.340200 -11.890400 -15.236700
C -12.246400 -13.256200 -14.985400
N -11.444400 -15.477400 -14.844600
C -11.241300 -14.187900 -15.236700
N -10.093000 -13.902200 -15.839400
H -9.932700 -13.098100 -16.100000
H -9.509700 -14.520400 -15.969600
35
Fragment
H -15.201600 -11.451100 -18.552500
O -14.791200 -13.463900 -17.641200
O -14.437800 -11.622500 -18.798400
C -14.091100 -12.807700 -18.353000
H -12.919100 -13.774500 -19.688200
C -12.767100 -13.261300 -18.879600
H -12.367200 -13.858400 -18.227400
H -12.186100 -11.575600 -19.838900
C -11.786200 -12.172700 -19.186700
H -11.634200 -11.659500 -18.378000
C -10.462200 -12.626300 -19.713200
O -10.115500 -13.811500 -19.267900
O -9.762100 -11.970100 -20.425100
H -9.351700 -13.982900 -19.513800
H -17.444100 -12.732600 -13.983400
C -16.603900 -12.789900 -14.444900
H -16.572500 -12.123900 -15.135500
H -16.512600 -13.661400 -14.835900
H -15.603500 -11.689100 -13.064700
H -15.528700 -13.230200 -12.781400
C -15.490300 -12.558500 -13.480500
N -14.172400 -12.615300 -14.137800
H -13.849600 -10.707700 -14.740500
N -13.599500 -14.967900 -13.896700
C -13.507100 -11.571600 -14.716400
C -13.367600 -13.702100 -14.311600
H -12.682300 -16.660500 -13.982400
C -12.580200 -15.768200 -14.224100
N -12.340200 -11.890400 -15.236700
C -12.246400 -13.256200 -14.985400
N -11.444400 -15.477400 -14.844600
C -11.241300 -14.187900 -15.236700
N -10.093000 -13.902200 -15.839400
H -9.932700 -13.098100 -16.100000
H -9.509700 -14.520400 -15.969600
