14
Fragment
H -15.201600 -11.451100 -18.552500
O -14.791200 -13.463900 -17.641200
O -14.437800 -11.622500 -18.798400
C -14.091100 -12.807700 -18.353000
H -12.919100 -13.774500 -19.688200
C -12.767100 -13.261300 -18.879600
H -12.367200 -13.858400 -18.227400
H -12.186100 -11.575600 -19.838900
C -11.786200 -12.172700 -19.186700
H -11.634200 -11.659500 -18.378000
C -10.462200 -12.626300 -19.713200
O -10.115500 -13.811500 -19.267900
O -9.762100 -11.970100 -20.425100
H -9.351700 -13.982900 -19.513800
21
Fragment
H -15.043600 -10.913600 -22.096700
H -14.620600 -12.335900 -21.966300
N -14.460300 -11.531800 -22.226900
C -13.312000 -11.246100 -22.829600
N -13.108900 -9.956600 -23.221700
C -12.306900 -12.177800 -23.080800
N -12.213100 -13.543600 -22.829600
C -11.973100 -9.665800 -23.842200
H -11.871000 -8.773500 -24.083900
C -11.185700 -11.731900 -23.754600
C -11.046200 -13.862400 -23.349800
N -10.953800 -10.466100 -24.169500
H -10.703700 -14.726300 -23.325700
N -10.380900 -12.818700 -23.928400
C -9.063000 -12.875500 -24.585700
H -9.024600 -12.203800 -25.284900
H -8.949800 -13.744900 -25.001500
H -8.040700 -11.772600 -23.230300
H -7.980800 -13.310100 -22.930700
C -7.949400 -12.644100 -23.621400
H -7.109100 -12.701400 -24.082900
35
Fragment
H -15.201600 -11.451100 -18.552500
O -14.791200 -13.463900 -17.641200
O -14.437800 -11.622500 -18.798400
C -14.091100 -12.807700 -18.353000
H -12.919100 -13.774500 -19.688200
C -12.767100 -13.261300 -18.879600
H -12.367200 -13.858400 -18.227400
H -12.186100 -11.575600 -19.838900
C -11.786200 -12.172700 -19.186700
H -11.634200 -11.659500 -18.378000
C -10.462200 -12.626300 -19.713200
O -10.115500 -13.811500 -19.267900
O -9.762100 -11.970100 -20.425100
H -9.351700 -13.982900 -19.513800
H -15.043600 -10.913600 -22.096700
H -14.620600 -12.335900 -21.966300
N -14.460300 -11.531800 -22.226900
C -13.312000 -11.246100 -22.829600
N -13.108900 -9.956600 -23.221700
C -12.306900 -12.177800 -23.080800
N -12.213100 -13.543600 -22.829600
C -11.973100 -9.665800 -23.842200
H -11.871000 -8.773500 -24.083900
C -11.185700 -11.731900 -23.754600
C -11.046200 -13.862400 -23.349800
N -10.953800 -10.466100 -24.169500
H -10.703700 -14.726300 -23.325700
N -10.380900 -12.818700 -23.928400
C -9.063000 -12.875500 -24.585700
H -9.024600 -12.203800 -25.284900
H -8.949800 -13.744900 -25.001500
H -8.040700 -11.772600 -23.230300
H -7.980800 -13.310100 -22.930700
C -7.949400 -12.644100 -23.621400
H -7.109100 -12.701400 -24.082900
