14
Fragment
H -15.201600 -11.451100 -18.552500
O -14.791200 -13.463900 -17.641200
O -14.437800 -11.622500 -18.798400
C -14.091100 -12.807700 -18.353000
H -12.919100 -13.774500 -19.688200
C -12.767100 -13.261300 -18.879600
H -12.367200 -13.858400 -18.227400
H -12.186100 -11.575600 -19.838900
C -11.786200 -12.172700 -19.186700
H -11.634200 -11.659500 -18.378000
C -10.462200 -12.626300 -19.713200
O -10.115500 -13.811500 -19.267900
O -9.762100 -11.970100 -20.425100
H -9.351700 -13.982900 -19.513800
21
Fragment
H -20.842400 -10.281400 -15.752300
H -20.419400 -8.859100 -15.621900
N -20.259100 -9.663200 -15.882500
C -19.110800 -9.948900 -16.485200
N -18.907700 -11.238400 -16.877300
C -18.105700 -9.017200 -16.736500
N -18.011900 -7.651400 -16.485200
C -17.771900 -11.529200 -17.497800
H -17.669800 -12.421500 -17.739500
C -16.984400 -9.463100 -17.410200
C -16.845000 -7.332600 -17.005500
N -16.752600 -10.728900 -17.825200
H -16.502500 -6.468700 -16.981400
N -16.179700 -8.376300 -17.584100
C -14.861800 -8.319500 -18.241400
H -14.823400 -8.991200 -18.940500
H -14.748600 -7.450100 -18.657200
H -13.839500 -9.422400 -16.885900
H -13.779600 -7.884900 -16.586400
C -13.748200 -8.550900 -17.277000
H -12.907900 -8.493600 -17.738500
35
Fragment
H -15.201600 -11.451100 -18.552500
O -14.791200 -13.463900 -17.641200
O -14.437800 -11.622500 -18.798400
C -14.091100 -12.807700 -18.353000
H -12.919100 -13.774500 -19.688200
C -12.767100 -13.261300 -18.879600
H -12.367200 -13.858400 -18.227400
H -12.186100 -11.575600 -19.838900
C -11.786200 -12.172700 -19.186700
H -11.634200 -11.659500 -18.378000
C -10.462200 -12.626300 -19.713200
O -10.115500 -13.811500 -19.267900
O -9.762100 -11.970100 -20.425100
H -9.351700 -13.982900 -19.513800
H -20.842400 -10.281400 -15.752300
H -20.419400 -8.859100 -15.621900
N -20.259100 -9.663200 -15.882500
C -19.110800 -9.948900 -16.485200
N -18.907700 -11.238400 -16.877300
C -18.105700 -9.017200 -16.736500
N -18.011900 -7.651400 -16.485200
C -17.771900 -11.529200 -17.497800
H -17.669800 -12.421500 -17.739500
C -16.984400 -9.463100 -17.410200
C -16.845000 -7.332600 -17.005500
N -16.752600 -10.728900 -17.825200
H -16.502500 -6.468700 -16.981400
N -16.179700 -8.376300 -17.584100
C -14.861800 -8.319500 -18.241400
H -14.823400 -8.991200 -18.940500
H -14.748600 -7.450100 -18.657200
H -13.839500 -9.422400 -16.885900
H -13.779600 -7.884900 -16.586400
C -13.748200 -8.550900 -17.277000
H -12.907900 -8.493600 -17.738500
