12
Fragment
O -26.805400 -11.616900 -24.954500
H -26.695000 -9.403600 -24.884200
C -25.947400 -10.929900 -24.470300
O -25.944600 -9.655200 -24.559300
H -24.807500 -12.433600 -23.728300
C -24.772500 -11.506300 -23.772000
H -23.933100 -9.908600 -23.119000
C -23.867600 -10.848900 -23.183100
C -22.708900 -11.422700 -22.480100
O -22.646500 -12.704400 -22.517000
H -21.889700 -12.999600 -22.228600
O -21.879300 -10.733100 -21.952200
21
Fragment
H -32.232700 -8.376100 -27.649100
H -31.998900 -6.843700 -27.399200
N -31.788900 -7.682200 -27.372600
C -30.595800 -7.971300 -26.858700
N -30.202900 -9.270300 -26.850300
N -29.793100 -5.628200 -26.237800
C -29.705800 -7.012600 -26.337000
C -29.000100 -9.557700 -26.351000
H -28.762800 -10.483200 -26.368200
C -28.644700 -5.300000 -25.713700
C -28.500700 -7.457500 -25.857400
H -28.324400 -4.440600 -25.509100
N -28.086900 -8.738300 -25.836900
N -27.807600 -6.351800 -25.464800
H -26.968300 -5.624700 -23.134700
H -26.962500 -7.165900 -23.181500
C -26.444800 -6.296900 -24.904500
C -26.437000 -6.398800 -23.425200
H -25.937800 -5.546400 -25.274700
H -25.883700 -6.991700 -25.321600
H -25.532700 -6.190700 -23.119000
33
Fragment
O -26.805400 -11.616900 -24.954500
H -26.695000 -9.403600 -24.884200
C -25.947400 -10.929900 -24.470300
O -25.944600 -9.655200 -24.559300
H -24.807500 -12.433600 -23.728300
C -24.772500 -11.506300 -23.772000
H -23.933100 -9.908600 -23.119000
C -23.867600 -10.848900 -23.183100
C -22.708900 -11.422700 -22.480100
O -22.646500 -12.704400 -22.517000
H -21.889700 -12.999600 -22.228600
O -21.879300 -10.733100 -21.952200
H -32.232700 -8.376100 -27.649100
H -31.998900 -6.843700 -27.399200
N -31.788900 -7.682200 -27.372600
C -30.595800 -7.971300 -26.858700
N -30.202900 -9.270300 -26.850300
N -29.793100 -5.628200 -26.237800
C -29.705800 -7.012600 -26.337000
C -29.000100 -9.557700 -26.351000
H -28.762800 -10.483200 -26.368200
C -28.644700 -5.300000 -25.713700
C -28.500700 -7.457500 -25.857400
H -28.324400 -4.440600 -25.509100
N -28.086900 -8.738300 -25.836900
N -27.807600 -6.351800 -25.464800
H -26.968300 -5.624700 -23.134700
H -26.962500 -7.165900 -23.181500
C -26.444800 -6.296900 -24.904500
C -26.437000 -6.398800 -23.425200
H -25.937800 -5.546400 -25.274700
H -25.883700 -6.991700 -25.321600
H -25.532700 -6.190700 -23.119000
