17
Fragment
O -15.959500 -34.376300 -11.641900
H -14.967200 -32.518500 -9.896900
C -14.945100 -34.237800 -10.980500
H -14.753300 -36.062400 -10.677700
H -14.526200 -32.296500 -11.412700
C -14.409100 -32.887300 -10.627200
O -14.255100 -35.247400 -10.495500
H -13.183200 -31.025500 -9.186900
C -12.961100 -32.808700 -10.194000
H -12.825100 -33.360900 -9.383800
H -12.755100 -30.825300 -10.711700
C -12.585500 -31.364800 -9.899000
H -12.379200 -33.164800 -10.911600
C -11.174300 -31.144000 -9.474200
O -10.896300 -29.886200 -9.219300
O -10.352100 -32.029100 -9.368100
H -9.981800 -29.779300 -8.894800
21
Fragment
H -12.529900 -40.708900 -9.500600
C -11.654000 -40.455600 -9.235000
N -11.371700 -39.172100 -9.361500
H -10.993800 -36.576200 -9.624300
N -10.879100 -41.451500 -8.784700
H -10.264300 -34.538700 -8.882000
H -10.235400 -35.571600 -7.660100
C -10.104600 -38.932900 -8.958400
C -10.024500 -36.456500 -9.461100
C -9.833800 -35.343500 -8.524500
C -9.616100 -41.172600 -8.373700
H -9.599200 -36.226000 -10.324500
N -9.464600 -37.720800 -8.977400
C -9.203300 -39.831900 -8.462200
H -9.177000 -42.985700 -7.915000
H -8.875900 -35.176700 -8.406200
N -8.858800 -42.165500 -7.935200
C -8.220200 -37.947600 -8.493000
H -8.037000 -42.005400 -7.664100
N -8.007400 -39.203200 -8.156100
H -7.564400 -37.266200 -8.404200
38
Fragment
O -15.959500 -34.376300 -11.641900
H -14.967200 -32.518500 -9.896900
C -14.945100 -34.237800 -10.980500
H -14.753300 -36.062400 -10.677700
H -14.526200 -32.296500 -11.412700
C -14.409100 -32.887300 -10.627200
O -14.255100 -35.247400 -10.495500
H -13.183200 -31.025500 -9.186900
C -12.961100 -32.808700 -10.194000
H -12.825100 -33.360900 -9.383800
H -12.755100 -30.825300 -10.711700
C -12.585500 -31.364800 -9.899000
H -12.379200 -33.164800 -10.911600
C -11.174300 -31.144000 -9.474200
O -10.896300 -29.886200 -9.219300
O -10.352100 -32.029100 -9.368100
H -9.981800 -29.779300 -8.894800
H -12.529900 -40.708900 -9.500600
C -11.654000 -40.455600 -9.235000
N -11.371700 -39.172100 -9.361500
H -10.993800 -36.576200 -9.624300
N -10.879100 -41.451500 -8.784700
H -10.264300 -34.538700 -8.882000
H -10.235400 -35.571600 -7.660100
C -10.104600 -38.932900 -8.958400
C -10.024500 -36.456500 -9.461100
C -9.833800 -35.343500 -8.524500
C -9.616100 -41.172600 -8.373700
H -9.599200 -36.226000 -10.324500
N -9.464600 -37.720800 -8.977400
C -9.203300 -39.831900 -8.462200
H -9.177000 -42.985700 -7.915000
H -8.875900 -35.176700 -8.406200
N -8.858800 -42.165500 -7.935200
C -8.220200 -37.947600 -8.493000
H -8.037000 -42.005400 -7.664100
N -8.007400 -39.203200 -8.156100
H -7.564400 -37.266200 -8.404200
