12
Fragment
O -26.805400 -11.616900 -24.954500
H -26.695000 -9.403600 -24.884200
C -25.947400 -10.929900 -24.470300
O -25.944600 -9.655200 -24.559300
H -24.807500 -12.433600 -23.728300
C -24.772500 -11.506300 -23.772000
H -23.933100 -9.908600 -23.119000
C -23.867600 -10.848900 -23.183100
C -22.708900 -11.422700 -22.480100
O -22.646500 -12.704400 -22.517000
H -21.889700 -12.999600 -22.228600
O -21.879300 -10.733100 -21.952200
21
Fragment
H -23.156600 -16.142800 -23.665800
H -22.770900 -16.882900 -21.478800
H -22.769800 -15.246000 -21.525700
C -22.309700 -16.067900 -21.794400
C -22.256000 -16.104500 -23.304900
H -21.731500 -15.350400 -23.665800
H -21.721700 -16.821900 -23.618900
N -20.956700 -16.015700 -21.211300
H -20.552300 -17.953800 -20.744700
N -20.483000 -13.634300 -21.307900
C -20.214400 -17.073600 -20.757200
C -20.173600 -14.916800 -21.035200
H -19.662800 -11.876300 -21.135200
C -19.499600 -12.809700 -20.944600
N -19.039100 -16.742700 -20.302700
C -19.003700 -15.367900 -20.472900
N -18.329700 -13.105800 -20.371300
C -18.038700 -14.411000 -20.129200
N -16.881800 -14.687800 -19.549700
H -16.726100 -15.515900 -19.323100
H -16.297400 -14.044400 -19.338800
33
Fragment
O -26.805400 -11.616900 -24.954500
H -26.695000 -9.403600 -24.884200
C -25.947400 -10.929900 -24.470300
O -25.944600 -9.655200 -24.559300
H -24.807500 -12.433600 -23.728300
C -24.772500 -11.506300 -23.772000
H -23.933100 -9.908600 -23.119000
C -23.867600 -10.848900 -23.183100
C -22.708900 -11.422700 -22.480100
O -22.646500 -12.704400 -22.517000
H -21.889700 -12.999600 -22.228600
O -21.879300 -10.733100 -21.952200
H -23.156600 -16.142800 -23.665800
H -22.770900 -16.882900 -21.478800
H -22.769800 -15.246000 -21.525700
C -22.309700 -16.067900 -21.794400
C -22.256000 -16.104500 -23.304900
H -21.731500 -15.350400 -23.665800
H -21.721700 -16.821900 -23.618900
N -20.956700 -16.015700 -21.211300
H -20.552300 -17.953800 -20.744700
N -20.483000 -13.634300 -21.307900
C -20.214400 -17.073600 -20.757200
C -20.173600 -14.916800 -21.035200
H -19.662800 -11.876300 -21.135200
C -19.499600 -12.809700 -20.944600
N -19.039100 -16.742700 -20.302700
C -19.003700 -15.367900 -20.472900
N -18.329700 -13.105800 -20.371300
C -18.038700 -14.411000 -20.129200
N -16.881800 -14.687800 -19.549700
H -16.726100 -15.515900 -19.323100
H -16.297400 -14.044400 -19.338800
