17
Fragment
O -15.959500 -34.376300 -11.641900
H -14.967200 -32.518500 -9.896900
C -14.945100 -34.237800 -10.980500
H -14.753300 -36.062400 -10.677700
H -14.526200 -32.296500 -11.412700
C -14.409100 -32.887300 -10.627200
O -14.255100 -35.247400 -10.495500
H -13.183200 -31.025500 -9.186900
C -12.961100 -32.808700 -10.194000
H -12.825100 -33.360900 -9.383800
H -12.755100 -30.825300 -10.711700
C -12.585500 -31.364800 -9.899000
H -12.379200 -33.164800 -10.911600
C -11.174300 -31.144000 -9.474200
O -10.896300 -29.886200 -9.219300
O -10.352100 -32.029100 -9.368100
H -9.981800 -29.779300 -8.894800
21
Fragment
H -22.198400 -28.531600 -12.778000
C -21.322500 -28.784900 -12.512400
N -21.040200 -30.068400 -12.638900
H -20.662300 -32.664300 -12.901700
N -20.547600 -27.789000 -12.062100
H -19.932800 -34.701800 -12.159400
H -19.903900 -33.668900 -10.937500
C -19.773100 -30.307600 -12.235800
C -19.693000 -32.784000 -12.738500
C -19.502300 -33.897000 -11.801800
C -19.284600 -28.067900 -11.651100
H -19.267700 -33.014500 -13.601900
N -19.133100 -31.519700 -12.254800
C -18.871800 -29.408600 -11.739600
H -18.845500 -26.254800 -11.192400
H -18.544400 -34.063800 -11.683600
N -18.527300 -27.075000 -11.212600
C -17.888700 -31.292900 -11.770400
H -17.705500 -27.235100 -10.941500
N -17.675900 -30.037300 -11.433500
H -17.232900 -31.974300 -11.681600
38
Fragment
O -15.959500 -34.376300 -11.641900
H -14.967200 -32.518500 -9.896900
C -14.945100 -34.237800 -10.980500
H -14.753300 -36.062400 -10.677700
H -14.526200 -32.296500 -11.412700
C -14.409100 -32.887300 -10.627200
O -14.255100 -35.247400 -10.495500
H -13.183200 -31.025500 -9.186900
C -12.961100 -32.808700 -10.194000
H -12.825100 -33.360900 -9.383800
H -12.755100 -30.825300 -10.711700
C -12.585500 -31.364800 -9.899000
H -12.379200 -33.164800 -10.911600
C -11.174300 -31.144000 -9.474200
O -10.896300 -29.886200 -9.219300
O -10.352100 -32.029100 -9.368100
H -9.981800 -29.779300 -8.894800
H -22.198400 -28.531600 -12.778000
C -21.322500 -28.784900 -12.512400
N -21.040200 -30.068400 -12.638900
H -20.662300 -32.664300 -12.901700
N -20.547600 -27.789000 -12.062100
H -19.932800 -34.701800 -12.159400
H -19.903900 -33.668900 -10.937500
C -19.773100 -30.307600 -12.235800
C -19.693000 -32.784000 -12.738500
C -19.502300 -33.897000 -11.801800
C -19.284600 -28.067900 -11.651100
H -19.267700 -33.014500 -13.601900
N -19.133100 -31.519700 -12.254800
C -18.871800 -29.408600 -11.739600
H -18.845500 -26.254800 -11.192400
H -18.544400 -34.063800 -11.683600
N -18.527300 -27.075000 -11.212600
C -17.888700 -31.292900 -11.770400
H -17.705500 -27.235100 -10.941500
N -17.675900 -30.037300 -11.433500
H -17.232900 -31.974300 -11.681600
