17
Fragment
O -15.959500 -34.376300 -11.641900
H -14.967200 -32.518500 -9.896900
C -14.945100 -34.237800 -10.980500
H -14.753300 -36.062400 -10.677700
H -14.526200 -32.296500 -11.412700
C -14.409100 -32.887300 -10.627200
O -14.255100 -35.247400 -10.495500
H -13.183200 -31.025500 -9.186900
C -12.961100 -32.808700 -10.194000
H -12.825100 -33.360900 -9.383800
H -12.755100 -30.825300 -10.711700
C -12.585500 -31.364800 -9.899000
H -12.379200 -33.164800 -10.911600
C -11.174300 -31.144000 -9.474200
O -10.896300 -29.886200 -9.219300
O -10.352100 -32.029100 -9.368100
H -9.981800 -29.779300 -8.894800
17
Fragment
H -16.191400 -29.569700 -10.769500
O -15.821100 -27.319900 -10.296200
O -15.276900 -29.462800 -10.445000
C -14.998800 -28.205000 -10.190000
H -13.793900 -26.184200 -8.752600
C -13.587600 -27.984200 -9.765300
H -13.418100 -28.523700 -8.952500
H -13.348100 -25.988100 -10.280500
C -13.212000 -26.540300 -9.470300
H -12.990000 -28.323500 -10.477400
O -11.918100 -24.101600 -9.168800
C -11.764100 -26.461700 -9.037000
H -11.646900 -27.052500 -8.251500
H -11.419900 -23.286600 -8.986600
C -11.228000 -25.111200 -8.683700
H -11.206000 -26.830500 -9.767400
O -10.213700 -24.972700 -8.022400
34
Fragment
O -15.959500 -34.376300 -11.641900
H -14.967200 -32.518500 -9.896900
C -14.945100 -34.237800 -10.980500
H -14.753300 -36.062400 -10.677700
H -14.526200 -32.296500 -11.412700
C -14.409100 -32.887300 -10.627200
O -14.255100 -35.247400 -10.495500
H -13.183200 -31.025500 -9.186900
C -12.961100 -32.808700 -10.194000
H -12.825100 -33.360900 -9.383800
H -12.755100 -30.825300 -10.711700
C -12.585500 -31.364800 -9.899000
H -12.379200 -33.164800 -10.911600
C -11.174300 -31.144000 -9.474200
O -10.896300 -29.886200 -9.219300
O -10.352100 -32.029100 -9.368100
H -9.981800 -29.779300 -8.894800
H -16.191400 -29.569700 -10.769500
O -15.821100 -27.319900 -10.296200
O -15.276900 -29.462800 -10.445000
C -14.998800 -28.205000 -10.190000
H -13.793900 -26.184200 -8.752600
C -13.587600 -27.984200 -9.765300
H -13.418100 -28.523700 -8.952500
H -13.348100 -25.988100 -10.280500
C -13.212000 -26.540300 -9.470300
H -12.990000 -28.323500 -10.477400
O -11.918100 -24.101600 -9.168800
C -11.764100 -26.461700 -9.037000
H -11.646900 -27.052500 -8.251500
H -11.419900 -23.286600 -8.986600
C -11.228000 -25.111200 -8.683700
H -11.206000 -26.830500 -9.767400
O -10.213700 -24.972700 -8.022400
