34
Fragment
H -13.701700 -31.013900 -44.406200
H -12.990100 -31.975800 -43.366700
C -12.848100 -31.366300 -44.108900
H -12.422500 -31.840600 -44.839800
N -11.993500 -30.268700 -43.679700
N -11.875100 -29.170100 -44.482100
C -11.243000 -30.208300 -42.581300
H -11.185300 -30.856500 -41.902700
C -10.994700 -28.394100 -43.837900
N -10.592700 -27.174700 -44.318000
C -10.563600 -29.000000 -42.637400
C -9.721500 -26.522300 -43.588200
C -9.612100 -28.277600 -41.870900
H -9.533500 -24.984300 -44.687700
N -9.255300 -27.059500 -42.387500
N -9.232700 -25.344600 -43.933000
N -8.956900 -28.489100 -40.745800
H -8.713700 -24.895300 -43.437000
N -8.334700 -26.456000 -41.572000
C -8.199500 -27.351200 -40.605500
H -7.511800 -28.978900 -38.645500
C -7.297500 -27.134000 -39.459200
C -7.091000 -28.145500 -38.531300
H -6.777800 -25.225700 -39.932500
C -6.655900 -25.906800 -39.295800
C -6.267800 -27.933900 -37.436400
H -6.125200 -28.621200 -36.811500
C -5.841100 -25.690800 -38.199300
C -5.656600 -26.705200 -37.268200
F -5.645200 -25.961200 -35.042000
H -5.414300 -24.861100 -38.084900
C -4.867800 -26.421100 -36.028900
F -4.263000 -27.496500 -35.532000
F -3.930000 -25.502400 -36.210200
34
Fragment
H -7.632700 -28.888200 -33.057300
H -6.921200 -27.926400 -32.017700
C -6.779200 -28.535800 -32.759900
H -6.353600 -28.061600 -33.490800
N -5.924500 -29.633400 -32.330700
N -5.806200 -30.732000 -33.133100
C -5.174000 -29.693800 -31.232400
H -5.116400 -29.045700 -30.553700
C -4.925700 -31.508000 -32.488900
N -4.523700 -32.727500 -32.969000
C -4.494700 -30.902100 -31.288400
C -3.652500 -33.379900 -32.239200
C -3.543100 -31.624600 -30.521900
H -3.464600 -34.917800 -33.338700
N -3.186400 -32.842600 -31.038500
N -3.163800 -34.557600 -32.584000
N -2.887900 -31.413000 -29.396800
H -2.644800 -35.006800 -32.088100
N -2.265800 -33.446100 -30.223000
C -2.130600 -32.551000 -29.256500
H -1.442900 -30.923200 -27.296500
C -1.228500 -32.768200 -28.110300
C -1.022100 -31.756700 -27.182400
H -0.708800 -34.676500 -28.583500
C -0.587000 -33.995300 -27.946800
C -0.198800 -31.968200 -26.087400
H -0.056300 -31.280900 -25.462500
C 0.227800 -34.211300 -26.850300
C 0.412300 -33.196900 -25.919200
F 0.423700 -33.940900 -23.693000
H 0.654600 -35.041000 -26.735900
C 1.201100 -33.481000 -24.679900
F 1.805900 -32.405700 -24.183100
F 2.138900 -34.399800 -24.861300
68
Fragment
H -13.701700 -31.013900 -44.406200
H -12.990100 -31.975800 -43.366700
C -12.848100 -31.366300 -44.108900
H -12.422500 -31.840600 -44.839800
N -11.993500 -30.268700 -43.679700
N -11.875100 -29.170100 -44.482100
C -11.243000 -30.208300 -42.581300
H -11.185300 -30.856500 -41.902700
C -10.994700 -28.394100 -43.837900
N -10.592700 -27.174700 -44.318000
C -10.563600 -29.000000 -42.637400
C -9.721500 -26.522300 -43.588200
C -9.612100 -28.277600 -41.870900
H -9.533500 -24.984300 -44.687700
N -9.255300 -27.059500 -42.387500
N -9.232700 -25.344600 -43.933000
N -8.956900 -28.489100 -40.745800
H -8.713700 -24.895300 -43.437000
N -8.334700 -26.456000 -41.572000
C -8.199500 -27.351200 -40.605500
H -7.511800 -28.978900 -38.645500
C -7.297500 -27.134000 -39.459200
C -7.091000 -28.145500 -38.531300
H -6.777800 -25.225700 -39.932500
C -6.655900 -25.906800 -39.295800
C -6.267800 -27.933900 -37.436400
H -6.125200 -28.621200 -36.811500
C -5.841100 -25.690800 -38.199300
C -5.656600 -26.705200 -37.268200
F -5.645200 -25.961200 -35.042000
H -5.414300 -24.861100 -38.084900
C -4.867800 -26.421100 -36.028900
F -4.263000 -27.496500 -35.532000
F -3.930000 -25.502400 -36.210200
H -7.632700 -28.888200 -33.057300
H -6.921200 -27.926400 -32.017700
C -6.779200 -28.535800 -32.759900
H -6.353600 -28.061600 -33.490800
N -5.924500 -29.633400 -32.330700
N -5.806200 -30.732000 -33.133100
C -5.174000 -29.693800 -31.232400
H -5.116400 -29.045700 -30.553700
C -4.925700 -31.508000 -32.488900
N -4.523700 -32.727500 -32.969000
C -4.494700 -30.902100 -31.288400
C -3.652500 -33.379900 -32.239200
C -3.543100 -31.624600 -30.521900
H -3.464600 -34.917800 -33.338700
N -3.186400 -32.842600 -31.038500
N -3.163800 -34.557600 -32.584000
N -2.887900 -31.413000 -29.396800
H -2.644800 -35.006800 -32.088100
N -2.265800 -33.446100 -30.223000
C -2.130600 -32.551000 -29.256500
H -1.442900 -30.923200 -27.296500
C -1.228500 -32.768200 -28.110300
C -1.022100 -31.756700 -27.182400
H -0.708800 -34.676500 -28.583500
C -0.587000 -33.995300 -27.946800
C -0.198800 -31.968200 -26.087400
H -0.056300 -31.280900 -25.462500
C 0.227800 -34.211300 -26.850300
C 0.412300 -33.196900 -25.919200
F 0.423700 -33.940900 -23.693000
H 0.654600 -35.041000 -26.735900
C 1.201100 -33.481000 -24.679900
F 1.805900 -32.405700 -24.183100
F 2.138900 -34.399800 -24.861300
