34
Fragment
H -13.701700 -31.013900 -44.406200
H -12.990100 -31.975800 -43.366700
C -12.848100 -31.366300 -44.108900
H -12.422500 -31.840600 -44.839800
N -11.993500 -30.268700 -43.679700
N -11.875100 -29.170100 -44.482100
C -11.243000 -30.208300 -42.581300
H -11.185300 -30.856500 -41.902700
C -10.994700 -28.394100 -43.837900
N -10.592700 -27.174700 -44.318000
C -10.563600 -29.000000 -42.637400
C -9.721500 -26.522300 -43.588200
C -9.612100 -28.277600 -41.870900
H -9.533500 -24.984300 -44.687700
N -9.255300 -27.059500 -42.387500
N -9.232700 -25.344600 -43.933000
N -8.956900 -28.489100 -40.745800
H -8.713700 -24.895300 -43.437000
N -8.334700 -26.456000 -41.572000
C -8.199500 -27.351200 -40.605500
H -7.511800 -28.978900 -38.645500
C -7.297500 -27.134000 -39.459200
C -7.091000 -28.145500 -38.531300
H -6.777800 -25.225700 -39.932500
C -6.655900 -25.906800 -39.295800
C -6.267800 -27.933900 -37.436400
H -6.125200 -28.621200 -36.811500
C -5.841100 -25.690800 -38.199300
C -5.656600 -26.705200 -37.268200
F -5.645200 -25.961200 -35.042000
H -5.414300 -24.861100 -38.084900
C -4.867800 -26.421100 -36.028900
F -4.263000 -27.496500 -35.532000
F -3.930000 -25.502400 -36.210200
16
Fragment
N -19.021600 -33.446100 -52.920900
C -18.886400 -32.551000 -51.954400
H -18.198700 -30.923200 -49.994500
C -17.984300 -32.768200 -50.808200
C -17.777900 -31.756700 -49.880300
H -17.464600 -34.676500 -51.281500
C -17.342800 -33.995300 -50.644800
C -16.954600 -31.968200 -48.785400
H -16.812000 -31.280900 -48.160500
C -16.528000 -34.211300 -49.548200
C -16.343400 -33.196900 -48.617200
F -16.332100 -33.940900 -46.391000
H -16.101100 -35.041000 -49.433800
C -15.554600 -33.481000 -47.377900
F -14.949800 -32.405700 -46.881000
F -14.616900 -34.399800 -47.559200
50
Fragment
H -13.701700 -31.013900 -44.406200
H -12.990100 -31.975800 -43.366700
C -12.848100 -31.366300 -44.108900
H -12.422500 -31.840600 -44.839800
N -11.993500 -30.268700 -43.679700
N -11.875100 -29.170100 -44.482100
C -11.243000 -30.208300 -42.581300
H -11.185300 -30.856500 -41.902700
C -10.994700 -28.394100 -43.837900
N -10.592700 -27.174700 -44.318000
C -10.563600 -29.000000 -42.637400
C -9.721500 -26.522300 -43.588200
C -9.612100 -28.277600 -41.870900
H -9.533500 -24.984300 -44.687700
N -9.255300 -27.059500 -42.387500
N -9.232700 -25.344600 -43.933000
N -8.956900 -28.489100 -40.745800
H -8.713700 -24.895300 -43.437000
N -8.334700 -26.456000 -41.572000
C -8.199500 -27.351200 -40.605500
H -7.511800 -28.978900 -38.645500
C -7.297500 -27.134000 -39.459200
C -7.091000 -28.145500 -38.531300
H -6.777800 -25.225700 -39.932500
C -6.655900 -25.906800 -39.295800
C -6.267800 -27.933900 -37.436400
H -6.125200 -28.621200 -36.811500
C -5.841100 -25.690800 -38.199300
C -5.656600 -26.705200 -37.268200
F -5.645200 -25.961200 -35.042000
H -5.414300 -24.861100 -38.084900
C -4.867800 -26.421100 -36.028900
F -4.263000 -27.496500 -35.532000
F -3.930000 -25.502400 -36.210200
N -19.021600 -33.446100 -52.920900
C -18.886400 -32.551000 -51.954400
H -18.198700 -30.923200 -49.994500
C -17.984300 -32.768200 -50.808200
C -17.777900 -31.756700 -49.880300
H -17.464600 -34.676500 -51.281500
C -17.342800 -33.995300 -50.644800
C -16.954600 -31.968200 -48.785400
H -16.812000 -31.280900 -48.160500
C -16.528000 -34.211300 -49.548200
C -16.343400 -33.196900 -48.617200
F -16.332100 -33.940900 -46.391000
H -16.101100 -35.041000 -49.433800
C -15.554600 -33.481000 -47.377900
F -14.949800 -32.405700 -46.881000
F -14.616900 -34.399800 -47.559200
