34
Fragment
H -13.701700 -31.013900 -44.406200
H -12.990100 -31.975800 -43.366700
C -12.848100 -31.366300 -44.108900
H -12.422500 -31.840600 -44.839800
N -11.993500 -30.268700 -43.679700
N -11.875100 -29.170100 -44.482100
C -11.243000 -30.208300 -42.581300
H -11.185300 -30.856500 -41.902700
C -10.994700 -28.394100 -43.837900
N -10.592700 -27.174700 -44.318000
C -10.563600 -29.000000 -42.637400
C -9.721500 -26.522300 -43.588200
C -9.612100 -28.277600 -41.870900
H -9.533500 -24.984300 -44.687700
N -9.255300 -27.059500 -42.387500
N -9.232700 -25.344600 -43.933000
N -8.956900 -28.489100 -40.745800
H -8.713700 -24.895300 -43.437000
N -8.334700 -26.456000 -41.572000
C -8.199500 -27.351200 -40.605500
H -7.511800 -28.978900 -38.645500
C -7.297500 -27.134000 -39.459200
C -7.091000 -28.145500 -38.531300
H -6.777800 -25.225700 -39.932500
C -6.655900 -25.906800 -39.295800
C -6.267800 -27.933900 -37.436400
H -6.125200 -28.621200 -36.811500
C -5.841100 -25.690800 -38.199300
C -5.656600 -26.705200 -37.268200
F -5.645200 -25.961200 -35.042000
H -5.414300 -24.861100 -38.084900
C -4.867800 -26.421100 -36.028900
F -4.263000 -27.496500 -35.532000
F -3.930000 -25.502400 -36.210200
34
Fragment
H -18.319600 -31.013900 -44.406200
H -17.608000 -31.975800 -43.366700
C -17.466000 -31.366300 -44.108900
H -17.040400 -31.840600 -44.839800
N -16.611400 -30.268700 -43.679700
N -16.493000 -29.170100 -44.482100
C -15.860900 -30.208300 -42.581300
H -15.803200 -30.856500 -41.902700
C -15.612600 -28.394100 -43.837900
N -15.210600 -27.174700 -44.318000
C -15.181500 -29.000000 -42.637400
C -14.339400 -26.522300 -43.588200
C -14.230000 -28.277600 -41.870900
H -14.151400 -24.984300 -44.687700
N -13.873200 -27.059500 -42.387500
N -13.850600 -25.344600 -43.933000
N -13.574800 -28.489100 -40.745800
H -13.331600 -24.895300 -43.437000
N -12.952600 -26.456000 -41.572000
C -12.817400 -27.351200 -40.605500
H -12.129700 -28.978900 -38.645500
C -11.915400 -27.134000 -39.459200
C -11.708900 -28.145500 -38.531300
H -11.395700 -25.225700 -39.932500
C -11.273800 -25.906800 -39.295800
C -10.885700 -27.933900 -37.436400
H -10.743100 -28.621200 -36.811500
C -10.459000 -25.690800 -38.199300
C -10.274500 -26.705200 -37.268200
F -10.263100 -25.961200 -35.042000
H -10.032200 -24.861100 -38.084900
C -9.485700 -26.421100 -36.028900
F -8.880900 -27.496500 -35.532000
F -8.547900 -25.502400 -36.210200
68
Fragment
H -13.701700 -31.013900 -44.406200
H -12.990100 -31.975800 -43.366700
C -12.848100 -31.366300 -44.108900
H -12.422500 -31.840600 -44.839800
N -11.993500 -30.268700 -43.679700
N -11.875100 -29.170100 -44.482100
C -11.243000 -30.208300 -42.581300
H -11.185300 -30.856500 -41.902700
C -10.994700 -28.394100 -43.837900
N -10.592700 -27.174700 -44.318000
C -10.563600 -29.000000 -42.637400
C -9.721500 -26.522300 -43.588200
C -9.612100 -28.277600 -41.870900
H -9.533500 -24.984300 -44.687700
N -9.255300 -27.059500 -42.387500
N -9.232700 -25.344600 -43.933000
N -8.956900 -28.489100 -40.745800
H -8.713700 -24.895300 -43.437000
N -8.334700 -26.456000 -41.572000
C -8.199500 -27.351200 -40.605500
H -7.511800 -28.978900 -38.645500
C -7.297500 -27.134000 -39.459200
C -7.091000 -28.145500 -38.531300
H -6.777800 -25.225700 -39.932500
C -6.655900 -25.906800 -39.295800
C -6.267800 -27.933900 -37.436400
H -6.125200 -28.621200 -36.811500
C -5.841100 -25.690800 -38.199300
C -5.656600 -26.705200 -37.268200
F -5.645200 -25.961200 -35.042000
H -5.414300 -24.861100 -38.084900
C -4.867800 -26.421100 -36.028900
F -4.263000 -27.496500 -35.532000
F -3.930000 -25.502400 -36.210200
H -18.319600 -31.013900 -44.406200
H -17.608000 -31.975800 -43.366700
C -17.466000 -31.366300 -44.108900
H -17.040400 -31.840600 -44.839800
N -16.611400 -30.268700 -43.679700
N -16.493000 -29.170100 -44.482100
C -15.860900 -30.208300 -42.581300
H -15.803200 -30.856500 -41.902700
C -15.612600 -28.394100 -43.837900
N -15.210600 -27.174700 -44.318000
C -15.181500 -29.000000 -42.637400
C -14.339400 -26.522300 -43.588200
C -14.230000 -28.277600 -41.870900
H -14.151400 -24.984300 -44.687700
N -13.873200 -27.059500 -42.387500
N -13.850600 -25.344600 -43.933000
N -13.574800 -28.489100 -40.745800
H -13.331600 -24.895300 -43.437000
N -12.952600 -26.456000 -41.572000
C -12.817400 -27.351200 -40.605500
H -12.129700 -28.978900 -38.645500
C -11.915400 -27.134000 -39.459200
C -11.708900 -28.145500 -38.531300
H -11.395700 -25.225700 -39.932500
C -11.273800 -25.906800 -39.295800
C -10.885700 -27.933900 -37.436400
H -10.743100 -28.621200 -36.811500
C -10.459000 -25.690800 -38.199300
C -10.274500 -26.705200 -37.268200
F -10.263100 -25.961200 -35.042000
H -10.032200 -24.861100 -38.084900
C -9.485700 -26.421100 -36.028900
F -8.880900 -27.496500 -35.532000
F -8.547900 -25.502400 -36.210200
