34
Fragment
H -13.701700 -31.013900 -44.406200
H -12.990100 -31.975800 -43.366700
C -12.848100 -31.366300 -44.108900
H -12.422500 -31.840600 -44.839800
N -11.993500 -30.268700 -43.679700
N -11.875100 -29.170100 -44.482100
C -11.243000 -30.208300 -42.581300
H -11.185300 -30.856500 -41.902700
C -10.994700 -28.394100 -43.837900
N -10.592700 -27.174700 -44.318000
C -10.563600 -29.000000 -42.637400
C -9.721500 -26.522300 -43.588200
C -9.612100 -28.277600 -41.870900
H -9.533500 -24.984300 -44.687700
N -9.255300 -27.059500 -42.387500
N -9.232700 -25.344600 -43.933000
N -8.956900 -28.489100 -40.745800
H -8.713700 -24.895300 -43.437000
N -8.334700 -26.456000 -41.572000
C -8.199500 -27.351200 -40.605500
H -7.511800 -28.978900 -38.645500
C -7.297500 -27.134000 -39.459200
C -7.091000 -28.145500 -38.531300
H -6.777800 -25.225700 -39.932500
C -6.655900 -25.906800 -39.295800
C -6.267800 -27.933900 -37.436400
H -6.125200 -28.621200 -36.811500
C -5.841100 -25.690800 -38.199300
C -5.656600 -26.705200 -37.268200
F -5.645200 -25.961200 -35.042000
H -5.414300 -24.861100 -38.084900
C -4.867800 -26.421100 -36.028900
F -4.263000 -27.496500 -35.532000
F -3.930000 -25.502400 -36.210200
34
Fragment
F -9.394100 -25.842300 -31.883600
F -9.061100 -23.848200 -32.561800
C -8.456300 -24.923600 -32.064900
H -7.909800 -26.483600 -30.008900
F -7.678900 -25.383500 -33.051800
C -7.667500 -24.639500 -30.825600
C -7.483000 -25.653900 -29.894500
H -7.198900 -22.723500 -31.282300
C -7.056400 -23.410800 -30.657400
C -6.668200 -25.437900 -28.798000
H -6.546400 -26.119000 -28.161300
C -6.233100 -23.199200 -29.562500
C -6.026600 -24.210700 -28.634600
H -5.812300 -22.365800 -29.448300
C -5.124600 -23.993500 -27.488300
N -4.989400 -24.888700 -26.521900
H -4.610400 -26.449400 -24.656800
N -4.367200 -22.855600 -27.348100
N -4.091400 -26.000100 -24.160800
N -4.068800 -24.285200 -25.706300
H -3.790600 -26.360400 -23.406100
C -3.712000 -23.067100 -26.222900
C -3.602600 -24.822400 -24.505600
C -2.760500 -22.344700 -25.456400
N -2.731500 -24.170000 -23.775900
C -2.329400 -22.950600 -24.255900
H -2.138800 -20.488200 -26.191200
C -2.081100 -21.136400 -25.512500
N -1.449000 -22.174600 -23.611800
N -1.330600 -21.076000 -24.414100
H -0.901600 -19.504100 -23.254000
C -0.476000 -19.978400 -23.984900
H -0.334000 -19.368900 -24.727100
H 0.377600 -20.330800 -23.687600
68
Fragment
H -13.701700 -31.013900 -44.406200
H -12.990100 -31.975800 -43.366700
C -12.848100 -31.366300 -44.108900
H -12.422500 -31.840600 -44.839800
N -11.993500 -30.268700 -43.679700
N -11.875100 -29.170100 -44.482100
C -11.243000 -30.208300 -42.581300
H -11.185300 -30.856500 -41.902700
C -10.994700 -28.394100 -43.837900
N -10.592700 -27.174700 -44.318000
C -10.563600 -29.000000 -42.637400
C -9.721500 -26.522300 -43.588200
C -9.612100 -28.277600 -41.870900
H -9.533500 -24.984300 -44.687700
N -9.255300 -27.059500 -42.387500
N -9.232700 -25.344600 -43.933000
N -8.956900 -28.489100 -40.745800
H -8.713700 -24.895300 -43.437000
N -8.334700 -26.456000 -41.572000
C -8.199500 -27.351200 -40.605500
H -7.511800 -28.978900 -38.645500
C -7.297500 -27.134000 -39.459200
C -7.091000 -28.145500 -38.531300
H -6.777800 -25.225700 -39.932500
C -6.655900 -25.906800 -39.295800
C -6.267800 -27.933900 -37.436400
H -6.125200 -28.621200 -36.811500
C -5.841100 -25.690800 -38.199300
C -5.656600 -26.705200 -37.268200
F -5.645200 -25.961200 -35.042000
H -5.414300 -24.861100 -38.084900
C -4.867800 -26.421100 -36.028900
F -4.263000 -27.496500 -35.532000
F -3.930000 -25.502400 -36.210200
F -9.394100 -25.842300 -31.883600
F -9.061100 -23.848200 -32.561800
C -8.456300 -24.923600 -32.064900
H -7.909800 -26.483600 -30.008900
F -7.678900 -25.383500 -33.051800
C -7.667500 -24.639500 -30.825600
C -7.483000 -25.653900 -29.894500
H -7.198900 -22.723500 -31.282300
C -7.056400 -23.410800 -30.657400
C -6.668200 -25.437900 -28.798000
H -6.546400 -26.119000 -28.161300
C -6.233100 -23.199200 -29.562500
C -6.026600 -24.210700 -28.634600
H -5.812300 -22.365800 -29.448300
C -5.124600 -23.993500 -27.488300
N -4.989400 -24.888700 -26.521900
H -4.610400 -26.449400 -24.656800
N -4.367200 -22.855600 -27.348100
N -4.091400 -26.000100 -24.160800
N -4.068800 -24.285200 -25.706300
H -3.790600 -26.360400 -23.406100
C -3.712000 -23.067100 -26.222900
C -3.602600 -24.822400 -24.505600
C -2.760500 -22.344700 -25.456400
N -2.731500 -24.170000 -23.775900
C -2.329400 -22.950600 -24.255900
H -2.138800 -20.488200 -26.191200
C -2.081100 -21.136400 -25.512500
N -1.449000 -22.174600 -23.611800
N -1.330600 -21.076000 -24.414100
H -0.901600 -19.504100 -23.254000
C -0.476000 -19.978400 -23.984900
H -0.334000 -19.368900 -24.727100
H 0.377600 -20.330800 -23.687600
