29
Fragment
H -14.012300 -10.158700 -19.948400
H -13.473400 -12.200100 -18.970000
C -13.254500 -10.645600 -20.250400
C -12.929400 -11.848600 -19.665700
H -12.704400 -9.324700 -21.695000
C -12.476500 -10.148900 -21.280600
C -11.811100 -12.547200 -20.087500
H -11.589300 -13.372500 -19.671600
C -11.356100 -10.860600 -21.706800
C -11.011200 -12.058100 -21.108900
H -10.824200 -10.518900 -22.415900
H -10.772300 -18.001000 -21.373800
H -10.102200 -13.601700 -22.124300
N -10.032100 -17.908200 -20.694700
C -9.797400 -12.826700 -21.589900
H -9.742800 -19.839300 -20.047600
N -9.632600 -15.511000 -20.747000
C -9.482200 -18.930000 -19.954300
C -9.398800 -16.765300 -20.278500
H -9.265900 -12.241500 -22.184900
N -8.937400 -13.307200 -20.514100
C -8.863000 -14.609300 -20.151200
N -8.564400 -18.529500 -19.107500
C -8.514500 -17.153900 -19.308700
H -8.427300 -12.652000 -20.012000
N -7.957600 -14.905100 -19.154000
C -7.716600 -16.184500 -18.648800
H -7.354900 -14.213000 -18.753900
O -6.878200 -16.351000 -17.749300
29
Fragment
O -17.592700 -10.892800 -19.255200
H -17.116100 -8.754900 -18.250600
C -16.754300 -10.726400 -18.355700
N -16.513400 -9.447000 -17.850500
H -16.043600 -7.193800 -16.992500
C -15.956500 -11.695700 -17.695900
N -15.906600 -13.071400 -17.897000
C -15.607900 -9.151100 -16.853300
N -15.533600 -7.849000 -16.490400
H -15.205100 -6.783400 -14.819600
C -15.072100 -11.307100 -16.726000
C -14.988700 -13.471800 -17.050200
N -14.838400 -10.052800 -16.257600
H -14.728200 -14.381100 -16.956900
C -14.673600 -7.368500 -15.414600
N -14.438800 -12.450000 -16.309800
H -14.368700 -8.143600 -14.880300
H -13.698600 -12.542800 -15.630700
H -13.646800 -5.060800 -14.588700
C -13.459700 -6.600000 -15.895700
C -13.114900 -5.402500 -15.297700
H -12.881700 -7.914300 -17.332900
C -12.659900 -7.089000 -16.917000
C -11.994400 -4.690700 -15.724000
H -11.766500 -3.866600 -15.309500
C -11.541500 -6.390400 -17.338800
C -11.216400 -5.187400 -16.754200
H -10.997500 -6.741900 -18.034500
H -10.458600 -4.700600 -17.056100
58
Fragment
H -14.012300 -10.158700 -19.948400
H -13.473400 -12.200100 -18.970000
C -13.254500 -10.645600 -20.250400
C -12.929400 -11.848600 -19.665700
H -12.704400 -9.324700 -21.695000
C -12.476500 -10.148900 -21.280600
C -11.811100 -12.547200 -20.087500
H -11.589300 -13.372500 -19.671600
C -11.356100 -10.860600 -21.706800
C -11.011200 -12.058100 -21.108900
H -10.824200 -10.518900 -22.415900
H -10.772300 -18.001000 -21.373800
H -10.102200 -13.601700 -22.124300
N -10.032100 -17.908200 -20.694700
C -9.797400 -12.826700 -21.589900
H -9.742800 -19.839300 -20.047600
N -9.632600 -15.511000 -20.747000
C -9.482200 -18.930000 -19.954300
C -9.398800 -16.765300 -20.278500
H -9.265900 -12.241500 -22.184900
N -8.937400 -13.307200 -20.514100
C -8.863000 -14.609300 -20.151200
N -8.564400 -18.529500 -19.107500
C -8.514500 -17.153900 -19.308700
H -8.427300 -12.652000 -20.012000
N -7.957600 -14.905100 -19.154000
C -7.716600 -16.184500 -18.648800
H -7.354900 -14.213000 -18.753900
O -6.878200 -16.351000 -17.749300
O -17.592700 -10.892800 -19.255200
H -17.116100 -8.754900 -18.250600
C -16.754300 -10.726400 -18.355700
N -16.513400 -9.447000 -17.850500
H -16.043600 -7.193800 -16.992500
C -15.956500 -11.695700 -17.695900
N -15.906600 -13.071400 -17.897000
C -15.607900 -9.151100 -16.853300
N -15.533600 -7.849000 -16.490400
H -15.205100 -6.783400 -14.819600
C -15.072100 -11.307100 -16.726000
C -14.988700 -13.471800 -17.050200
N -14.838400 -10.052800 -16.257600
H -14.728200 -14.381100 -16.956900
C -14.673600 -7.368500 -15.414600
N -14.438800 -12.450000 -16.309800
H -14.368700 -8.143600 -14.880300
H -13.698600 -12.542800 -15.630700
H -13.646800 -5.060800 -14.588700
C -13.459700 -6.600000 -15.895700
C -13.114900 -5.402500 -15.297700
H -12.881700 -7.914300 -17.332900
C -12.659900 -7.089000 -16.917000
C -11.994400 -4.690700 -15.724000
H -11.766500 -3.866600 -15.309500
C -11.541500 -6.390400 -17.338800
C -11.216400 -5.187400 -16.754200
H -10.997500 -6.741900 -18.034500
H -10.458600 -4.700600 -17.056100
