29
Fragment
H -14.012300 -10.158700 -19.948400
H -13.473400 -12.200100 -18.970000
C -13.254500 -10.645600 -20.250400
C -12.929400 -11.848600 -19.665700
H -12.704400 -9.324700 -21.695000
C -12.476500 -10.148900 -21.280600
C -11.811100 -12.547200 -20.087500
H -11.589300 -13.372500 -19.671600
C -11.356100 -10.860600 -21.706800
C -11.011200 -12.058100 -21.108900
H -10.824200 -10.518900 -22.415900
H -10.772300 -18.001000 -21.373800
H -10.102200 -13.601700 -22.124300
N -10.032100 -17.908200 -20.694700
C -9.797400 -12.826700 -21.589900
H -9.742800 -19.839300 -20.047600
N -9.632600 -15.511000 -20.747000
C -9.482200 -18.930000 -19.954300
C -9.398800 -16.765300 -20.278500
H -9.265900 -12.241500 -22.184900
N -8.937400 -13.307200 -20.514100
C -8.863000 -14.609300 -20.151200
N -8.564400 -18.529500 -19.107500
C -8.514500 -17.153900 -19.308700
H -8.427300 -12.652000 -20.012000
N -7.957600 -14.905100 -19.154000
C -7.716600 -16.184500 -18.648800
H -7.354900 -14.213000 -18.753900
O -6.878200 -16.351000 -17.749300
12
Fragment
H -14.652300 -5.905700 -24.408200
H -13.824700 -3.465900 -24.092900
C -13.713000 -6.096800 -24.612400
H -13.550600 -5.955900 -25.568600
H -13.511600 -7.027900 -24.381500
C -12.907200 -3.798900 -24.186200
N -12.867300 -5.218400 -23.846900
H -12.608200 -3.676600 -25.111300
H -12.316200 -3.302200 -23.583700
C -12.064600 -5.678700 -22.916200
O -11.981700 -6.875000 -22.568500
H -11.504000 -5.053200 -22.470600
41
Fragment
H -14.012300 -10.158700 -19.948400
H -13.473400 -12.200100 -18.970000
C -13.254500 -10.645600 -20.250400
C -12.929400 -11.848600 -19.665700
H -12.704400 -9.324700 -21.695000
C -12.476500 -10.148900 -21.280600
C -11.811100 -12.547200 -20.087500
H -11.589300 -13.372500 -19.671600
C -11.356100 -10.860600 -21.706800
C -11.011200 -12.058100 -21.108900
H -10.824200 -10.518900 -22.415900
H -10.772300 -18.001000 -21.373800
H -10.102200 -13.601700 -22.124300
N -10.032100 -17.908200 -20.694700
C -9.797400 -12.826700 -21.589900
H -9.742800 -19.839300 -20.047600
N -9.632600 -15.511000 -20.747000
C -9.482200 -18.930000 -19.954300
C -9.398800 -16.765300 -20.278500
H -9.265900 -12.241500 -22.184900
N -8.937400 -13.307200 -20.514100
C -8.863000 -14.609300 -20.151200
N -8.564400 -18.529500 -19.107500
C -8.514500 -17.153900 -19.308700
H -8.427300 -12.652000 -20.012000
N -7.957600 -14.905100 -19.154000
C -7.716600 -16.184500 -18.648800
H -7.354900 -14.213000 -18.753900
O -6.878200 -16.351000 -17.749300
H -14.652300 -5.905700 -24.408200
H -13.824700 -3.465900 -24.092900
C -13.713000 -6.096800 -24.612400
H -13.550600 -5.955900 -25.568600
H -13.511600 -7.027900 -24.381500
C -12.907200 -3.798900 -24.186200
N -12.867300 -5.218400 -23.846900
H -12.608200 -3.676600 -25.111300
H -12.316200 -3.302200 -23.583700
C -12.064600 -5.678700 -22.916200
O -11.981700 -6.875000 -22.568500
H -11.504000 -5.053200 -22.470600
