29
Fragment
H -14.012300 -10.158700 -19.948400
H -13.473400 -12.200100 -18.970000
C -13.254500 -10.645600 -20.250400
C -12.929400 -11.848600 -19.665700
H -12.704400 -9.324700 -21.695000
C -12.476500 -10.148900 -21.280600
C -11.811100 -12.547200 -20.087500
H -11.589300 -13.372500 -19.671600
C -11.356100 -10.860600 -21.706800
C -11.011200 -12.058100 -21.108900
H -10.824200 -10.518900 -22.415900
H -10.772300 -18.001000 -21.373800
H -10.102200 -13.601700 -22.124300
N -10.032100 -17.908200 -20.694700
C -9.797400 -12.826700 -21.589900
H -9.742800 -19.839300 -20.047600
N -9.632600 -15.511000 -20.747000
C -9.482200 -18.930000 -19.954300
C -9.398800 -16.765300 -20.278500
H -9.265900 -12.241500 -22.184900
N -8.937400 -13.307200 -20.514100
C -8.863000 -14.609300 -20.151200
N -8.564400 -18.529500 -19.107500
C -8.514500 -17.153900 -19.308700
H -8.427300 -12.652000 -20.012000
N -7.957600 -14.905100 -19.154000
C -7.716600 -16.184500 -18.648800
H -7.354900 -14.213000 -18.753900
O -6.878200 -16.351000 -17.749300
29
Fragment
H -16.983100 -17.132000 -27.349300
H -16.444200 -15.090700 -26.370900
C -16.225300 -16.645200 -27.651300
C -15.900200 -15.442200 -27.066600
H -15.675200 -17.966000 -29.095900
C -15.447300 -17.141900 -28.681500
C -14.781900 -14.743600 -27.488400
H -14.560100 -13.918300 -27.072500
C -14.326900 -16.430100 -29.107800
C -13.982000 -15.232600 -28.509800
H -13.795000 -16.771800 -29.816800
H -13.743100 -9.289800 -28.774700
H -13.073000 -13.689000 -29.525200
N -13.002900 -9.382600 -28.095600
C -12.768100 -14.464100 -28.990800
H -12.713500 -7.451500 -27.448500
N -12.603400 -11.779800 -28.147900
C -12.453000 -8.360800 -27.355200
C -12.369600 -10.525500 -27.679400
H -12.236700 -15.049200 -29.585900
N -11.908200 -13.983600 -27.915000
C -11.833800 -12.681500 -27.552100
N -11.535200 -8.761200 -26.508400
C -11.485300 -10.136900 -26.709600
H -11.398100 -14.638800 -27.412900
N -10.928400 -12.385600 -26.554900
C -10.687400 -11.106200 -26.049700
H -10.325700 -13.077700 -26.154800
O -9.849000 -10.939800 -25.150200
58
Fragment
H -14.012300 -10.158700 -19.948400
H -13.473400 -12.200100 -18.970000
C -13.254500 -10.645600 -20.250400
C -12.929400 -11.848600 -19.665700
H -12.704400 -9.324700 -21.695000
C -12.476500 -10.148900 -21.280600
C -11.811100 -12.547200 -20.087500
H -11.589300 -13.372500 -19.671600
C -11.356100 -10.860600 -21.706800
C -11.011200 -12.058100 -21.108900
H -10.824200 -10.518900 -22.415900
H -10.772300 -18.001000 -21.373800
H -10.102200 -13.601700 -22.124300
N -10.032100 -17.908200 -20.694700
C -9.797400 -12.826700 -21.589900
H -9.742800 -19.839300 -20.047600
N -9.632600 -15.511000 -20.747000
C -9.482200 -18.930000 -19.954300
C -9.398800 -16.765300 -20.278500
H -9.265900 -12.241500 -22.184900
N -8.937400 -13.307200 -20.514100
C -8.863000 -14.609300 -20.151200
N -8.564400 -18.529500 -19.107500
C -8.514500 -17.153900 -19.308700
H -8.427300 -12.652000 -20.012000
N -7.957600 -14.905100 -19.154000
C -7.716600 -16.184500 -18.648800
H -7.354900 -14.213000 -18.753900
O -6.878200 -16.351000 -17.749300
H -16.983100 -17.132000 -27.349300
H -16.444200 -15.090700 -26.370900
C -16.225300 -16.645200 -27.651300
C -15.900200 -15.442200 -27.066600
H -15.675200 -17.966000 -29.095900
C -15.447300 -17.141900 -28.681500
C -14.781900 -14.743600 -27.488400
H -14.560100 -13.918300 -27.072500
C -14.326900 -16.430100 -29.107800
C -13.982000 -15.232600 -28.509800
H -13.795000 -16.771800 -29.816800
H -13.743100 -9.289800 -28.774700
H -13.073000 -13.689000 -29.525200
N -13.002900 -9.382600 -28.095600
C -12.768100 -14.464100 -28.990800
H -12.713500 -7.451500 -27.448500
N -12.603400 -11.779800 -28.147900
C -12.453000 -8.360800 -27.355200
C -12.369600 -10.525500 -27.679400
H -12.236700 -15.049200 -29.585900
N -11.908200 -13.983600 -27.915000
C -11.833800 -12.681500 -27.552100
N -11.535200 -8.761200 -26.508400
C -11.485300 -10.136900 -26.709600
H -11.398100 -14.638800 -27.412900
N -10.928400 -12.385600 -26.554900
C -10.687400 -11.106200 -26.049700
H -10.325700 -13.077700 -26.154800
O -9.849000 -10.939800 -25.150200
