23
Fragment
H -21.451200 -11.275700 -23.518600
C -20.717000 -10.647500 -23.220800
H -20.688900 -11.436800 -21.306500
H -20.574400 -9.557500 -25.001400
C -20.245600 -10.797900 -21.962800
C -20.226600 -9.622000 -24.075200
C -19.253100 -8.773600 -23.595100
C -19.245200 -9.949500 -21.445000
H -19.018200 -10.792500 -19.604900
C -18.767100 -8.923900 -22.299500
N -18.741300 -7.760400 -24.437400
C -18.696300 -10.046100 -20.148200
C -17.829900 -6.996300 -23.944000
C -17.752100 -9.197800 -19.725200
C -17.732800 -8.064800 -21.798700
H -17.430100 -6.228500 -24.478800
H -17.330500 -9.289100 -18.827000
N -17.299100 -7.076300 -22.717600
C -17.230300 -8.183000 -20.552900
H -16.595100 -5.799000 -21.561700
H -16.476500 -7.624500 -20.224700
N -16.313800 -6.121100 -22.378500
H -15.642900 -6.658100 -22.120800
23
Fragment
H -17.550700 -4.080700 -26.496400
N -16.879800 -4.617700 -26.238700
H -16.717000 -3.114300 -28.392400
H -16.598500 -4.939800 -27.055500
C -15.963200 -2.555800 -28.064300
N -15.894500 -3.662500 -25.899600
H -15.863100 -1.449700 -29.790200
H -15.763500 -4.510300 -24.138400
C -15.460800 -2.674000 -26.818500
C -15.441500 -1.541000 -28.892000
C -15.363700 -3.742500 -24.673200
C -14.497300 -0.692700 -28.469000
N -14.452300 -2.978400 -24.179800
C -14.426500 -1.814900 -26.317700
H -14.175400 0.053700 -29.012300
C -13.948400 -0.789300 -27.172100
C -13.940500 -1.965200 -25.022000
C -12.966900 -1.116800 -24.542000
C -12.948000 0.059100 -26.654400
H -12.619100 -1.181300 -23.615800
H -12.504700 0.698000 -27.310700
C -12.476600 -0.091300 -25.396400
H -11.742300 0.536900 -25.098600
46
Fragment
H -21.451200 -11.275700 -23.518600
C -20.717000 -10.647500 -23.220800
H -20.688900 -11.436800 -21.306500
H -20.574400 -9.557500 -25.001400
C -20.245600 -10.797900 -21.962800
C -20.226600 -9.622000 -24.075200
C -19.253100 -8.773600 -23.595100
C -19.245200 -9.949500 -21.445000
H -19.018200 -10.792500 -19.604900
C -18.767100 -8.923900 -22.299500
N -18.741300 -7.760400 -24.437400
C -18.696300 -10.046100 -20.148200
C -17.829900 -6.996300 -23.944000
C -17.752100 -9.197800 -19.725200
C -17.732800 -8.064800 -21.798700
H -17.430100 -6.228500 -24.478800
H -17.330500 -9.289100 -18.827000
N -17.299100 -7.076300 -22.717600
C -17.230300 -8.183000 -20.552900
H -16.595100 -5.799000 -21.561700
H -16.476500 -7.624500 -20.224700
N -16.313800 -6.121100 -22.378500
H -15.642900 -6.658100 -22.120800
H -17.550700 -4.080700 -26.496400
N -16.879800 -4.617700 -26.238700
H -16.717000 -3.114300 -28.392400
H -16.598500 -4.939800 -27.055500
C -15.963200 -2.555800 -28.064300
N -15.894500 -3.662500 -25.899600
H -15.863100 -1.449700 -29.790200
H -15.763500 -4.510300 -24.138400
C -15.460800 -2.674000 -26.818500
C -15.441500 -1.541000 -28.892000
C -15.363700 -3.742500 -24.673200
C -14.497300 -0.692700 -28.469000
N -14.452300 -2.978400 -24.179800
C -14.426500 -1.814900 -26.317700
H -14.175400 0.053700 -29.012300
C -13.948400 -0.789300 -27.172100
C -13.940500 -1.965200 -25.022000
C -12.966900 -1.116800 -24.542000
C -12.948000 0.059100 -26.654400
H -12.619100 -1.181300 -23.615800
H -12.504700 0.698000 -27.310700
C -12.476600 -0.091300 -25.396400
H -11.742300 0.536900 -25.098600
