23
Fragment
H -21.451200 -11.275700 -23.518600
C -20.717000 -10.647500 -23.220800
H -20.688900 -11.436800 -21.306500
H -20.574400 -9.557500 -25.001400
C -20.245600 -10.797900 -21.962800
C -20.226600 -9.622000 -24.075200
C -19.253100 -8.773600 -23.595100
C -19.245200 -9.949500 -21.445000
H -19.018200 -10.792500 -19.604900
C -18.767100 -8.923900 -22.299500
N -18.741300 -7.760400 -24.437400
C -18.696300 -10.046100 -20.148200
C -17.829900 -6.996300 -23.944000
C -17.752100 -9.197800 -19.725200
C -17.732800 -8.064800 -21.798700
H -17.430100 -6.228500 -24.478800
H -17.330500 -9.289100 -18.827000
N -17.299100 -7.076300 -22.717600
C -17.230300 -8.183000 -20.552900
H -16.595100 -5.799000 -21.561700
H -16.476500 -7.624500 -20.224700
N -16.313800 -6.121100 -22.378500
H -15.642900 -6.658100 -22.120800
23
Fragment
H -20.818800 -9.450100 -14.342100
N -20.147900 -9.987100 -14.084400
H -19.985200 -8.483700 -16.238100
H -19.866600 -10.309200 -14.901200
C -19.231300 -7.925200 -15.910000
N -19.162600 -9.031900 -13.745300
H -19.131200 -6.819100 -17.635900
H -19.031600 -9.879700 -11.984100
C -18.728900 -8.043400 -14.664200
C -18.709600 -6.910400 -16.737700
C -18.631800 -9.111900 -12.518900
C -17.765400 -6.062100 -16.314700
N -17.720400 -8.347800 -12.025500
C -17.694600 -7.184300 -14.163400
H -17.443500 -5.315700 -16.858000
C -17.216500 -6.158700 -15.017800
C -17.208600 -7.334600 -12.867800
C -16.235000 -6.486200 -12.387700
C -16.216100 -5.310300 -14.500100
H -15.887200 -6.550700 -11.461500
H -15.772800 -4.671400 -15.156400
C -15.744700 -5.460700 -13.242100
H -15.010400 -4.832500 -12.944300
46
Fragment
H -21.451200 -11.275700 -23.518600
C -20.717000 -10.647500 -23.220800
H -20.688900 -11.436800 -21.306500
H -20.574400 -9.557500 -25.001400
C -20.245600 -10.797900 -21.962800
C -20.226600 -9.622000 -24.075200
C -19.253100 -8.773600 -23.595100
C -19.245200 -9.949500 -21.445000
H -19.018200 -10.792500 -19.604900
C -18.767100 -8.923900 -22.299500
N -18.741300 -7.760400 -24.437400
C -18.696300 -10.046100 -20.148200
C -17.829900 -6.996300 -23.944000
C -17.752100 -9.197800 -19.725200
C -17.732800 -8.064800 -21.798700
H -17.430100 -6.228500 -24.478800
H -17.330500 -9.289100 -18.827000
N -17.299100 -7.076300 -22.717600
C -17.230300 -8.183000 -20.552900
H -16.595100 -5.799000 -21.561700
H -16.476500 -7.624500 -20.224700
N -16.313800 -6.121100 -22.378500
H -15.642900 -6.658100 -22.120800
H -20.818800 -9.450100 -14.342100
N -20.147900 -9.987100 -14.084400
H -19.985200 -8.483700 -16.238100
H -19.866600 -10.309200 -14.901200
C -19.231300 -7.925200 -15.910000
N -19.162600 -9.031900 -13.745300
H -19.131200 -6.819100 -17.635900
H -19.031600 -9.879700 -11.984100
C -18.728900 -8.043400 -14.664200
C -18.709600 -6.910400 -16.737700
C -18.631800 -9.111900 -12.518900
C -17.765400 -6.062100 -16.314700
N -17.720400 -8.347800 -12.025500
C -17.694600 -7.184300 -14.163400
H -17.443500 -5.315700 -16.858000
C -17.216500 -6.158700 -15.017800
C -17.208600 -7.334600 -12.867800
C -16.235000 -6.486200 -12.387700
C -16.216100 -5.310300 -14.500100
H -15.887200 -6.550700 -11.461500
H -15.772800 -4.671400 -15.156400
C -15.744700 -5.460700 -13.242100
H -15.010400 -4.832500 -12.944300
