23
Fragment
H -21.451200 -11.275700 -23.518600
C -20.717000 -10.647500 -23.220800
H -20.688900 -11.436800 -21.306500
H -20.574400 -9.557500 -25.001400
C -20.245600 -10.797900 -21.962800
C -20.226600 -9.622000 -24.075200
C -19.253100 -8.773600 -23.595100
C -19.245200 -9.949500 -21.445000
H -19.018200 -10.792500 -19.604900
C -18.767100 -8.923900 -22.299500
N -18.741300 -7.760400 -24.437400
C -18.696300 -10.046100 -20.148200
C -17.829900 -6.996300 -23.944000
C -17.752100 -9.197800 -19.725200
C -17.732800 -8.064800 -21.798700
H -17.430100 -6.228500 -24.478800
H -17.330500 -9.289100 -18.827000
N -17.299100 -7.076300 -22.717600
C -17.230300 -8.183000 -20.552900
H -16.595100 -5.799000 -21.561700
H -16.476500 -7.624500 -20.224700
N -16.313800 -6.121100 -22.378500
H -15.642900 -6.658100 -22.120800
23
Fragment
H -27.528200 -7.517200 -29.595700
C -26.794000 -8.145400 -29.297900
H -26.765800 -7.356100 -27.383600
H -26.651400 -9.235400 -31.078500
C -26.322600 -7.995000 -28.040000
C -26.303600 -9.170900 -30.152400
C -25.330000 -10.019300 -29.672300
C -25.322100 -8.843400 -27.522200
H -25.095100 -8.000400 -25.682000
C -24.844100 -9.869000 -28.376600
N -24.818200 -11.032500 -30.514600
C -24.773300 -8.746800 -26.225300
C -23.906800 -11.796600 -30.021100
C -23.829000 -9.595100 -25.802400
C -23.809700 -10.728100 -27.875900
H -23.507000 -12.564400 -30.555900
H -23.407400 -9.503800 -24.904200
N -23.376000 -11.716600 -28.794700
C -23.307300 -10.609900 -26.630100
H -22.672100 -12.993900 -27.638900
H -22.553500 -11.168400 -26.301900
N -22.390800 -12.671800 -28.455600
H -21.719800 -12.134800 -28.198000
46
Fragment
H -21.451200 -11.275700 -23.518600
C -20.717000 -10.647500 -23.220800
H -20.688900 -11.436800 -21.306500
H -20.574400 -9.557500 -25.001400
C -20.245600 -10.797900 -21.962800
C -20.226600 -9.622000 -24.075200
C -19.253100 -8.773600 -23.595100
C -19.245200 -9.949500 -21.445000
H -19.018200 -10.792500 -19.604900
C -18.767100 -8.923900 -22.299500
N -18.741300 -7.760400 -24.437400
C -18.696300 -10.046100 -20.148200
C -17.829900 -6.996300 -23.944000
C -17.752100 -9.197800 -19.725200
C -17.732800 -8.064800 -21.798700
H -17.430100 -6.228500 -24.478800
H -17.330500 -9.289100 -18.827000
N -17.299100 -7.076300 -22.717600
C -17.230300 -8.183000 -20.552900
H -16.595100 -5.799000 -21.561700
H -16.476500 -7.624500 -20.224700
N -16.313800 -6.121100 -22.378500
H -15.642900 -6.658100 -22.120800
H -27.528200 -7.517200 -29.595700
C -26.794000 -8.145400 -29.297900
H -26.765800 -7.356100 -27.383600
H -26.651400 -9.235400 -31.078500
C -26.322600 -7.995000 -28.040000
C -26.303600 -9.170900 -30.152400
C -25.330000 -10.019300 -29.672300
C -25.322100 -8.843400 -27.522200
H -25.095100 -8.000400 -25.682000
C -24.844100 -9.869000 -28.376600
N -24.818200 -11.032500 -30.514600
C -24.773300 -8.746800 -26.225300
C -23.906800 -11.796600 -30.021100
C -23.829000 -9.595100 -25.802400
C -23.809700 -10.728100 -27.875900
H -23.507000 -12.564400 -30.555900
H -23.407400 -9.503800 -24.904200
N -23.376000 -11.716600 -28.794700
C -23.307300 -10.609900 -26.630100
H -22.672100 -12.993900 -27.638900
H -22.553500 -11.168400 -26.301900
N -22.390800 -12.671800 -28.455600
H -21.719800 -12.134800 -28.198000
