23
Fragment
H -21.451200 -11.275700 -23.518600
C -20.717000 -10.647500 -23.220800
H -20.688900 -11.436800 -21.306500
H -20.574400 -9.557500 -25.001400
C -20.245600 -10.797900 -21.962800
C -20.226600 -9.622000 -24.075200
C -19.253100 -8.773600 -23.595100
C -19.245200 -9.949500 -21.445000
H -19.018200 -10.792500 -19.604900
C -18.767100 -8.923900 -22.299500
N -18.741300 -7.760400 -24.437400
C -18.696300 -10.046100 -20.148200
C -17.829900 -6.996300 -23.944000
C -17.752100 -9.197800 -19.725200
C -17.732800 -8.064800 -21.798700
H -17.430100 -6.228500 -24.478800
H -17.330500 -9.289100 -18.827000
N -17.299100 -7.076300 -22.717600
C -17.230300 -8.183000 -20.552900
H -16.595100 -5.799000 -21.561700
H -16.476500 -7.624500 -20.224700
N -16.313800 -6.121100 -22.378500
H -15.642900 -6.658100 -22.120800
23
Fragment
H -21.451200 -16.645100 -23.518600
C -20.717000 -16.016900 -23.220800
H -20.688900 -16.806200 -21.306500
H -20.574400 -14.926900 -25.001400
C -20.245600 -16.167300 -21.962800
C -20.226600 -14.991400 -24.075200
C -19.253100 -14.143000 -23.595100
C -19.245200 -15.318900 -21.445000
H -19.018200 -16.161900 -19.604900
C -18.767100 -14.293300 -22.299500
N -18.741300 -13.129800 -24.437400
C -18.696300 -15.415500 -20.148200
C -17.829900 -12.365700 -23.944000
C -17.752100 -14.567200 -19.725200
C -17.732800 -13.434200 -21.798700
H -17.430100 -11.597900 -24.478800
H -17.330500 -14.658500 -18.827000
N -17.299100 -12.445700 -22.717600
C -17.230300 -13.552400 -20.552900
H -16.595100 -11.168400 -21.561700
H -16.476500 -12.993900 -20.224700
N -16.313800 -11.490500 -22.378500
H -15.642900 -12.027500 -22.120800
46
Fragment
H -21.451200 -11.275700 -23.518600
C -20.717000 -10.647500 -23.220800
H -20.688900 -11.436800 -21.306500
H -20.574400 -9.557500 -25.001400
C -20.245600 -10.797900 -21.962800
C -20.226600 -9.622000 -24.075200
C -19.253100 -8.773600 -23.595100
C -19.245200 -9.949500 -21.445000
H -19.018200 -10.792500 -19.604900
C -18.767100 -8.923900 -22.299500
N -18.741300 -7.760400 -24.437400
C -18.696300 -10.046100 -20.148200
C -17.829900 -6.996300 -23.944000
C -17.752100 -9.197800 -19.725200
C -17.732800 -8.064800 -21.798700
H -17.430100 -6.228500 -24.478800
H -17.330500 -9.289100 -18.827000
N -17.299100 -7.076300 -22.717600
C -17.230300 -8.183000 -20.552900
H -16.595100 -5.799000 -21.561700
H -16.476500 -7.624500 -20.224700
N -16.313800 -6.121100 -22.378500
H -15.642900 -6.658100 -22.120800
H -21.451200 -16.645100 -23.518600
C -20.717000 -16.016900 -23.220800
H -20.688900 -16.806200 -21.306500
H -20.574400 -14.926900 -25.001400
C -20.245600 -16.167300 -21.962800
C -20.226600 -14.991400 -24.075200
C -19.253100 -14.143000 -23.595100
C -19.245200 -15.318900 -21.445000
H -19.018200 -16.161900 -19.604900
C -18.767100 -14.293300 -22.299500
N -18.741300 -13.129800 -24.437400
C -18.696300 -15.415500 -20.148200
C -17.829900 -12.365700 -23.944000
C -17.752100 -14.567200 -19.725200
C -17.732800 -13.434200 -21.798700
H -17.430100 -11.597900 -24.478800
H -17.330500 -14.658500 -18.827000
N -17.299100 -12.445700 -22.717600
C -17.230300 -13.552400 -20.552900
H -16.595100 -11.168400 -21.561700
H -16.476500 -12.993900 -20.224700
N -16.313800 -11.490500 -22.378500
H -15.642900 -12.027500 -22.120800
