23
Fragment
H -21.451200 -11.275700 -23.518600
C -20.717000 -10.647500 -23.220800
H -20.688900 -11.436800 -21.306500
H -20.574400 -9.557500 -25.001400
C -20.245600 -10.797900 -21.962800
C -20.226600 -9.622000 -24.075200
C -19.253100 -8.773600 -23.595100
C -19.245200 -9.949500 -21.445000
H -19.018200 -10.792500 -19.604900
C -18.767100 -8.923900 -22.299500
N -18.741300 -7.760400 -24.437400
C -18.696300 -10.046100 -20.148200
C -17.829900 -6.996300 -23.944000
C -17.752100 -9.197800 -19.725200
C -17.732800 -8.064800 -21.798700
H -17.430100 -6.228500 -24.478800
H -17.330500 -9.289100 -18.827000
N -17.299100 -7.076300 -22.717600
C -17.230300 -8.183000 -20.552900
H -16.595100 -5.799000 -21.561700
H -16.476500 -7.624500 -20.224700
N -16.313800 -6.121100 -22.378500
H -15.642900 -6.658100 -22.120800
23
Fragment
H -15.374300 -7.517200 -17.441400
C -14.640100 -8.145400 -17.143600
H -14.612000 -7.356100 -15.229300
H -14.497500 -9.235400 -18.924200
C -14.168700 -7.995000 -15.885700
C -14.149700 -9.170900 -17.998100
C -13.176100 -10.019300 -17.518000
C -13.168200 -8.843400 -15.367900
H -12.941200 -8.000400 -13.527700
C -12.690200 -9.869000 -16.222300
N -12.664300 -11.032500 -18.360300
C -12.619400 -8.746800 -14.071000
C -11.752900 -11.796600 -17.866800
C -11.675100 -9.595100 -13.648100
C -11.655800 -10.728100 -15.721600
H -11.353100 -12.564400 -18.401600
H -11.253500 -9.503800 -12.749900
N -11.222100 -11.716600 -16.640400
C -11.153400 -10.609900 -14.475800
H -10.518200 -12.993900 -15.484600
H -10.399600 -11.168400 -14.147600
N -10.236900 -12.671800 -16.301300
H -9.565900 -12.134800 -16.043700
46
Fragment
H -21.451200 -11.275700 -23.518600
C -20.717000 -10.647500 -23.220800
H -20.688900 -11.436800 -21.306500
H -20.574400 -9.557500 -25.001400
C -20.245600 -10.797900 -21.962800
C -20.226600 -9.622000 -24.075200
C -19.253100 -8.773600 -23.595100
C -19.245200 -9.949500 -21.445000
H -19.018200 -10.792500 -19.604900
C -18.767100 -8.923900 -22.299500
N -18.741300 -7.760400 -24.437400
C -18.696300 -10.046100 -20.148200
C -17.829900 -6.996300 -23.944000
C -17.752100 -9.197800 -19.725200
C -17.732800 -8.064800 -21.798700
H -17.430100 -6.228500 -24.478800
H -17.330500 -9.289100 -18.827000
N -17.299100 -7.076300 -22.717600
C -17.230300 -8.183000 -20.552900
H -16.595100 -5.799000 -21.561700
H -16.476500 -7.624500 -20.224700
N -16.313800 -6.121100 -22.378500
H -15.642900 -6.658100 -22.120800
H -15.374300 -7.517200 -17.441400
C -14.640100 -8.145400 -17.143600
H -14.612000 -7.356100 -15.229300
H -14.497500 -9.235400 -18.924200
C -14.168700 -7.995000 -15.885700
C -14.149700 -9.170900 -17.998100
C -13.176100 -10.019300 -17.518000
C -13.168200 -8.843400 -15.367900
H -12.941200 -8.000400 -13.527700
C -12.690200 -9.869000 -16.222300
N -12.664300 -11.032500 -18.360300
C -12.619400 -8.746800 -14.071000
C -11.752900 -11.796600 -17.866800
C -11.675100 -9.595100 -13.648100
C -11.655800 -10.728100 -15.721600
H -11.353100 -12.564400 -18.401600
H -11.253500 -9.503800 -12.749900
N -11.222100 -11.716600 -16.640400
C -11.153400 -10.609900 -14.475800
H -10.518200 -12.993900 -15.484600
H -10.399600 -11.168400 -14.147600
N -10.236900 -12.671800 -16.301300
H -9.565900 -12.134800 -16.043700
