21
Fragment
H -13.414700 -10.890500 -16.391800
H -12.994200 -10.057100 -17.618500
H -12.858900 -9.577600 -14.330600
C -12.641400 -10.557500 -16.891100
H -12.104700 -11.279500 -17.316800
N -12.091100 -9.379700 -14.765200
C -11.754800 -9.751900 -16.012500
N -11.133700 -8.634600 -14.150400
H -10.892400 -8.678300 -18.919700
C -10.499600 -9.210700 -16.215400
C -10.151000 -8.519200 -15.044000
C -10.040500 -9.011600 -18.666200
N -9.705800 -9.334900 -17.385200
N -9.033200 -9.215000 -19.473200
H -9.014100 -7.247900 -13.938600
C -8.910800 -7.737900 -14.763500
H -8.700200 -7.199500 -15.526800
C -8.414900 -9.757700 -17.464800
H -8.135900 -8.310800 -14.618600
N -7.983900 -9.691500 -18.697400
H -7.935900 -10.077700 -16.696700
21
Fragment
H -6.242600 -5.797700 -14.836200
N -6.194600 -6.183900 -12.835500
H -6.042600 -7.564600 -16.914200
C -5.763600 -6.117700 -14.068100
H -5.478300 -8.675900 -16.006100
C -5.267700 -8.137500 -16.769400
H -5.164400 -8.627500 -17.594300
N -5.145300 -6.660400 -12.059600
N -4.472700 -6.540500 -14.147600
C -4.138000 -6.863800 -12.866700
C -4.027500 -7.356200 -16.488900
C -3.678900 -6.664700 -15.317500
H -3.286100 -7.197100 -12.613100
N -3.044800 -7.240800 -17.382500
C -2.423700 -6.123500 -15.520400
N -2.087400 -6.495700 -16.767700
H -2.073800 -4.595900 -14.216100
C -1.537100 -5.317900 -14.641800
H -1.319600 -6.297800 -17.202200
H -1.184300 -5.818300 -13.914400
H -0.763800 -4.984900 -15.141000
42
Fragment
H -13.414700 -10.890500 -16.391800
H -12.994200 -10.057100 -17.618500
H -12.858900 -9.577600 -14.330600
C -12.641400 -10.557500 -16.891100
H -12.104700 -11.279500 -17.316800
N -12.091100 -9.379700 -14.765200
C -11.754800 -9.751900 -16.012500
N -11.133700 -8.634600 -14.150400
H -10.892400 -8.678300 -18.919700
C -10.499600 -9.210700 -16.215400
C -10.151000 -8.519200 -15.044000
C -10.040500 -9.011600 -18.666200
N -9.705800 -9.334900 -17.385200
N -9.033200 -9.215000 -19.473200
H -9.014100 -7.247900 -13.938600
C -8.910800 -7.737900 -14.763500
H -8.700200 -7.199500 -15.526800
C -8.414900 -9.757700 -17.464800
H -8.135900 -8.310800 -14.618600
N -7.983900 -9.691500 -18.697400
H -7.935900 -10.077700 -16.696700
H -6.242600 -5.797700 -14.836200
N -6.194600 -6.183900 -12.835500
H -6.042600 -7.564600 -16.914200
C -5.763600 -6.117700 -14.068100
H -5.478300 -8.675900 -16.006100
C -5.267700 -8.137500 -16.769400
H -5.164400 -8.627500 -17.594300
N -5.145300 -6.660400 -12.059600
N -4.472700 -6.540500 -14.147600
C -4.138000 -6.863800 -12.866700
C -4.027500 -7.356200 -16.488900
C -3.678900 -6.664700 -15.317500
H -3.286100 -7.197100 -12.613100
N -3.044800 -7.240800 -17.382500
C -2.423700 -6.123500 -15.520400
N -2.087400 -6.495700 -16.767700
H -2.073800 -4.595900 -14.216100
C -1.537100 -5.317900 -14.641800
H -1.319600 -6.297800 -17.202200
H -1.184300 -5.818300 -13.914400
H -0.763800 -4.984900 -15.141000
