21
Fragment
H -13.414700 -10.890500 -16.391800
H -12.994200 -10.057100 -17.618500
H -12.858900 -9.577600 -14.330600
C -12.641400 -10.557500 -16.891100
H -12.104700 -11.279500 -17.316800
N -12.091100 -9.379700 -14.765200
C -11.754800 -9.751900 -16.012500
N -11.133700 -8.634600 -14.150400
H -10.892400 -8.678300 -18.919700
C -10.499600 -9.210700 -16.215400
C -10.151000 -8.519200 -15.044000
C -10.040500 -9.011600 -18.666200
N -9.705800 -9.334900 -17.385200
N -9.033200 -9.215000 -19.473200
H -9.014100 -7.247900 -13.938600
C -8.910800 -7.737900 -14.763500
H -8.700200 -7.199500 -15.526800
C -8.414900 -9.757700 -17.464800
H -8.135900 -8.310800 -14.618600
N -7.983900 -9.691500 -18.697400
H -7.935900 -10.077700 -16.696700
21
Fragment
H -12.781200 -14.046600 -9.580700
N -12.733200 -13.660300 -7.580000
H -12.581200 -12.279600 -11.658800
C -12.302200 -13.726500 -8.812600
H -12.016900 -11.168300 -10.750600
C -11.806300 -11.706800 -11.513900
H -11.703000 -11.216800 -12.338800
N -11.683900 -13.183900 -6.804200
N -11.011300 -13.303700 -8.892200
C -10.676600 -12.980400 -7.611200
C -10.566000 -12.488100 -11.233400
C -10.217500 -13.179500 -10.062000
H -9.824700 -12.647100 -7.357700
N -9.583400 -12.603400 -12.127000
C -8.962200 -13.720800 -10.264900
N -8.626000 -13.348600 -11.512200
H -8.612300 -15.248300 -8.960600
C -8.075700 -14.526300 -9.386300
H -7.858200 -13.546500 -11.946800
H -7.722900 -14.025900 -8.658900
H -7.302400 -14.859400 -9.885600
42
Fragment
H -13.414700 -10.890500 -16.391800
H -12.994200 -10.057100 -17.618500
H -12.858900 -9.577600 -14.330600
C -12.641400 -10.557500 -16.891100
H -12.104700 -11.279500 -17.316800
N -12.091100 -9.379700 -14.765200
C -11.754800 -9.751900 -16.012500
N -11.133700 -8.634600 -14.150400
H -10.892400 -8.678300 -18.919700
C -10.499600 -9.210700 -16.215400
C -10.151000 -8.519200 -15.044000
C -10.040500 -9.011600 -18.666200
N -9.705800 -9.334900 -17.385200
N -9.033200 -9.215000 -19.473200
H -9.014100 -7.247900 -13.938600
C -8.910800 -7.737900 -14.763500
H -8.700200 -7.199500 -15.526800
C -8.414900 -9.757700 -17.464800
H -8.135900 -8.310800 -14.618600
N -7.983900 -9.691500 -18.697400
H -7.935900 -10.077700 -16.696700
H -12.781200 -14.046600 -9.580700
N -12.733200 -13.660300 -7.580000
H -12.581200 -12.279600 -11.658800
C -12.302200 -13.726500 -8.812600
H -12.016900 -11.168300 -10.750600
C -11.806300 -11.706800 -11.513900
H -11.703000 -11.216800 -12.338800
N -11.683900 -13.183900 -6.804200
N -11.011300 -13.303700 -8.892200
C -10.676600 -12.980400 -7.611200
C -10.566000 -12.488100 -11.233400
C -10.217500 -13.179500 -10.062000
H -9.824700 -12.647100 -7.357700
N -9.583400 -12.603400 -12.127000
C -8.962200 -13.720800 -10.264900
N -8.626000 -13.348600 -11.512200
H -8.612300 -15.248300 -8.960600
C -8.075700 -14.526300 -9.386300
H -7.858200 -13.546500 -11.946800
H -7.722900 -14.025900 -8.658900
H -7.302400 -14.859400 -9.885600
