21
Fragment
H -13.414700 -10.890500 -16.391800
H -12.994200 -10.057100 -17.618500
H -12.858900 -9.577600 -14.330600
C -12.641400 -10.557500 -16.891100
H -12.104700 -11.279500 -17.316800
N -12.091100 -9.379700 -14.765200
C -11.754800 -9.751900 -16.012500
N -11.133700 -8.634600 -14.150400
H -10.892400 -8.678300 -18.919700
C -10.499600 -9.210700 -16.215400
C -10.151000 -8.519200 -15.044000
C -10.040500 -9.011600 -18.666200
N -9.705800 -9.334900 -17.385200
N -9.033200 -9.215000 -19.473200
H -9.014100 -7.247900 -13.938600
C -8.910800 -7.737900 -14.763500
H -8.700200 -7.199500 -15.526800
C -8.414900 -9.757700 -17.464800
H -8.135900 -8.310800 -14.618600
N -7.983900 -9.691500 -18.697400
H -7.935900 -10.077700 -16.696700
21
Fragment
H -9.271300 -8.953700 -11.136400
H -8.850800 -9.787200 -12.363000
H -8.715500 -10.266600 -9.075200
C -8.498000 -9.286800 -11.635600
H -7.961300 -8.564800 -12.061300
N -7.947700 -10.464500 -9.509700
C -7.611400 -10.092300 -10.757000
N -6.990300 -11.209700 -8.894900
H -6.749000 -11.166000 -13.664200
C -6.356200 -10.633600 -10.959900
C -6.007600 -11.325000 -9.788500
C -5.897100 -10.832700 -13.410700
N -5.562400 -10.509400 -12.129700
N -4.889800 -10.629200 -14.217700
H -4.870600 -12.596300 -8.683100
C -4.767400 -12.106300 -9.508000
H -4.556800 -12.644800 -10.271300
C -4.271500 -10.086600 -12.209300
H -3.992500 -11.533500 -9.363200
N -3.840500 -10.152800 -13.441900
H -3.792400 -9.766500 -11.441200
42
Fragment
H -13.414700 -10.890500 -16.391800
H -12.994200 -10.057100 -17.618500
H -12.858900 -9.577600 -14.330600
C -12.641400 -10.557500 -16.891100
H -12.104700 -11.279500 -17.316800
N -12.091100 -9.379700 -14.765200
C -11.754800 -9.751900 -16.012500
N -11.133700 -8.634600 -14.150400
H -10.892400 -8.678300 -18.919700
C -10.499600 -9.210700 -16.215400
C -10.151000 -8.519200 -15.044000
C -10.040500 -9.011600 -18.666200
N -9.705800 -9.334900 -17.385200
N -9.033200 -9.215000 -19.473200
H -9.014100 -7.247900 -13.938600
C -8.910800 -7.737900 -14.763500
H -8.700200 -7.199500 -15.526800
C -8.414900 -9.757700 -17.464800
H -8.135900 -8.310800 -14.618600
N -7.983900 -9.691500 -18.697400
H -7.935900 -10.077700 -16.696700
H -9.271300 -8.953700 -11.136400
H -8.850800 -9.787200 -12.363000
H -8.715500 -10.266600 -9.075200
C -8.498000 -9.286800 -11.635600
H -7.961300 -8.564800 -12.061300
N -7.947700 -10.464500 -9.509700
C -7.611400 -10.092300 -10.757000
N -6.990300 -11.209700 -8.894900
H -6.749000 -11.166000 -13.664200
C -6.356200 -10.633600 -10.959900
C -6.007600 -11.325000 -9.788500
C -5.897100 -10.832700 -13.410700
N -5.562400 -10.509400 -12.129700
N -4.889800 -10.629200 -14.217700
H -4.870600 -12.596300 -8.683100
C -4.767400 -12.106300 -9.508000
H -4.556800 -12.644800 -10.271300
C -4.271500 -10.086600 -12.209300
H -3.992500 -11.533500 -9.363200
N -3.840500 -10.152800 -13.441900
H -3.792400 -9.766500 -11.441200
