12
Fragment
O -12.691600 -9.389800 -16.007900
H -12.592100 -6.979100 -15.571300
C -12.382700 -8.780700 -15.003500
N -12.372500 -7.416300 -14.945000
H -12.024100 -10.161200 -13.839400
N -12.024100 -9.405100 -13.839400
C -12.024100 -6.693700 -13.839400
O -12.024100 -5.483700 -13.839400
N -11.675800 -7.416300 -12.733900
C -11.665600 -8.780700 -12.675300
H -11.456200 -6.979100 -12.107500
O -11.356700 -9.389800 -11.671000
12
Fragment
O -17.022600 -7.322700 -19.962000
H -16.923100 -9.733400 -19.525500
C -16.713700 -7.931800 -18.957700
N -16.703500 -9.296200 -18.899100
O -16.355200 -11.228800 -17.793600
C -16.355200 -10.018800 -17.793600
N -16.355200 -7.307400 -17.793600
H -16.355200 -6.551300 -17.793600
N -16.006800 -9.296200 -16.688000
C -15.996600 -7.931800 -16.629500
H -15.787200 -9.733400 -16.061700
O -15.687700 -7.322700 -15.625100
24
Fragment
O -12.691600 -9.389800 -16.007900
H -12.592100 -6.979100 -15.571300
C -12.382700 -8.780700 -15.003500
N -12.372500 -7.416300 -14.945000
H -12.024100 -10.161200 -13.839400
N -12.024100 -9.405100 -13.839400
C -12.024100 -6.693700 -13.839400
O -12.024100 -5.483700 -13.839400
N -11.675800 -7.416300 -12.733900
C -11.665600 -8.780700 -12.675300
H -11.456200 -6.979100 -12.107500
O -11.356700 -9.389800 -11.671000
O -17.022600 -7.322700 -19.962000
H -16.923100 -9.733400 -19.525500
C -16.713700 -7.931800 -18.957700
N -16.703500 -9.296200 -18.899100
O -16.355200 -11.228800 -17.793600
C -16.355200 -10.018800 -17.793600
N -16.355200 -7.307400 -17.793600
H -16.355200 -6.551300 -17.793600
N -16.006800 -9.296200 -16.688000
C -15.996600 -7.931800 -16.629500
H -15.787200 -9.733400 -16.061700
O -15.687700 -7.322700 -15.625100
