12
Fragment
O -12.691600 -9.389800 -16.007900
H -12.592100 -6.979100 -15.571300
C -12.382700 -8.780700 -15.003500
N -12.372500 -7.416300 -14.945000
H -12.024100 -10.161200 -13.839400
N -12.024100 -9.405100 -13.839400
C -12.024100 -6.693700 -13.839400
O -12.024100 -5.483700 -13.839400
N -11.675800 -7.416300 -12.733900
C -11.665600 -8.780700 -12.675300
H -11.456200 -6.979100 -12.107500
O -11.356700 -9.389800 -11.671000
12
Fragment
O -12.691600 -2.704800 -16.007900
H -12.592100 -0.294100 -15.571300
C -12.382700 -2.095700 -15.003500
N -12.372500 -0.731300 -14.945000
H -12.024100 -3.476200 -13.839400
N -12.024100 -2.720100 -13.839400
C -12.024100 -0.008700 -13.839400
O -12.024100 1.201300 -13.839400
N -11.675800 -0.731300 -12.733900
C -11.665600 -2.095700 -12.675300
H -11.456200 -0.294100 -12.107500
O -11.356700 -2.704800 -11.671000
24
Fragment
O -12.691600 -9.389800 -16.007900
H -12.592100 -6.979100 -15.571300
C -12.382700 -8.780700 -15.003500
N -12.372500 -7.416300 -14.945000
H -12.024100 -10.161200 -13.839400
N -12.024100 -9.405100 -13.839400
C -12.024100 -6.693700 -13.839400
O -12.024100 -5.483700 -13.839400
N -11.675800 -7.416300 -12.733900
C -11.665600 -8.780700 -12.675300
H -11.456200 -6.979100 -12.107500
O -11.356700 -9.389800 -11.671000
O -12.691600 -2.704800 -16.007900
H -12.592100 -0.294100 -15.571300
C -12.382700 -2.095700 -15.003500
N -12.372500 -0.731300 -14.945000
H -12.024100 -3.476200 -13.839400
N -12.024100 -2.720100 -13.839400
C -12.024100 -0.008700 -13.839400
O -12.024100 1.201300 -13.839400
N -11.675800 -0.731300 -12.733900
C -11.665600 -2.095700 -12.675300
H -11.456200 -0.294100 -12.107500
O -11.356700 -2.704800 -11.671000
