12
Fragment
O -12.691600 -9.389800 -16.007900
H -12.592100 -6.979100 -15.571300
C -12.382700 -8.780700 -15.003500
N -12.372500 -7.416300 -14.945000
H -12.024100 -10.161200 -13.839400
N -12.024100 -9.405100 -13.839400
C -12.024100 -6.693700 -13.839400
O -12.024100 -5.483700 -13.839400
N -11.675800 -7.416300 -12.733900
C -11.665600 -8.780700 -12.675300
H -11.456200 -6.979100 -12.107500
O -11.356700 -9.389800 -11.671000
12
Fragment
O -14.629600 -3.980200 -12.053800
H -14.530100 -6.390900 -11.617200
C -14.320600 -4.589300 -11.049400
N -14.310400 -5.953700 -10.990900
O -13.962100 -7.886300 -9.885300
C -13.962100 -6.676300 -9.885300
N -13.962100 -3.964900 -9.885300
H -13.962100 -3.208800 -9.885300
N -13.613800 -5.953700 -8.779700
C -13.603600 -4.589300 -8.721200
H -13.394100 -6.390900 -8.153400
O -13.294600 -3.980200 -7.716900
24
Fragment
O -12.691600 -9.389800 -16.007900
H -12.592100 -6.979100 -15.571300
C -12.382700 -8.780700 -15.003500
N -12.372500 -7.416300 -14.945000
H -12.024100 -10.161200 -13.839400
N -12.024100 -9.405100 -13.839400
C -12.024100 -6.693700 -13.839400
O -12.024100 -5.483700 -13.839400
N -11.675800 -7.416300 -12.733900
C -11.665600 -8.780700 -12.675300
H -11.456200 -6.979100 -12.107500
O -11.356700 -9.389800 -11.671000
O -14.629600 -3.980200 -12.053800
H -14.530100 -6.390900 -11.617200
C -14.320600 -4.589300 -11.049400
N -14.310400 -5.953700 -10.990900
O -13.962100 -7.886300 -9.885300
C -13.962100 -6.676300 -9.885300
N -13.962100 -3.964900 -9.885300
H -13.962100 -3.208800 -9.885300
N -13.613800 -5.953700 -8.779700
C -13.603600 -4.589300 -8.721200
H -13.394100 -6.390900 -8.153400
O -13.294600 -3.980200 -7.716900
