33
Fragment
H -22.255500 -18.312100 -16.075800
H -22.002200 -19.774200 -14.284800
C -21.460000 -18.285400 -15.540000
C -21.292100 -19.164600 -14.499300
H -20.592900 -16.767600 -16.545600
C -20.473900 -17.388000 -15.823800
C -20.128900 -19.137800 -13.742200
H -20.013300 -19.761400 -13.020400
H -19.923300 -16.024300 -9.739200
H -19.747600 -17.670400 -11.422400
C -19.306000 -17.363400 -15.078100
C -19.138100 -16.074600 -10.289700
C -19.124100 -18.241500 -14.030500
C -19.044700 -17.031800 -11.281600
H -18.611500 -16.733400 -15.284700
H -18.196600 -14.514100 -9.394200
C -18.127500 -15.172900 -10.088800
O -18.079200 -20.123000 -11.713400
C -17.921600 -17.091700 -12.109000
C -17.829400 -18.159200 -13.197500
C -17.460400 -19.511100 -12.565300
C -17.010000 -15.225300 -10.883300
C -16.898200 -16.176200 -11.885400
N -16.657200 -17.959100 -14.057000
H -16.595000 -17.163400 -14.591200
H -16.299400 -14.595400 -10.734600
N -16.282400 -19.904700 -13.119500
H -16.114000 -16.215800 -12.437000
H -15.919100 -20.761400 -12.883100
C -15.799500 -18.954900 -13.969600
N -14.609600 -19.114300 -14.528600
C -14.135700 -18.144200 -15.297200
N -13.614000 -17.362300 -15.965700
33
Fragment
N -26.996400 -12.014500 -12.408700
C -26.474800 -12.796300 -13.077200
N -26.000800 -13.766400 -13.845800
C -24.810900 -13.607100 -14.404700
H -24.691300 -15.413600 -15.491200
H -24.496400 -10.867900 -15.937300
N -24.328000 -14.556800 -15.254800
H -24.311000 -9.247500 -17.639700
H -24.015400 -11.815500 -13.783100
N -23.953200 -12.611300 -14.317300
C -23.712200 -10.828300 -16.488900
C -23.600400 -9.877500 -17.491100
C -23.150000 -14.163200 -15.809000
C -22.781000 -12.811300 -15.176900
C -22.688800 -11.743900 -16.265300
O -22.531200 -14.775100 -16.660900
C -22.482900 -9.825100 -18.285500
H -22.413800 -9.166200 -18.980100
H -21.998900 -11.385600 -13.089600
C -21.565700 -11.684000 -17.092700
C -21.486300 -12.893700 -14.343800
C -21.472300 -10.726700 -18.084700
C -21.304400 -12.015500 -13.296200
H -20.862800 -12.322500 -16.952000
H -20.687100 -10.676400 -18.635100
H -20.597100 -14.413500 -15.353900
C -20.481500 -13.790000 -14.632100
C -20.136500 -12.040100 -12.550500
H -20.017500 -11.419800 -11.828700
C -19.318300 -13.816700 -13.875000
C -19.150400 -12.937500 -12.834300
H -18.608200 -14.426400 -14.089600
H -18.355000 -12.964300 -12.298600
66
Fragment
H -22.255500 -18.312100 -16.075800
H -22.002200 -19.774200 -14.284800
C -21.460000 -18.285400 -15.540000
C -21.292100 -19.164600 -14.499300
H -20.592900 -16.767600 -16.545600
C -20.473900 -17.388000 -15.823800
C -20.128900 -19.137800 -13.742200
H -20.013300 -19.761400 -13.020400
H -19.923300 -16.024300 -9.739200
H -19.747600 -17.670400 -11.422400
C -19.306000 -17.363400 -15.078100
C -19.138100 -16.074600 -10.289700
C -19.124100 -18.241500 -14.030500
C -19.044700 -17.031800 -11.281600
H -18.611500 -16.733400 -15.284700
H -18.196600 -14.514100 -9.394200
C -18.127500 -15.172900 -10.088800
O -18.079200 -20.123000 -11.713400
C -17.921600 -17.091700 -12.109000
C -17.829400 -18.159200 -13.197500
C -17.460400 -19.511100 -12.565300
C -17.010000 -15.225300 -10.883300
C -16.898200 -16.176200 -11.885400
N -16.657200 -17.959100 -14.057000
H -16.595000 -17.163400 -14.591200
H -16.299400 -14.595400 -10.734600
N -16.282400 -19.904700 -13.119500
H -16.114000 -16.215800 -12.437000
H -15.919100 -20.761400 -12.883100
C -15.799500 -18.954900 -13.969600
N -14.609600 -19.114300 -14.528600
C -14.135700 -18.144200 -15.297200
N -13.614000 -17.362300 -15.965700
N -26.996400 -12.014500 -12.408700
C -26.474800 -12.796300 -13.077200
N -26.000800 -13.766400 -13.845800
C -24.810900 -13.607100 -14.404700
H -24.691300 -15.413600 -15.491200
H -24.496400 -10.867900 -15.937300
N -24.328000 -14.556800 -15.254800
H -24.311000 -9.247500 -17.639700
H -24.015400 -11.815500 -13.783100
N -23.953200 -12.611300 -14.317300
C -23.712200 -10.828300 -16.488900
C -23.600400 -9.877500 -17.491100
C -23.150000 -14.163200 -15.809000
C -22.781000 -12.811300 -15.176900
C -22.688800 -11.743900 -16.265300
O -22.531200 -14.775100 -16.660900
C -22.482900 -9.825100 -18.285500
H -22.413800 -9.166200 -18.980100
H -21.998900 -11.385600 -13.089600
C -21.565700 -11.684000 -17.092700
C -21.486300 -12.893700 -14.343800
C -21.472300 -10.726700 -18.084700
C -21.304400 -12.015500 -13.296200
H -20.862800 -12.322500 -16.952000
H -20.687100 -10.676400 -18.635100
H -20.597100 -14.413500 -15.353900
C -20.481500 -13.790000 -14.632100
C -20.136500 -12.040100 -12.550500
H -20.017500 -11.419800 -11.828700
C -19.318300 -13.816700 -13.875000
C -19.150400 -12.937500 -12.834300
H -18.608200 -14.426400 -14.089600
H -18.355000 -12.964300 -12.298600
