33
Fragment
H -22.255500 -18.312100 -16.075800
H -22.002200 -19.774200 -14.284800
C -21.460000 -18.285400 -15.540000
C -21.292100 -19.164600 -14.499300
H -20.592900 -16.767600 -16.545600
C -20.473900 -17.388000 -15.823800
C -20.128900 -19.137800 -13.742200
H -20.013300 -19.761400 -13.020400
H -19.923300 -16.024300 -9.739200
H -19.747600 -17.670400 -11.422400
C -19.306000 -17.363400 -15.078100
C -19.138100 -16.074600 -10.289700
C -19.124100 -18.241500 -14.030500
C -19.044700 -17.031800 -11.281600
H -18.611500 -16.733400 -15.284700
H -18.196600 -14.514100 -9.394200
C -18.127500 -15.172900 -10.088800
O -18.079200 -20.123000 -11.713400
C -17.921600 -17.091700 -12.109000
C -17.829400 -18.159200 -13.197500
C -17.460400 -19.511100 -12.565300
C -17.010000 -15.225300 -10.883300
C -16.898200 -16.176200 -11.885400
N -16.657200 -17.959100 -14.057000
H -16.595000 -17.163400 -14.591200
H -16.299400 -14.595400 -10.734600
N -16.282400 -19.904700 -13.119500
H -16.114000 -16.215800 -12.437000
H -15.919100 -20.761400 -12.883100
C -15.799500 -18.954900 -13.969600
N -14.609600 -19.114300 -14.528600
C -14.135700 -18.144200 -15.297200
N -13.614000 -17.362300 -15.965700
33
Fragment
N -15.404500 -22.710200 -12.408700
C -14.882900 -23.492000 -13.077200
N -14.408900 -24.462100 -13.845800
C -13.219000 -24.302800 -14.404700
H -13.099400 -26.109300 -15.491200
H -12.904500 -21.563600 -15.937300
N -12.736100 -25.252500 -15.254800
H -12.719100 -19.943200 -17.639700
H -12.423500 -22.511200 -13.783100
N -12.361300 -23.307000 -14.317300
C -12.120300 -21.524000 -16.488900
C -12.008500 -20.573200 -17.491100
C -11.558100 -24.858900 -15.809000
C -11.189100 -23.507000 -15.176900
C -11.096900 -22.439600 -16.265300
O -10.939300 -25.470800 -16.660900
C -10.891000 -20.520800 -18.285500
H -10.821900 -19.861900 -18.980100
H -10.407000 -22.081300 -13.089600
C -9.973800 -22.379700 -17.092700
C -9.894400 -23.589400 -14.343800
C -9.880400 -21.422400 -18.084700
C -9.712500 -22.711200 -13.296200
H -9.270900 -23.018200 -16.952000
H -9.095200 -21.372100 -18.635100
H -9.005200 -25.109200 -15.353900
C -8.889600 -24.485700 -14.632100
C -8.544600 -22.735800 -12.550500
H -8.425600 -22.115500 -11.828700
C -7.726400 -24.512400 -13.875000
C -7.558500 -23.633200 -12.834300
H -7.016300 -25.122100 -14.089600
H -6.763100 -23.660000 -12.298600
66
Fragment
H -22.255500 -18.312100 -16.075800
H -22.002200 -19.774200 -14.284800
C -21.460000 -18.285400 -15.540000
C -21.292100 -19.164600 -14.499300
H -20.592900 -16.767600 -16.545600
C -20.473900 -17.388000 -15.823800
C -20.128900 -19.137800 -13.742200
H -20.013300 -19.761400 -13.020400
H -19.923300 -16.024300 -9.739200
H -19.747600 -17.670400 -11.422400
C -19.306000 -17.363400 -15.078100
C -19.138100 -16.074600 -10.289700
C -19.124100 -18.241500 -14.030500
C -19.044700 -17.031800 -11.281600
H -18.611500 -16.733400 -15.284700
H -18.196600 -14.514100 -9.394200
C -18.127500 -15.172900 -10.088800
O -18.079200 -20.123000 -11.713400
C -17.921600 -17.091700 -12.109000
C -17.829400 -18.159200 -13.197500
C -17.460400 -19.511100 -12.565300
C -17.010000 -15.225300 -10.883300
C -16.898200 -16.176200 -11.885400
N -16.657200 -17.959100 -14.057000
H -16.595000 -17.163400 -14.591200
H -16.299400 -14.595400 -10.734600
N -16.282400 -19.904700 -13.119500
H -16.114000 -16.215800 -12.437000
H -15.919100 -20.761400 -12.883100
C -15.799500 -18.954900 -13.969600
N -14.609600 -19.114300 -14.528600
C -14.135700 -18.144200 -15.297200
N -13.614000 -17.362300 -15.965700
N -15.404500 -22.710200 -12.408700
C -14.882900 -23.492000 -13.077200
N -14.408900 -24.462100 -13.845800
C -13.219000 -24.302800 -14.404700
H -13.099400 -26.109300 -15.491200
H -12.904500 -21.563600 -15.937300
N -12.736100 -25.252500 -15.254800
H -12.719100 -19.943200 -17.639700
H -12.423500 -22.511200 -13.783100
N -12.361300 -23.307000 -14.317300
C -12.120300 -21.524000 -16.488900
C -12.008500 -20.573200 -17.491100
C -11.558100 -24.858900 -15.809000
C -11.189100 -23.507000 -15.176900
C -11.096900 -22.439600 -16.265300
O -10.939300 -25.470800 -16.660900
C -10.891000 -20.520800 -18.285500
H -10.821900 -19.861900 -18.980100
H -10.407000 -22.081300 -13.089600
C -9.973800 -22.379700 -17.092700
C -9.894400 -23.589400 -14.343800
C -9.880400 -21.422400 -18.084700
C -9.712500 -22.711200 -13.296200
H -9.270900 -23.018200 -16.952000
H -9.095200 -21.372100 -18.635100
H -9.005200 -25.109200 -15.353900
C -8.889600 -24.485700 -14.632100
C -8.544600 -22.735800 -12.550500
H -8.425600 -22.115500 -11.828700
C -7.726400 -24.512400 -13.875000
C -7.558500 -23.633200 -12.834300
H -7.016300 -25.122100 -14.089600
H -6.763100 -23.660000 -12.298600
