33
Fragment
H -8.926000 -12.267300 -33.275300
H -8.269600 -10.552000 -31.906800
H -8.260900 -12.317700 -34.871900
C -8.081500 -12.127700 -33.926600
N -7.594100 -10.776500 -33.764400
H -7.500100 -9.248800 -32.337600
C -7.492300 -10.272100 -32.408500
H -7.417700 -12.754900 -33.655400
H -7.410400 -11.249900 -39.458900
C -7.148800 -10.075300 -34.818700
H -7.136700 -11.754400 -38.039700
N -7.079100 -10.620100 -36.050300
H -7.076100 -10.098000 -41.385000
N -6.769200 -8.770400 -34.719800
H -6.751700 -10.459600 -31.856100
C -6.695500 -11.166700 -38.729100
C -6.638000 -9.595200 -36.841000
C -6.439000 -8.433200 -35.976800
C -6.438900 -9.776800 -38.217100
C -6.016300 -9.945000 -41.369800
C -6.011000 -8.730000 -39.061100
C -5.969900 -7.153500 -36.301200
H -5.871300 -6.533000 -35.530800
H -5.864300 -11.746000 -39.028100
N -5.821200 -8.820000 -40.457500
C -5.669500 -7.388100 -38.756900
C -5.631400 -6.697800 -37.543000
H -5.622400 -9.694400 -42.272000
H -5.539800 -10.678200 -41.106200
C -5.405100 -7.598300 -40.857900
N -5.289200 -6.713800 -39.910100
H -5.284700 -5.759500 -37.608900
Cl -5.047300 -7.248500 -42.482400
33
Fragment
Cl -3.506400 -9.567500 -33.546400
H -3.269000 -11.056500 -38.419900
N -3.264500 -10.102200 -36.118800
C -3.148600 -9.217700 -35.170900
H -3.013900 -6.137800 -34.922600
H -2.931300 -7.121600 -33.756800
C -2.922300 -10.118200 -38.485800
C -2.884200 -9.427900 -37.271900
N -2.732500 -7.996000 -35.571300
H -2.689400 -5.070000 -37.000700
H -2.682400 -10.283000 -40.498000
C -2.583800 -9.662500 -39.727600
C -2.542700 -8.086000 -36.967700
C -2.537400 -6.871000 -34.659000
C -2.114800 -7.039200 -37.811700
C -2.114700 -8.382800 -40.052000
C -1.915700 -7.220800 -39.187800
C -1.858200 -5.649300 -37.299700
H -1.802000 -6.356400 -44.172700
N -1.784500 -8.045600 -41.309000
H -1.477600 -6.718000 -34.643800
N -1.474600 -6.195900 -39.978500
H -1.417000 -5.061600 -37.989100
C -1.404900 -6.740700 -41.210100
H -1.143300 -5.566100 -36.569900
H -1.136000 -4.061100 -42.373400
C -1.061400 -6.543900 -43.620300
H -1.053600 -7.567200 -43.691200
N -0.959600 -6.039500 -42.264400
C -0.472200 -4.688300 -42.102200
H -0.292800 -4.498300 -41.156900
H -0.284100 -6.264000 -44.122000
H 0.372300 -4.548700 -42.753500
66
Fragment
H -8.926000 -12.267300 -33.275300
H -8.269600 -10.552000 -31.906800
H -8.260900 -12.317700 -34.871900
C -8.081500 -12.127700 -33.926600
N -7.594100 -10.776500 -33.764400
H -7.500100 -9.248800 -32.337600
C -7.492300 -10.272100 -32.408500
H -7.417700 -12.754900 -33.655400
H -7.410400 -11.249900 -39.458900
C -7.148800 -10.075300 -34.818700
H -7.136700 -11.754400 -38.039700
N -7.079100 -10.620100 -36.050300
H -7.076100 -10.098000 -41.385000
N -6.769200 -8.770400 -34.719800
H -6.751700 -10.459600 -31.856100
C -6.695500 -11.166700 -38.729100
C -6.638000 -9.595200 -36.841000
C -6.439000 -8.433200 -35.976800
C -6.438900 -9.776800 -38.217100
C -6.016300 -9.945000 -41.369800
C -6.011000 -8.730000 -39.061100
C -5.969900 -7.153500 -36.301200
H -5.871300 -6.533000 -35.530800
H -5.864300 -11.746000 -39.028100
N -5.821200 -8.820000 -40.457500
C -5.669500 -7.388100 -38.756900
C -5.631400 -6.697800 -37.543000
H -5.622400 -9.694400 -42.272000
H -5.539800 -10.678200 -41.106200
C -5.405100 -7.598300 -40.857900
N -5.289200 -6.713800 -39.910100
H -5.284700 -5.759500 -37.608900
Cl -5.047300 -7.248500 -42.482400
Cl -3.506400 -9.567500 -33.546400
H -3.269000 -11.056500 -38.419900
N -3.264500 -10.102200 -36.118800
C -3.148600 -9.217700 -35.170900
H -3.013900 -6.137800 -34.922600
H -2.931300 -7.121600 -33.756800
C -2.922300 -10.118200 -38.485800
C -2.884200 -9.427900 -37.271900
N -2.732500 -7.996000 -35.571300
H -2.689400 -5.070000 -37.000700
H -2.682400 -10.283000 -40.498000
C -2.583800 -9.662500 -39.727600
C -2.542700 -8.086000 -36.967700
C -2.537400 -6.871000 -34.659000
C -2.114800 -7.039200 -37.811700
C -2.114700 -8.382800 -40.052000
C -1.915700 -7.220800 -39.187800
C -1.858200 -5.649300 -37.299700
H -1.802000 -6.356400 -44.172700
N -1.784500 -8.045600 -41.309000
H -1.477600 -6.718000 -34.643800
N -1.474600 -6.195900 -39.978500
H -1.417000 -5.061600 -37.989100
C -1.404900 -6.740700 -41.210100
H -1.143300 -5.566100 -36.569900
H -1.136000 -4.061100 -42.373400
C -1.061400 -6.543900 -43.620300
H -1.053600 -7.567200 -43.691200
N -0.959600 -6.039500 -42.264400
C -0.472200 -4.688300 -42.102200
H -0.292800 -4.498300 -41.156900
H -0.284100 -6.264000 -44.122000
H 0.372300 -4.548700 -42.753500
