33
Fragment
H -8.926000 -12.267300 -33.275300
H -8.269600 -10.552000 -31.906800
H -8.260900 -12.317700 -34.871900
C -8.081500 -12.127700 -33.926600
N -7.594100 -10.776500 -33.764400
H -7.500100 -9.248800 -32.337600
C -7.492300 -10.272100 -32.408500
H -7.417700 -12.754900 -33.655400
H -7.410400 -11.249900 -39.458900
C -7.148800 -10.075300 -34.818700
H -7.136700 -11.754400 -38.039700
N -7.079100 -10.620100 -36.050300
H -7.076100 -10.098000 -41.385000
N -6.769200 -8.770400 -34.719800
H -6.751700 -10.459600 -31.856100
C -6.695500 -11.166700 -38.729100
C -6.638000 -9.595200 -36.841000
C -6.439000 -8.433200 -35.976800
C -6.438900 -9.776800 -38.217100
C -6.016300 -9.945000 -41.369800
C -6.011000 -8.730000 -39.061100
C -5.969900 -7.153500 -36.301200
H -5.871300 -6.533000 -35.530800
H -5.864300 -11.746000 -39.028100
N -5.821200 -8.820000 -40.457500
C -5.669500 -7.388100 -38.756900
C -5.631400 -6.697800 -37.543000
H -5.622400 -9.694400 -42.272000
H -5.539800 -10.678200 -41.106200
C -5.405100 -7.598300 -40.857900
N -5.289200 -6.713800 -39.910100
H -5.284700 -5.759500 -37.608900
Cl -5.047300 -7.248500 -42.482400
33
Fragment
Cl -11.790200 -11.452500 -20.875000
H -11.552700 -9.963500 -25.748400
N -11.548200 -10.917800 -23.447300
C -11.432400 -11.802300 -22.499500
H -11.297600 -14.882200 -22.251100
H -11.215000 -13.898400 -21.085300
C -11.206000 -10.901800 -25.814300
C -11.168000 -11.592100 -24.600400
N -11.016200 -13.024000 -22.899900
H -10.973100 -15.950000 -24.329200
H -10.966100 -10.737000 -27.826500
C -10.867500 -11.357500 -27.056100
C -10.826400 -12.934000 -24.296300
C -10.821100 -14.149000 -21.987500
C -10.398500 -13.980800 -25.140200
C -10.398400 -12.637200 -27.380500
C -10.199500 -13.799200 -26.516300
C -10.141900 -15.370700 -24.628300
H -10.085700 -14.663600 -31.501300
N -10.068200 -12.974400 -28.637500
H -9.761300 -14.302000 -21.972300
N -9.758300 -14.824100 -27.307000
H -9.700700 -15.958400 -25.317600
C -9.688600 -14.279300 -28.538700
H -9.427000 -15.453900 -23.898400
H -9.419700 -16.958900 -29.701900
C -9.345100 -14.476100 -30.948800
H -9.337400 -13.452800 -31.019800
N -9.243300 -14.980500 -29.592900
C -8.755900 -16.331700 -29.430800
H -8.576500 -16.521700 -28.485500
H -8.567800 -14.756000 -31.450600
H -7.911400 -16.471300 -30.082100
66
Fragment
H -8.926000 -12.267300 -33.275300
H -8.269600 -10.552000 -31.906800
H -8.260900 -12.317700 -34.871900
C -8.081500 -12.127700 -33.926600
N -7.594100 -10.776500 -33.764400
H -7.500100 -9.248800 -32.337600
C -7.492300 -10.272100 -32.408500
H -7.417700 -12.754900 -33.655400
H -7.410400 -11.249900 -39.458900
C -7.148800 -10.075300 -34.818700
H -7.136700 -11.754400 -38.039700
N -7.079100 -10.620100 -36.050300
H -7.076100 -10.098000 -41.385000
N -6.769200 -8.770400 -34.719800
H -6.751700 -10.459600 -31.856100
C -6.695500 -11.166700 -38.729100
C -6.638000 -9.595200 -36.841000
C -6.439000 -8.433200 -35.976800
C -6.438900 -9.776800 -38.217100
C -6.016300 -9.945000 -41.369800
C -6.011000 -8.730000 -39.061100
C -5.969900 -7.153500 -36.301200
H -5.871300 -6.533000 -35.530800
H -5.864300 -11.746000 -39.028100
N -5.821200 -8.820000 -40.457500
C -5.669500 -7.388100 -38.756900
C -5.631400 -6.697800 -37.543000
H -5.622400 -9.694400 -42.272000
H -5.539800 -10.678200 -41.106200
C -5.405100 -7.598300 -40.857900
N -5.289200 -6.713800 -39.910100
H -5.284700 -5.759500 -37.608900
Cl -5.047300 -7.248500 -42.482400
Cl -11.790200 -11.452500 -20.875000
H -11.552700 -9.963500 -25.748400
N -11.548200 -10.917800 -23.447300
C -11.432400 -11.802300 -22.499500
H -11.297600 -14.882200 -22.251100
H -11.215000 -13.898400 -21.085300
C -11.206000 -10.901800 -25.814300
C -11.168000 -11.592100 -24.600400
N -11.016200 -13.024000 -22.899900
H -10.973100 -15.950000 -24.329200
H -10.966100 -10.737000 -27.826500
C -10.867500 -11.357500 -27.056100
C -10.826400 -12.934000 -24.296300
C -10.821100 -14.149000 -21.987500
C -10.398500 -13.980800 -25.140200
C -10.398400 -12.637200 -27.380500
C -10.199500 -13.799200 -26.516300
C -10.141900 -15.370700 -24.628300
H -10.085700 -14.663600 -31.501300
N -10.068200 -12.974400 -28.637500
H -9.761300 -14.302000 -21.972300
N -9.758300 -14.824100 -27.307000
H -9.700700 -15.958400 -25.317600
C -9.688600 -14.279300 -28.538700
H -9.427000 -15.453900 -23.898400
H -9.419700 -16.958900 -29.701900
C -9.345100 -14.476100 -30.948800
H -9.337400 -13.452800 -31.019800
N -9.243300 -14.980500 -29.592900
C -8.755900 -16.331700 -29.430800
H -8.576500 -16.521700 -28.485500
H -8.567800 -14.756000 -31.450600
H -7.911400 -16.471300 -30.082100
