36
Fragment
O -21.579200 -19.244700 -19.532100
O -20.944300 -19.516200 -17.429800
O -20.871300 -21.927700 -21.615500
N -20.769800 -19.214000 -18.609800
N -20.123100 -22.211500 -20.691900
O -19.985700 -23.275700 -20.123300
H -19.895300 -17.969300 -20.861200
H -19.728700 -20.065600 -21.993800
N -19.509300 -18.759100 -18.947200
O -19.491000 -22.294900 -17.271500
N -19.380800 -21.093600 -20.182500
C -19.182700 -18.628900 -20.366500
C -19.083100 -20.030300 -21.115900
N -18.854900 -21.276700 -17.021200
O -18.670900 -20.757500 -15.930300
O -18.663200 -15.927300 -20.056900
C -18.337100 -19.205600 -18.195500
H -18.315000 -18.805300 -17.178500
N -18.194000 -20.655900 -18.122700
C -18.191600 -21.376700 -19.387700
H -18.119600 -22.452500 -19.201800
N -17.852400 -18.094900 -20.306700
N -17.827900 -16.613700 -20.593100
O -17.740200 -18.825000 -23.084500
N -17.680200 -20.331000 -21.447400
C -17.197300 -18.645600 -19.109100
O -17.026600 -16.317800 -21.461200
N -17.022100 -19.425000 -22.287300
C -16.985000 -20.812000 -20.241100
H -16.600300 -17.883800 -18.624900
N -16.352600 -19.753200 -19.494600
H -16.246900 -21.574300 -20.497100
O -15.802900 -19.346500 -22.162500
N -14.977300 -19.749100 -19.284300
O -14.516400 -18.835700 -18.609700
O -14.349100 -20.685400 -19.777600
36
Fragment
O -21.579200 -9.308600 -19.532100
O -20.944300 -9.580100 -17.429800
O -20.871300 -11.991600 -21.615500
N -20.769800 -9.277900 -18.609800
N -20.123100 -12.275400 -20.691900
O -19.985700 -13.339600 -20.123300
H -19.895300 -8.033200 -20.861200
H -19.728700 -10.129500 -21.993800
N -19.509300 -8.823000 -18.947200
O -19.491000 -12.358800 -17.271500
N -19.380800 -11.157500 -20.182500
C -19.182700 -8.692800 -20.366500
C -19.083100 -10.094200 -21.115900
N -18.854900 -11.340600 -17.021200
O -18.670900 -10.821400 -15.930300
O -18.663200 -5.991200 -20.056900
C -18.337100 -9.269500 -18.195500
H -18.315000 -8.869200 -17.178500
N -18.194000 -10.719800 -18.122700
C -18.191600 -11.440600 -19.387700
H -18.119600 -12.516400 -19.201800
N -17.852400 -8.158800 -20.306700
N -17.827900 -6.677600 -20.593100
O -17.740200 -8.888900 -23.084500
N -17.680200 -10.394900 -21.447400
C -17.197300 -8.709500 -19.109100
O -17.026600 -6.381700 -21.461200
N -17.022100 -9.488900 -22.287300
C -16.985000 -10.875900 -20.241100
H -16.600300 -7.947700 -18.624900
N -16.352600 -9.817100 -19.494600
H -16.246900 -11.638200 -20.497100
O -15.802900 -9.410400 -22.162500
N -14.977300 -9.813000 -19.284300
O -14.516400 -8.899600 -18.609700
O -14.349100 -10.749300 -19.777600
72
Fragment
O -21.579200 -19.244700 -19.532100
O -20.944300 -19.516200 -17.429800
O -20.871300 -21.927700 -21.615500
N -20.769800 -19.214000 -18.609800
N -20.123100 -22.211500 -20.691900
O -19.985700 -23.275700 -20.123300
H -19.895300 -17.969300 -20.861200
H -19.728700 -20.065600 -21.993800
N -19.509300 -18.759100 -18.947200
O -19.491000 -22.294900 -17.271500
N -19.380800 -21.093600 -20.182500
C -19.182700 -18.628900 -20.366500
C -19.083100 -20.030300 -21.115900
N -18.854900 -21.276700 -17.021200
O -18.670900 -20.757500 -15.930300
O -18.663200 -15.927300 -20.056900
C -18.337100 -19.205600 -18.195500
H -18.315000 -18.805300 -17.178500
N -18.194000 -20.655900 -18.122700
C -18.191600 -21.376700 -19.387700
H -18.119600 -22.452500 -19.201800
N -17.852400 -18.094900 -20.306700
N -17.827900 -16.613700 -20.593100
O -17.740200 -18.825000 -23.084500
N -17.680200 -20.331000 -21.447400
C -17.197300 -18.645600 -19.109100
O -17.026600 -16.317800 -21.461200
N -17.022100 -19.425000 -22.287300
C -16.985000 -20.812000 -20.241100
H -16.600300 -17.883800 -18.624900
N -16.352600 -19.753200 -19.494600
H -16.246900 -21.574300 -20.497100
O -15.802900 -19.346500 -22.162500
N -14.977300 -19.749100 -19.284300
O -14.516400 -18.835700 -18.609700
O -14.349100 -20.685400 -19.777600
O -21.579200 -9.308600 -19.532100
O -20.944300 -9.580100 -17.429800
O -20.871300 -11.991600 -21.615500
N -20.769800 -9.277900 -18.609800
N -20.123100 -12.275400 -20.691900
O -19.985700 -13.339600 -20.123300
H -19.895300 -8.033200 -20.861200
H -19.728700 -10.129500 -21.993800
N -19.509300 -8.823000 -18.947200
O -19.491000 -12.358800 -17.271500
N -19.380800 -11.157500 -20.182500
C -19.182700 -8.692800 -20.366500
C -19.083100 -10.094200 -21.115900
N -18.854900 -11.340600 -17.021200
O -18.670900 -10.821400 -15.930300
O -18.663200 -5.991200 -20.056900
C -18.337100 -9.269500 -18.195500
H -18.315000 -8.869200 -17.178500
N -18.194000 -10.719800 -18.122700
C -18.191600 -11.440600 -19.387700
H -18.119600 -12.516400 -19.201800
N -17.852400 -8.158800 -20.306700
N -17.827900 -6.677600 -20.593100
O -17.740200 -8.888900 -23.084500
N -17.680200 -10.394900 -21.447400
C -17.197300 -8.709500 -19.109100
O -17.026600 -6.381700 -21.461200
N -17.022100 -9.488900 -22.287300
C -16.985000 -10.875900 -20.241100
H -16.600300 -7.947700 -18.624900
N -16.352600 -9.817100 -19.494600
H -16.246900 -11.638200 -20.497100
O -15.802900 -9.410400 -22.162500
N -14.977300 -9.813000 -19.284300
O -14.516400 -8.899600 -18.609700
O -14.349100 -10.749300 -19.777600
