36
Fragment
O -21.579200 -19.244700 -19.532100
O -20.944300 -19.516200 -17.429800
O -20.871300 -21.927700 -21.615500
N -20.769800 -19.214000 -18.609800
N -20.123100 -22.211500 -20.691900
O -19.985700 -23.275700 -20.123300
H -19.895300 -17.969300 -20.861200
H -19.728700 -20.065600 -21.993800
N -19.509300 -18.759100 -18.947200
O -19.491000 -22.294900 -17.271500
N -19.380800 -21.093600 -20.182500
C -19.182700 -18.628900 -20.366500
C -19.083100 -20.030300 -21.115900
N -18.854900 -21.276700 -17.021200
O -18.670900 -20.757500 -15.930300
O -18.663200 -15.927300 -20.056900
C -18.337100 -19.205600 -18.195500
H -18.315000 -18.805300 -17.178500
N -18.194000 -20.655900 -18.122700
C -18.191600 -21.376700 -19.387700
H -18.119600 -22.452500 -19.201800
N -17.852400 -18.094900 -20.306700
N -17.827900 -16.613700 -20.593100
O -17.740200 -18.825000 -23.084500
N -17.680200 -20.331000 -21.447400
C -17.197300 -18.645600 -19.109100
O -17.026600 -16.317800 -21.461200
N -17.022100 -19.425000 -22.287300
C -16.985000 -20.812000 -20.241100
H -16.600300 -17.883800 -18.624900
N -16.352600 -19.753200 -19.494600
H -16.246900 -21.574300 -20.497100
O -15.802900 -19.346500 -22.162500
N -14.977300 -19.749100 -19.284300
O -14.516400 -18.835700 -18.609700
O -14.349100 -20.685400 -19.777600
36
Fragment
O -20.126600 -27.130000 -24.629900
O -20.015000 -23.670300 -28.193600
O -19.650900 -21.931100 -26.889000
O -19.529500 -25.989800 -22.846100
N -19.445300 -23.075800 -27.289900
N -19.445000 -26.316400 -24.028600
H -18.512500 -27.034300 -26.342700
O -18.500100 -21.504100 -23.922200
N -18.494400 -25.599900 -24.780800
N -18.486900 -23.801700 -26.569100
H -18.467000 -25.331300 -28.025400
O -18.201000 -23.005400 -22.335900
N -18.135100 -22.586500 -23.489400
C -17.952100 -26.153200 -26.009200
C -17.932300 -25.016800 -27.126200
H -17.535800 -22.021200 -25.920300
H -17.522400 -24.988800 -23.000300
N -17.502800 -23.452300 -24.399800
C -17.459700 -23.104500 -25.792200
C -17.450100 -24.856000 -24.082400
O -16.907800 -28.651400 -26.051300
O -16.762400 -25.078500 -29.573400
N -16.575900 -26.470300 -25.636500
N -16.544900 -24.631000 -27.403100
N -16.257100 -27.839100 -25.418600
N -16.152000 -24.436000 -28.738100
C -16.124100 -25.465100 -24.661900
C -16.115300 -23.685500 -26.373200
H -15.502700 -25.914600 -23.882700
H -15.477200 -22.903600 -26.787200
N -15.406400 -24.390600 -25.314400
O -15.314400 -28.048300 -24.660700
O -15.189200 -23.682000 -28.924400
N -14.017400 -24.513200 -25.448900
O -13.480100 -23.662800 -26.156200
O -13.463400 -25.412800 -24.825000
72
Fragment
O -21.579200 -19.244700 -19.532100
O -20.944300 -19.516200 -17.429800
O -20.871300 -21.927700 -21.615500
N -20.769800 -19.214000 -18.609800
N -20.123100 -22.211500 -20.691900
O -19.985700 -23.275700 -20.123300
H -19.895300 -17.969300 -20.861200
H -19.728700 -20.065600 -21.993800
N -19.509300 -18.759100 -18.947200
O -19.491000 -22.294900 -17.271500
N -19.380800 -21.093600 -20.182500
C -19.182700 -18.628900 -20.366500
C -19.083100 -20.030300 -21.115900
N -18.854900 -21.276700 -17.021200
O -18.670900 -20.757500 -15.930300
O -18.663200 -15.927300 -20.056900
C -18.337100 -19.205600 -18.195500
H -18.315000 -18.805300 -17.178500
N -18.194000 -20.655900 -18.122700
C -18.191600 -21.376700 -19.387700
H -18.119600 -22.452500 -19.201800
N -17.852400 -18.094900 -20.306700
N -17.827900 -16.613700 -20.593100
O -17.740200 -18.825000 -23.084500
N -17.680200 -20.331000 -21.447400
C -17.197300 -18.645600 -19.109100
O -17.026600 -16.317800 -21.461200
N -17.022100 -19.425000 -22.287300
C -16.985000 -20.812000 -20.241100
H -16.600300 -17.883800 -18.624900
N -16.352600 -19.753200 -19.494600
H -16.246900 -21.574300 -20.497100
O -15.802900 -19.346500 -22.162500
N -14.977300 -19.749100 -19.284300
O -14.516400 -18.835700 -18.609700
O -14.349100 -20.685400 -19.777600
O -20.126600 -27.130000 -24.629900
O -20.015000 -23.670300 -28.193600
O -19.650900 -21.931100 -26.889000
O -19.529500 -25.989800 -22.846100
N -19.445300 -23.075800 -27.289900
N -19.445000 -26.316400 -24.028600
H -18.512500 -27.034300 -26.342700
O -18.500100 -21.504100 -23.922200
N -18.494400 -25.599900 -24.780800
N -18.486900 -23.801700 -26.569100
H -18.467000 -25.331300 -28.025400
O -18.201000 -23.005400 -22.335900
N -18.135100 -22.586500 -23.489400
C -17.952100 -26.153200 -26.009200
C -17.932300 -25.016800 -27.126200
H -17.535800 -22.021200 -25.920300
H -17.522400 -24.988800 -23.000300
N -17.502800 -23.452300 -24.399800
C -17.459700 -23.104500 -25.792200
C -17.450100 -24.856000 -24.082400
O -16.907800 -28.651400 -26.051300
O -16.762400 -25.078500 -29.573400
N -16.575900 -26.470300 -25.636500
N -16.544900 -24.631000 -27.403100
N -16.257100 -27.839100 -25.418600
N -16.152000 -24.436000 -28.738100
C -16.124100 -25.465100 -24.661900
C -16.115300 -23.685500 -26.373200
H -15.502700 -25.914600 -23.882700
H -15.477200 -22.903600 -26.787200
N -15.406400 -24.390600 -25.314400
O -15.314400 -28.048300 -24.660700
O -15.189200 -23.682000 -28.924400
N -14.017400 -24.513200 -25.448900
O -13.480100 -23.662800 -26.156200
O -13.463400 -25.412800 -24.825000
