36
Fragment
O -21.579200 -19.244700 -19.532100
O -20.944300 -19.516200 -17.429800
O -20.871300 -21.927700 -21.615500
N -20.769800 -19.214000 -18.609800
N -20.123100 -22.211500 -20.691900
O -19.985700 -23.275700 -20.123300
H -19.895300 -17.969300 -20.861200
H -19.728700 -20.065600 -21.993800
N -19.509300 -18.759100 -18.947200
O -19.491000 -22.294900 -17.271500
N -19.380800 -21.093600 -20.182500
C -19.182700 -18.628900 -20.366500
C -19.083100 -20.030300 -21.115900
N -18.854900 -21.276700 -17.021200
O -18.670900 -20.757500 -15.930300
O -18.663200 -15.927300 -20.056900
C -18.337100 -19.205600 -18.195500
H -18.315000 -18.805300 -17.178500
N -18.194000 -20.655900 -18.122700
C -18.191600 -21.376700 -19.387700
H -18.119600 -22.452500 -19.201800
N -17.852400 -18.094900 -20.306700
N -17.827900 -16.613700 -20.593100
O -17.740200 -18.825000 -23.084500
N -17.680200 -20.331000 -21.447400
C -17.197300 -18.645600 -19.109100
O -17.026600 -16.317800 -21.461200
N -17.022100 -19.425000 -22.287300
C -16.985000 -20.812000 -20.241100
H -16.600300 -17.883800 -18.624900
N -16.352600 -19.753200 -19.494600
H -16.246900 -21.574300 -20.497100
O -15.802900 -19.346500 -22.162500
N -14.977300 -19.749100 -19.284300
O -14.516400 -18.835700 -18.609700
O -14.349100 -20.685400 -19.777600
28
Fragment
O -15.991200 -26.096100 -16.909800
O -15.737500 -26.258900 -19.348400
N -15.306900 -26.210400 -17.877700
H -14.791200 -23.309700 -16.820400
O -14.542100 -23.661300 -21.516200
H -14.478900 -22.920800 -19.230700
O -14.372000 -25.855800 -21.614600
N -14.207400 -24.761800 -21.066800
H -13.992800 -26.779900 -15.995500
N -13.987700 -26.002300 -17.886000
C -13.730700 -23.468100 -16.615600
H -13.647400 -26.783700 -19.814600
N -13.551700 -24.722500 -19.866500
N -13.508900 -24.719000 -15.898600
C -13.488300 -23.391400 -19.243200
C -13.418400 -26.033000 -16.559800
H -13.389700 -22.675200 -15.943200
C -13.299500 -25.968800 -19.175500
N -13.001300 -23.463400 -17.879000
H -12.799900 -22.739400 -19.789600
N -12.761200 -24.698400 -14.730300
O -12.579400 -23.618800 -14.172400
H -12.390200 -26.408200 -16.625300
O -12.368200 -25.805300 -14.322700
H -12.241100 -26.116800 -18.962600
N -11.708500 -23.865400 -17.750100
O -11.203400 -24.432300 -18.707900
O -11.199500 -23.733900 -16.649000
64
Fragment
O -21.579200 -19.244700 -19.532100
O -20.944300 -19.516200 -17.429800
O -20.871300 -21.927700 -21.615500
N -20.769800 -19.214000 -18.609800
N -20.123100 -22.211500 -20.691900
O -19.985700 -23.275700 -20.123300
H -19.895300 -17.969300 -20.861200
H -19.728700 -20.065600 -21.993800
N -19.509300 -18.759100 -18.947200
O -19.491000 -22.294900 -17.271500
N -19.380800 -21.093600 -20.182500
C -19.182700 -18.628900 -20.366500
C -19.083100 -20.030300 -21.115900
N -18.854900 -21.276700 -17.021200
O -18.670900 -20.757500 -15.930300
O -18.663200 -15.927300 -20.056900
C -18.337100 -19.205600 -18.195500
H -18.315000 -18.805300 -17.178500
N -18.194000 -20.655900 -18.122700
C -18.191600 -21.376700 -19.387700
H -18.119600 -22.452500 -19.201800
N -17.852400 -18.094900 -20.306700
N -17.827900 -16.613700 -20.593100
O -17.740200 -18.825000 -23.084500
N -17.680200 -20.331000 -21.447400
C -17.197300 -18.645600 -19.109100
O -17.026600 -16.317800 -21.461200
N -17.022100 -19.425000 -22.287300
C -16.985000 -20.812000 -20.241100
H -16.600300 -17.883800 -18.624900
N -16.352600 -19.753200 -19.494600
H -16.246900 -21.574300 -20.497100
O -15.802900 -19.346500 -22.162500
N -14.977300 -19.749100 -19.284300
O -14.516400 -18.835700 -18.609700
O -14.349100 -20.685400 -19.777600
O -15.991200 -26.096100 -16.909800
O -15.737500 -26.258900 -19.348400
N -15.306900 -26.210400 -17.877700
H -14.791200 -23.309700 -16.820400
O -14.542100 -23.661300 -21.516200
H -14.478900 -22.920800 -19.230700
O -14.372000 -25.855800 -21.614600
N -14.207400 -24.761800 -21.066800
H -13.992800 -26.779900 -15.995500
N -13.987700 -26.002300 -17.886000
C -13.730700 -23.468100 -16.615600
H -13.647400 -26.783700 -19.814600
N -13.551700 -24.722500 -19.866500
N -13.508900 -24.719000 -15.898600
C -13.488300 -23.391400 -19.243200
C -13.418400 -26.033000 -16.559800
H -13.389700 -22.675200 -15.943200
C -13.299500 -25.968800 -19.175500
N -13.001300 -23.463400 -17.879000
H -12.799900 -22.739400 -19.789600
N -12.761200 -24.698400 -14.730300
O -12.579400 -23.618800 -14.172400
H -12.390200 -26.408200 -16.625300
O -12.368200 -25.805300 -14.322700
H -12.241100 -26.116800 -18.962600
N -11.708500 -23.865400 -17.750100
O -11.203400 -24.432300 -18.707900
O -11.199500 -23.733900 -16.649000
