36
Fragment
O -21.579200 -19.244700 -19.532100
O -20.944300 -19.516200 -17.429800
O -20.871300 -21.927700 -21.615500
N -20.769800 -19.214000 -18.609800
N -20.123100 -22.211500 -20.691900
O -19.985700 -23.275700 -20.123300
H -19.895300 -17.969300 -20.861200
H -19.728700 -20.065600 -21.993800
N -19.509300 -18.759100 -18.947200
O -19.491000 -22.294900 -17.271500
N -19.380800 -21.093600 -20.182500
C -19.182700 -18.628900 -20.366500
C -19.083100 -20.030300 -21.115900
N -18.854900 -21.276700 -17.021200
O -18.670900 -20.757500 -15.930300
O -18.663200 -15.927300 -20.056900
C -18.337100 -19.205600 -18.195500
H -18.315000 -18.805300 -17.178500
N -18.194000 -20.655900 -18.122700
C -18.191600 -21.376700 -19.387700
H -18.119600 -22.452500 -19.201800
N -17.852400 -18.094900 -20.306700
N -17.827900 -16.613700 -20.593100
O -17.740200 -18.825000 -23.084500
N -17.680200 -20.331000 -21.447400
C -17.197300 -18.645600 -19.109100
O -17.026600 -16.317800 -21.461200
N -17.022100 -19.425000 -22.287300
C -16.985000 -20.812000 -20.241100
H -16.600300 -17.883800 -18.624900
N -16.352600 -19.753200 -19.494600
H -16.246900 -21.574300 -20.497100
O -15.802900 -19.346500 -22.162500
N -14.977300 -19.749100 -19.284300
O -14.516400 -18.835700 -18.609700
O -14.349100 -20.685400 -19.777600
36
Fragment
O -27.849600 -13.779100 -23.205000
O -27.656100 -15.484700 -21.834000
N -27.222200 -14.677900 -22.652400
H -25.973700 -13.257200 -24.378800
N -25.880100 -14.847500 -23.043100
O -25.835200 -11.187700 -23.472200
H -25.597500 -16.398500 -21.667200
O -25.305000 -15.716600 -19.508000
C -25.232000 -13.799200 -23.797600
C -25.012600 -15.648500 -22.201600
N -24.681900 -11.484100 -23.158300
N -24.475400 -12.883400 -22.924100
H -24.321500 -14.272200 -25.789400
N -24.317400 -15.097200 -19.884000
N -24.268600 -14.804200 -21.275600
C -24.144700 -14.461700 -24.728500
N -24.127300 -15.888100 -24.477600
H -23.906200 -17.389200 -23.056400
C -23.896900 -16.297900 -23.114700
O -23.862800 -16.323500 -26.654600
O -23.747600 -10.730500 -22.964300
N -23.648300 -16.721500 -25.509700
O -23.403000 -14.641600 -19.219400
O -23.120600 -17.770200 -25.168800
C -23.099800 -13.343000 -22.888800
C -22.963700 -14.533000 -21.851000
N -22.939300 -13.803400 -24.251500
N -22.630900 -15.766800 -22.574800
H -22.409200 -12.542800 -22.638400
H -22.222100 -14.298000 -21.083600
N -21.900300 -16.756300 -21.784300
O -21.862500 -17.876300 -22.262800
N -21.707100 -13.961900 -24.833900
O -21.684200 -14.531000 -25.924900
O -21.350700 -16.341700 -20.777100
O -20.752500 -13.496700 -24.207600
72
Fragment
O -21.579200 -19.244700 -19.532100
O -20.944300 -19.516200 -17.429800
O -20.871300 -21.927700 -21.615500
N -20.769800 -19.214000 -18.609800
N -20.123100 -22.211500 -20.691900
O -19.985700 -23.275700 -20.123300
H -19.895300 -17.969300 -20.861200
H -19.728700 -20.065600 -21.993800
N -19.509300 -18.759100 -18.947200
O -19.491000 -22.294900 -17.271500
N -19.380800 -21.093600 -20.182500
C -19.182700 -18.628900 -20.366500
C -19.083100 -20.030300 -21.115900
N -18.854900 -21.276700 -17.021200
O -18.670900 -20.757500 -15.930300
O -18.663200 -15.927300 -20.056900
C -18.337100 -19.205600 -18.195500
H -18.315000 -18.805300 -17.178500
N -18.194000 -20.655900 -18.122700
C -18.191600 -21.376700 -19.387700
H -18.119600 -22.452500 -19.201800
N -17.852400 -18.094900 -20.306700
N -17.827900 -16.613700 -20.593100
O -17.740200 -18.825000 -23.084500
N -17.680200 -20.331000 -21.447400
C -17.197300 -18.645600 -19.109100
O -17.026600 -16.317800 -21.461200
N -17.022100 -19.425000 -22.287300
C -16.985000 -20.812000 -20.241100
H -16.600300 -17.883800 -18.624900
N -16.352600 -19.753200 -19.494600
H -16.246900 -21.574300 -20.497100
O -15.802900 -19.346500 -22.162500
N -14.977300 -19.749100 -19.284300
O -14.516400 -18.835700 -18.609700
O -14.349100 -20.685400 -19.777600
O -27.849600 -13.779100 -23.205000
O -27.656100 -15.484700 -21.834000
N -27.222200 -14.677900 -22.652400
H -25.973700 -13.257200 -24.378800
N -25.880100 -14.847500 -23.043100
O -25.835200 -11.187700 -23.472200
H -25.597500 -16.398500 -21.667200
O -25.305000 -15.716600 -19.508000
C -25.232000 -13.799200 -23.797600
C -25.012600 -15.648500 -22.201600
N -24.681900 -11.484100 -23.158300
N -24.475400 -12.883400 -22.924100
H -24.321500 -14.272200 -25.789400
N -24.317400 -15.097200 -19.884000
N -24.268600 -14.804200 -21.275600
C -24.144700 -14.461700 -24.728500
N -24.127300 -15.888100 -24.477600
H -23.906200 -17.389200 -23.056400
C -23.896900 -16.297900 -23.114700
O -23.862800 -16.323500 -26.654600
O -23.747600 -10.730500 -22.964300
N -23.648300 -16.721500 -25.509700
O -23.403000 -14.641600 -19.219400
O -23.120600 -17.770200 -25.168800
C -23.099800 -13.343000 -22.888800
C -22.963700 -14.533000 -21.851000
N -22.939300 -13.803400 -24.251500
N -22.630900 -15.766800 -22.574800
H -22.409200 -12.542800 -22.638400
H -22.222100 -14.298000 -21.083600
N -21.900300 -16.756300 -21.784300
O -21.862500 -17.876300 -22.262800
N -21.707100 -13.961900 -24.833900
O -21.684200 -14.531000 -25.924900
O -21.350700 -16.341700 -20.777100
O -20.752500 -13.496700 -24.207600
