36
Fragment
O -21.579200 -19.244700 -19.532100
O -20.944300 -19.516200 -17.429800
O -20.871300 -21.927700 -21.615500
N -20.769800 -19.214000 -18.609800
N -20.123100 -22.211500 -20.691900
O -19.985700 -23.275700 -20.123300
H -19.895300 -17.969300 -20.861200
H -19.728700 -20.065600 -21.993800
N -19.509300 -18.759100 -18.947200
O -19.491000 -22.294900 -17.271500
N -19.380800 -21.093600 -20.182500
C -19.182700 -18.628900 -20.366500
C -19.083100 -20.030300 -21.115900
N -18.854900 -21.276700 -17.021200
O -18.670900 -20.757500 -15.930300
O -18.663200 -15.927300 -20.056900
C -18.337100 -19.205600 -18.195500
H -18.315000 -18.805300 -17.178500
N -18.194000 -20.655900 -18.122700
C -18.191600 -21.376700 -19.387700
H -18.119600 -22.452500 -19.201800
N -17.852400 -18.094900 -20.306700
N -17.827900 -16.613700 -20.593100
O -17.740200 -18.825000 -23.084500
N -17.680200 -20.331000 -21.447400
C -17.197300 -18.645600 -19.109100
O -17.026600 -16.317800 -21.461200
N -17.022100 -19.425000 -22.287300
C -16.985000 -20.812000 -20.241100
H -16.600300 -17.883800 -18.624900
N -16.352600 -19.753200 -19.494600
H -16.246900 -21.574300 -20.497100
O -15.802900 -19.346500 -22.162500
N -14.977300 -19.749100 -19.284300
O -14.516400 -18.835700 -18.609700
O -14.349100 -20.685400 -19.777600
36
Fragment
O -28.763400 -20.755800 -17.349100
O -28.736900 -18.854200 -16.247900
N -28.208000 -19.783200 -16.854000
O -27.201000 -20.617900 -14.386300
N -26.818300 -19.684100 -17.040200
H -26.817000 -21.177800 -18.468300
H -26.662700 -18.188300 -15.602500
C -26.119700 -20.679500 -17.797500
C -26.028800 -18.907400 -16.120100
N -25.975400 -20.714200 -14.435800
O -25.548900 -22.949000 -18.816000
N -25.415600 -21.659900 -16.916000
N -25.301800 -19.769800 -15.179000
O -25.273600 -21.553300 -13.868300
N -25.255500 -22.965500 -17.625400
H -25.116900 -20.103000 -19.685000
C -24.997300 -19.973900 -18.608400
N -24.961200 -18.549700 -18.292900
C -24.832900 -18.209600 -16.876700
H -24.830500 -17.123900 -16.748600
O -24.817800 -23.863400 -16.947600
O -24.076800 -18.139700 -20.323700
C -24.023200 -21.166100 -16.821100
N -23.973300 -17.908900 -19.123500
C -23.962400 -20.066700 -15.699200
N -23.767400 -20.608400 -18.147400
N -23.633100 -18.788300 -16.268700
O -23.423700 -21.384300 -20.248900
H -23.322000 -21.973200 -16.592800
H -23.264400 -20.359400 -14.914100
O -23.162000 -17.197700 -18.561700
N -23.068800 -21.441000 -19.077300
O -22.718400 -16.783200 -15.796900
N -22.671400 -17.992500 -15.606500
O -22.138700 -22.077300 -18.606000
O -21.831600 -18.619100 -14.966700
72
Fragment
O -21.579200 -19.244700 -19.532100
O -20.944300 -19.516200 -17.429800
O -20.871300 -21.927700 -21.615500
N -20.769800 -19.214000 -18.609800
N -20.123100 -22.211500 -20.691900
O -19.985700 -23.275700 -20.123300
H -19.895300 -17.969300 -20.861200
H -19.728700 -20.065600 -21.993800
N -19.509300 -18.759100 -18.947200
O -19.491000 -22.294900 -17.271500
N -19.380800 -21.093600 -20.182500
C -19.182700 -18.628900 -20.366500
C -19.083100 -20.030300 -21.115900
N -18.854900 -21.276700 -17.021200
O -18.670900 -20.757500 -15.930300
O -18.663200 -15.927300 -20.056900
C -18.337100 -19.205600 -18.195500
H -18.315000 -18.805300 -17.178500
N -18.194000 -20.655900 -18.122700
C -18.191600 -21.376700 -19.387700
H -18.119600 -22.452500 -19.201800
N -17.852400 -18.094900 -20.306700
N -17.827900 -16.613700 -20.593100
O -17.740200 -18.825000 -23.084500
N -17.680200 -20.331000 -21.447400
C -17.197300 -18.645600 -19.109100
O -17.026600 -16.317800 -21.461200
N -17.022100 -19.425000 -22.287300
C -16.985000 -20.812000 -20.241100
H -16.600300 -17.883800 -18.624900
N -16.352600 -19.753200 -19.494600
H -16.246900 -21.574300 -20.497100
O -15.802900 -19.346500 -22.162500
N -14.977300 -19.749100 -19.284300
O -14.516400 -18.835700 -18.609700
O -14.349100 -20.685400 -19.777600
O -28.763400 -20.755800 -17.349100
O -28.736900 -18.854200 -16.247900
N -28.208000 -19.783200 -16.854000
O -27.201000 -20.617900 -14.386300
N -26.818300 -19.684100 -17.040200
H -26.817000 -21.177800 -18.468300
H -26.662700 -18.188300 -15.602500
C -26.119700 -20.679500 -17.797500
C -26.028800 -18.907400 -16.120100
N -25.975400 -20.714200 -14.435800
O -25.548900 -22.949000 -18.816000
N -25.415600 -21.659900 -16.916000
N -25.301800 -19.769800 -15.179000
O -25.273600 -21.553300 -13.868300
N -25.255500 -22.965500 -17.625400
H -25.116900 -20.103000 -19.685000
C -24.997300 -19.973900 -18.608400
N -24.961200 -18.549700 -18.292900
C -24.832900 -18.209600 -16.876700
H -24.830500 -17.123900 -16.748600
O -24.817800 -23.863400 -16.947600
O -24.076800 -18.139700 -20.323700
C -24.023200 -21.166100 -16.821100
N -23.973300 -17.908900 -19.123500
C -23.962400 -20.066700 -15.699200
N -23.767400 -20.608400 -18.147400
N -23.633100 -18.788300 -16.268700
O -23.423700 -21.384300 -20.248900
H -23.322000 -21.973200 -16.592800
H -23.264400 -20.359400 -14.914100
O -23.162000 -17.197700 -18.561700
N -23.068800 -21.441000 -19.077300
O -22.718400 -16.783200 -15.796900
N -22.671400 -17.992500 -15.606500
O -22.138700 -22.077300 -18.606000
O -21.831600 -18.619100 -14.966700
