36
Fragment
O -21.579200 -19.244700 -19.532100
O -20.944300 -19.516200 -17.429800
O -20.871300 -21.927700 -21.615500
N -20.769800 -19.214000 -18.609800
N -20.123100 -22.211500 -20.691900
O -19.985700 -23.275700 -20.123300
H -19.895300 -17.969300 -20.861200
H -19.728700 -20.065600 -21.993800
N -19.509300 -18.759100 -18.947200
O -19.491000 -22.294900 -17.271500
N -19.380800 -21.093600 -20.182500
C -19.182700 -18.628900 -20.366500
C -19.083100 -20.030300 -21.115900
N -18.854900 -21.276700 -17.021200
O -18.670900 -20.757500 -15.930300
O -18.663200 -15.927300 -20.056900
C -18.337100 -19.205600 -18.195500
H -18.315000 -18.805300 -17.178500
N -18.194000 -20.655900 -18.122700
C -18.191600 -21.376700 -19.387700
H -18.119600 -22.452500 -19.201800
N -17.852400 -18.094900 -20.306700
N -17.827900 -16.613700 -20.593100
O -17.740200 -18.825000 -23.084500
N -17.680200 -20.331000 -21.447400
C -17.197300 -18.645600 -19.109100
O -17.026600 -16.317800 -21.461200
N -17.022100 -19.425000 -22.287300
C -16.985000 -20.812000 -20.241100
H -16.600300 -17.883800 -18.624900
N -16.352600 -19.753200 -19.494600
H -16.246900 -21.574300 -20.497100
O -15.802900 -19.346500 -22.162500
N -14.977300 -19.749100 -19.284300
O -14.516400 -18.835700 -18.609700
O -14.349100 -20.685400 -19.777600
28
Fragment
O -15.032000 -21.017500 -25.113200
O -15.025600 -21.730700 -23.036700
N -14.492200 -21.249300 -24.028400
H -13.613400 -18.278800 -22.987400
O -13.610100 -18.586500 -27.482100
H -13.390800 -17.945000 -25.122700
O -13.349500 -20.761800 -27.685600
N -13.199700 -19.691000 -27.086500
H -13.138400 -21.702100 -22.036200
N -13.131900 -20.927300 -23.931300
H -12.713600 -21.708100 -25.822800
C -12.572400 -18.463900 -22.712500
C -12.522200 -21.042100 -22.648000
N -12.481100 -19.677500 -25.912400
N -12.449600 -19.719700 -21.992600
C -12.387800 -18.362900 -25.247700
C -12.372600 -20.908900 -25.166900
H -12.228800 -17.676200 -22.035600
N -11.803400 -18.475800 -23.944600
H -11.772600 -17.695500 -25.856900
N -11.761100 -19.750600 -20.823600
O -11.612500 -18.707400 -20.173700
H -11.509200 -21.446500 -22.737000
O -11.357400 -20.883900 -20.483200
H -11.329100 -21.096600 -24.921800
N -10.413800 -18.399900 -23.841900
O -9.959700 -18.338000 -22.695300
O -9.777400 -18.424700 -24.890000
64
Fragment
O -21.579200 -19.244700 -19.532100
O -20.944300 -19.516200 -17.429800
O -20.871300 -21.927700 -21.615500
N -20.769800 -19.214000 -18.609800
N -20.123100 -22.211500 -20.691900
O -19.985700 -23.275700 -20.123300
H -19.895300 -17.969300 -20.861200
H -19.728700 -20.065600 -21.993800
N -19.509300 -18.759100 -18.947200
O -19.491000 -22.294900 -17.271500
N -19.380800 -21.093600 -20.182500
C -19.182700 -18.628900 -20.366500
C -19.083100 -20.030300 -21.115900
N -18.854900 -21.276700 -17.021200
O -18.670900 -20.757500 -15.930300
O -18.663200 -15.927300 -20.056900
C -18.337100 -19.205600 -18.195500
H -18.315000 -18.805300 -17.178500
N -18.194000 -20.655900 -18.122700
C -18.191600 -21.376700 -19.387700
H -18.119600 -22.452500 -19.201800
N -17.852400 -18.094900 -20.306700
N -17.827900 -16.613700 -20.593100
O -17.740200 -18.825000 -23.084500
N -17.680200 -20.331000 -21.447400
C -17.197300 -18.645600 -19.109100
O -17.026600 -16.317800 -21.461200
N -17.022100 -19.425000 -22.287300
C -16.985000 -20.812000 -20.241100
H -16.600300 -17.883800 -18.624900
N -16.352600 -19.753200 -19.494600
H -16.246900 -21.574300 -20.497100
O -15.802900 -19.346500 -22.162500
N -14.977300 -19.749100 -19.284300
O -14.516400 -18.835700 -18.609700
O -14.349100 -20.685400 -19.777600
O -15.032000 -21.017500 -25.113200
O -15.025600 -21.730700 -23.036700
N -14.492200 -21.249300 -24.028400
H -13.613400 -18.278800 -22.987400
O -13.610100 -18.586500 -27.482100
H -13.390800 -17.945000 -25.122700
O -13.349500 -20.761800 -27.685600
N -13.199700 -19.691000 -27.086500
H -13.138400 -21.702100 -22.036200
N -13.131900 -20.927300 -23.931300
H -12.713600 -21.708100 -25.822800
C -12.572400 -18.463900 -22.712500
C -12.522200 -21.042100 -22.648000
N -12.481100 -19.677500 -25.912400
N -12.449600 -19.719700 -21.992600
C -12.387800 -18.362900 -25.247700
C -12.372600 -20.908900 -25.166900
H -12.228800 -17.676200 -22.035600
N -11.803400 -18.475800 -23.944600
H -11.772600 -17.695500 -25.856900
N -11.761100 -19.750600 -20.823600
O -11.612500 -18.707400 -20.173700
H -11.509200 -21.446500 -22.737000
O -11.357400 -20.883900 -20.483200
H -11.329100 -21.096600 -24.921800
N -10.413800 -18.399900 -23.841900
O -9.959700 -18.338000 -22.695300
O -9.777400 -18.424700 -24.890000
