8
Fragment
O -8.545800 -27.203100 -31.878500
H -8.160700 -26.575800 -34.204600
C -7.480000 -27.052900 -32.479800
N -7.432100 -26.704000 -33.766400
H -6.672200 -26.607000 -34.157600
N -6.307200 -27.264200 -31.859400
H -6.294600 -27.506600 -31.034600
H -5.569000 -27.156700 -32.287300
8
Fragment
O -13.649200 -27.203100 -31.878500
H -13.264100 -26.575800 -34.204600
C -12.583400 -27.052900 -32.479800
N -12.535500 -26.704000 -33.766400
H -11.775600 -26.607000 -34.157600
N -11.410600 -27.264200 -31.859400
H -11.398000 -27.506600 -31.034600
H -10.672400 -27.156700 -32.287300
16
Fragment
O -8.545800 -27.203100 -31.878500
H -8.160700 -26.575800 -34.204600
C -7.480000 -27.052900 -32.479800
N -7.432100 -26.704000 -33.766400
H -6.672200 -26.607000 -34.157600
N -6.307200 -27.264200 -31.859400
H -6.294600 -27.506600 -31.034600
H -5.569000 -27.156700 -32.287300
O -13.649200 -27.203100 -31.878500
H -13.264100 -26.575800 -34.204600
C -12.583400 -27.052900 -32.479800
N -12.535500 -26.704000 -33.766400
H -11.775600 -26.607000 -34.157600
N -11.410600 -27.264200 -31.859400
H -11.398000 -27.506600 -31.034600
H -10.672400 -27.156700 -32.287300
