8
Fragment
O -8.545800 -27.203100 -31.878500
H -8.160700 -26.575800 -34.204600
C -7.480000 -27.052900 -32.479800
N -7.432100 -26.704000 -33.766400
H -6.672200 -26.607000 -34.157600
N -6.307200 -27.264200 -31.859400
H -6.294600 -27.506600 -31.034600
H -5.569000 -27.156700 -32.287300
8
Fragment
O -3.442400 -27.203100 -31.878500
H -3.057300 -26.575800 -34.204600
C -2.376600 -27.052900 -32.479800
N -2.328700 -26.704000 -33.766400
H -1.568800 -26.607000 -34.157600
N -1.203800 -27.264200 -31.859400
H -1.191200 -27.506600 -31.034600
H -0.465600 -27.156700 -32.287300
16
Fragment
O -8.545800 -27.203100 -31.878500
H -8.160700 -26.575800 -34.204600
C -7.480000 -27.052900 -32.479800
N -7.432100 -26.704000 -33.766400
H -6.672200 -26.607000 -34.157600
N -6.307200 -27.264200 -31.859400
H -6.294600 -27.506600 -31.034600
H -5.569000 -27.156700 -32.287300
O -3.442400 -27.203100 -31.878500
H -3.057300 -26.575800 -34.204600
C -2.376600 -27.052900 -32.479800
N -2.328700 -26.704000 -33.766400
H -1.568800 -26.607000 -34.157600
N -1.203800 -27.264200 -31.859400
H -1.191200 -27.506600 -31.034600
H -0.465600 -27.156700 -32.287300
