8
Fragment
O -8.545800 -27.203100 -31.878500
H -8.160700 -26.575800 -34.204600
C -7.480000 -27.052900 -32.479800
N -7.432100 -26.704000 -33.766400
H -6.672200 -26.607000 -34.157600
N -6.307200 -27.264200 -31.859400
H -6.294600 -27.506600 -31.034600
H -5.569000 -27.156700 -32.287300
36
Fragment
H -6.932700 -22.890300 -28.144400
H -6.853800 -21.864000 -29.326800
H -6.508400 -24.861200 -28.594400
C -6.340000 -22.410100 -28.727300
H -6.140700 -25.180600 -30.084400
C -5.829900 -24.780700 -29.268800
H -5.759400 -21.852300 -28.204500
N -5.537000 -23.362600 -29.500400
H -5.033000 -25.228700 -28.976100
H -4.880200 -20.938400 -30.146400
C -4.627000 -22.949500 -30.391900
C -4.377200 -21.573000 -30.603800
H -4.033700 -24.791600 -31.073100
C -3.863300 -23.881400 -31.158800
C -3.411600 -21.169300 -31.467400
H -3.272100 -20.258200 -31.592200
C -2.908300 -23.468400 -31.997400
C -2.615300 -22.082400 -32.179100
H -2.421000 -24.100300 -32.475400
C -1.619400 -21.611000 -33.040200
H -1.509900 -20.689200 -33.094900
N -0.827500 -22.348100 -33.775700
H -0.574100 -24.093000 -34.032200
O -0.287600 -24.747500 -34.434800
H 0.007700 -19.888900 -34.365700
C 0.179900 -21.911000 -34.661100
C 0.488600 -20.538200 -34.825000
C 0.579800 -24.377300 -35.279900
C 0.884000 -22.876500 -35.368400
O 1.145600 -25.144200 -36.032400
C 1.504300 -20.182400 -35.668500
H 1.719000 -19.284200 -35.771400
C 1.897300 -22.470800 -36.219000
C 2.217100 -21.137700 -36.371300
H 2.372700 -23.109800 -36.698200
H 2.906200 -20.882100 -36.941700
44
Fragment
O -8.545800 -27.203100 -31.878500
H -8.160700 -26.575800 -34.204600
C -7.480000 -27.052900 -32.479800
N -7.432100 -26.704000 -33.766400
H -6.672200 -26.607000 -34.157600
N -6.307200 -27.264200 -31.859400
H -6.294600 -27.506600 -31.034600
H -5.569000 -27.156700 -32.287300
H -6.932700 -22.890300 -28.144400
H -6.853800 -21.864000 -29.326800
H -6.508400 -24.861200 -28.594400
C -6.340000 -22.410100 -28.727300
H -6.140700 -25.180600 -30.084400
C -5.829900 -24.780700 -29.268800
H -5.759400 -21.852300 -28.204500
N -5.537000 -23.362600 -29.500400
H -5.033000 -25.228700 -28.976100
H -4.880200 -20.938400 -30.146400
C -4.627000 -22.949500 -30.391900
C -4.377200 -21.573000 -30.603800
H -4.033700 -24.791600 -31.073100
C -3.863300 -23.881400 -31.158800
C -3.411600 -21.169300 -31.467400
H -3.272100 -20.258200 -31.592200
C -2.908300 -23.468400 -31.997400
C -2.615300 -22.082400 -32.179100
H -2.421000 -24.100300 -32.475400
C -1.619400 -21.611000 -33.040200
H -1.509900 -20.689200 -33.094900
N -0.827500 -22.348100 -33.775700
H -0.574100 -24.093000 -34.032200
O -0.287600 -24.747500 -34.434800
H 0.007700 -19.888900 -34.365700
C 0.179900 -21.911000 -34.661100
C 0.488600 -20.538200 -34.825000
C 0.579800 -24.377300 -35.279900
C 0.884000 -22.876500 -35.368400
O 1.145600 -25.144200 -36.032400
C 1.504300 -20.182400 -35.668500
H 1.719000 -19.284200 -35.771400
C 1.897300 -22.470800 -36.219000
C 2.217100 -21.137700 -36.371300
H 2.372700 -23.109800 -36.698200
H 2.906200 -20.882100 -36.941700
