8
Fragment
O -8.545800 -27.203100 -31.878500
H -8.160700 -26.575800 -34.204600
C -7.480000 -27.052900 -32.479800
N -7.432100 -26.704000 -33.766400
H -6.672200 -26.607000 -34.157600
N -6.307200 -27.264200 -31.859400
H -6.294600 -27.506600 -31.034600
H -5.569000 -27.156700 -32.287300
8
Fragment
H -9.206000 -27.851300 -28.495700
H -8.480300 -27.501400 -29.748400
N -8.467800 -27.743800 -28.923600
H -8.102800 -28.401000 -26.625400
N -7.342800 -28.304000 -27.016600
C -7.294900 -27.955100 -28.303200
H -6.614200 -28.432200 -26.578400
O -6.229100 -27.804900 -28.904600
16
Fragment
O -8.545800 -27.203100 -31.878500
H -8.160700 -26.575800 -34.204600
C -7.480000 -27.052900 -32.479800
N -7.432100 -26.704000 -33.766400
H -6.672200 -26.607000 -34.157600
N -6.307200 -27.264200 -31.859400
H -6.294600 -27.506600 -31.034600
H -5.569000 -27.156700 -32.287300
H -9.206000 -27.851300 -28.495700
H -8.480300 -27.501400 -29.748400
N -8.467800 -27.743800 -28.923600
H -8.102800 -28.401000 -26.625400
N -7.342800 -28.304000 -27.016600
C -7.294900 -27.955100 -28.303200
H -6.614200 -28.432200 -26.578400
O -6.229100 -27.804900 -28.904600
