8
Fragment
O -8.545800 -27.203100 -31.878500
H -8.160700 -26.575800 -34.204600
C -7.480000 -27.052900 -32.479800
N -7.432100 -26.704000 -33.766400
H -6.672200 -26.607000 -34.157600
N -6.307200 -27.264200 -31.859400
H -6.294600 -27.506600 -31.034600
H -5.569000 -27.156700 -32.287300
36
Fragment
H -12.036100 -22.890300 -28.144400
H -11.957200 -21.864000 -29.326800
H -11.611800 -24.861200 -28.594400
C -11.443400 -22.410100 -28.727300
H -11.244100 -25.180600 -30.084400
C -10.933300 -24.780700 -29.268800
H -10.862800 -21.852300 -28.204500
N -10.640400 -23.362600 -29.500400
H -10.136400 -25.228700 -28.976100
H -9.983600 -20.938400 -30.146400
C -9.730400 -22.949500 -30.391900
C -9.480600 -21.573000 -30.603800
H -9.137100 -24.791600 -31.073100
C -8.966700 -23.881400 -31.158800
C -8.515000 -21.169300 -31.467400
H -8.375500 -20.258200 -31.592200
C -8.011700 -23.468400 -31.997400
C -7.718700 -22.082400 -32.179100
H -7.524400 -24.100300 -32.475400
C -6.722800 -21.611000 -33.040200
H -6.613300 -20.689200 -33.094900
N -5.930900 -22.348100 -33.775700
H -5.677500 -24.093000 -34.032200
O -5.391000 -24.747500 -34.434800
H -5.095700 -19.888900 -34.365700
C -4.923500 -21.911000 -34.661100
C -4.614800 -20.538200 -34.825000
C -4.523600 -24.377300 -35.279900
C -4.219400 -22.876500 -35.368400
O -3.957800 -25.144200 -36.032400
C -3.599100 -20.182400 -35.668500
H -3.384400 -19.284200 -35.771400
C -3.206100 -22.470800 -36.219000
C -2.886300 -21.137700 -36.371300
H -2.730700 -23.109800 -36.698200
H -2.197200 -20.882100 -36.941700
44
Fragment
O -8.545800 -27.203100 -31.878500
H -8.160700 -26.575800 -34.204600
C -7.480000 -27.052900 -32.479800
N -7.432100 -26.704000 -33.766400
H -6.672200 -26.607000 -34.157600
N -6.307200 -27.264200 -31.859400
H -6.294600 -27.506600 -31.034600
H -5.569000 -27.156700 -32.287300
H -12.036100 -22.890300 -28.144400
H -11.957200 -21.864000 -29.326800
H -11.611800 -24.861200 -28.594400
C -11.443400 -22.410100 -28.727300
H -11.244100 -25.180600 -30.084400
C -10.933300 -24.780700 -29.268800
H -10.862800 -21.852300 -28.204500
N -10.640400 -23.362600 -29.500400
H -10.136400 -25.228700 -28.976100
H -9.983600 -20.938400 -30.146400
C -9.730400 -22.949500 -30.391900
C -9.480600 -21.573000 -30.603800
H -9.137100 -24.791600 -31.073100
C -8.966700 -23.881400 -31.158800
C -8.515000 -21.169300 -31.467400
H -8.375500 -20.258200 -31.592200
C -8.011700 -23.468400 -31.997400
C -7.718700 -22.082400 -32.179100
H -7.524400 -24.100300 -32.475400
C -6.722800 -21.611000 -33.040200
H -6.613300 -20.689200 -33.094900
N -5.930900 -22.348100 -33.775700
H -5.677500 -24.093000 -34.032200
O -5.391000 -24.747500 -34.434800
H -5.095700 -19.888900 -34.365700
C -4.923500 -21.911000 -34.661100
C -4.614800 -20.538200 -34.825000
C -4.523600 -24.377300 -35.279900
C -4.219400 -22.876500 -35.368400
O -3.957800 -25.144200 -36.032400
C -3.599100 -20.182400 -35.668500
H -3.384400 -19.284200 -35.771400
C -3.206100 -22.470800 -36.219000
C -2.886300 -21.137700 -36.371300
H -2.730700 -23.109800 -36.698200
H -2.197200 -20.882100 -36.941700
