3
Fragment
H -6.604600 -9.640500 -17.273200
H -6.584500 -10.821700 -16.706500
O -6.183300 -10.208700 -17.176600
3
Fragment
O -4.690900 -11.042800 -14.305500
H -4.289600 -10.429800 -14.775600
H -4.269600 -11.610900 -14.208900
6
Fragment
H -6.604600 -9.640500 -17.273200
H -6.584500 -10.821700 -16.706500
O -6.183300 -10.208700 -17.176600
O -4.690900 -11.042800 -14.305500
H -4.289600 -10.429800 -14.775600
H -4.269600 -11.610900 -14.208900
