3
Fragment
H -6.604600 -9.640500 -17.273200
H -6.584500 -10.821700 -16.706500
O -6.183300 -10.208700 -17.176600
29
Fragment
O -6.902200 -7.171900 -17.387600
Cl -6.703700 -1.060100 -10.427400
H -5.998500 -5.380700 -15.688600
C -5.840300 -6.600500 -17.261600
H -5.688300 -2.318700 -12.691500
N -5.530400 -5.677000 -16.315300
O -5.446700 -3.936300 -14.316300
C -5.091900 -1.453800 -10.963100
C -4.945000 -2.100500 -12.177300
H -4.750100 -6.496300 -18.994200
C -4.604200 -6.769400 -18.092800
H -4.308900 -7.726700 -18.186200
C -4.248500 -3.829900 -14.576200
C -4.220600 -5.254800 -16.404300
H -4.153500 -0.691400 -9.356500
C -4.029700 -1.119200 -10.172900
C -3.664100 -2.419400 -12.615900
N -3.659200 -5.892500 -17.432700
N -3.578400 -4.418500 -15.640800
N -3.388600 -3.088200 -13.819100
C -2.763400 -1.438300 -10.629400
C -2.575700 -2.073600 -11.827800
H -2.563300 -3.119000 -14.072500
C -2.262900 -5.786000 -17.843000
H -2.206500 -5.288200 -18.647900
H -2.023700 -1.216500 -10.111000
H -1.879300 -6.649100 -17.986800
H -1.745900 -5.379900 -17.084300
H -1.714500 -2.274800 -12.115400
32
Fragment
H -6.604600 -9.640500 -17.273200
H -6.584500 -10.821700 -16.706500
O -6.183300 -10.208700 -17.176600
O -6.902200 -7.171900 -17.387600
Cl -6.703700 -1.060100 -10.427400
H -5.998500 -5.380700 -15.688600
C -5.840300 -6.600500 -17.261600
H -5.688300 -2.318700 -12.691500
N -5.530400 -5.677000 -16.315300
O -5.446700 -3.936300 -14.316300
C -5.091900 -1.453800 -10.963100
C -4.945000 -2.100500 -12.177300
H -4.750100 -6.496300 -18.994200
C -4.604200 -6.769400 -18.092800
H -4.308900 -7.726700 -18.186200
C -4.248500 -3.829900 -14.576200
C -4.220600 -5.254800 -16.404300
H -4.153500 -0.691400 -9.356500
C -4.029700 -1.119200 -10.172900
C -3.664100 -2.419400 -12.615900
N -3.659200 -5.892500 -17.432700
N -3.578400 -4.418500 -15.640800
N -3.388600 -3.088200 -13.819100
C -2.763400 -1.438300 -10.629400
C -2.575700 -2.073600 -11.827800
H -2.563300 -3.119000 -14.072500
C -2.262900 -5.786000 -17.843000
H -2.206500 -5.288200 -18.647900
H -2.023700 -1.216500 -10.111000
H -1.879300 -6.649100 -17.986800
H -1.745900 -5.379900 -17.084300
H -1.714500 -2.274800 -12.115400
