3
Fragment
H -6.604600 -9.640500 -17.273200
H -6.584500 -10.821700 -16.706500
O -6.183300 -10.208700 -17.176600
29
Fragment
H -12.760100 -11.119000 -19.366700
H -12.728800 -8.013900 -14.397800
H -12.595400 -6.744600 -13.495300
H -12.451000 -12.177300 -21.371100
H -12.268100 -8.105600 -12.834200
C -12.211700 -7.607800 -13.639100
H -11.911400 -10.274800 -17.409600
C -11.898900 -11.320100 -19.654300
C -11.711300 -11.955500 -20.852700
N -11.086100 -10.305600 -17.663000
N -10.896200 -8.975300 -15.841300
N -10.815400 -7.501300 -14.049400
C -10.810600 -10.974400 -18.866200
C -10.445000 -12.274600 -21.309200
H -10.321100 -12.702400 -22.125600
C -10.254000 -8.139000 -15.077800
C -10.226200 -9.563900 -16.905900
H -10.165700 -5.667100 -13.295900
C -9.870500 -6.624400 -13.389300
H -9.724600 -6.897500 -12.487900
C -9.529600 -11.293300 -19.304800
C -9.382700 -11.940000 -20.519000
O -9.028000 -9.457500 -17.165800
N -8.944200 -7.716700 -15.166800
H -8.786400 -11.075000 -18.790600
C -8.634300 -6.793300 -14.220500
H -8.476200 -8.013100 -15.793500
Cl -7.770900 -12.333700 -21.054700
O -7.572500 -6.221900 -14.094500
32
Fragment
H -6.604600 -9.640500 -17.273200
H -6.584500 -10.821700 -16.706500
O -6.183300 -10.208700 -17.176600
H -12.760100 -11.119000 -19.366700
H -12.728800 -8.013900 -14.397800
H -12.595400 -6.744600 -13.495300
H -12.451000 -12.177300 -21.371100
H -12.268100 -8.105600 -12.834200
C -12.211700 -7.607800 -13.639100
H -11.911400 -10.274800 -17.409600
C -11.898900 -11.320100 -19.654300
C -11.711300 -11.955500 -20.852700
N -11.086100 -10.305600 -17.663000
N -10.896200 -8.975300 -15.841300
N -10.815400 -7.501300 -14.049400
C -10.810600 -10.974400 -18.866200
C -10.445000 -12.274600 -21.309200
H -10.321100 -12.702400 -22.125600
C -10.254000 -8.139000 -15.077800
C -10.226200 -9.563900 -16.905900
H -10.165700 -5.667100 -13.295900
C -9.870500 -6.624400 -13.389300
H -9.724600 -6.897500 -12.487900
C -9.529600 -11.293300 -19.304800
C -9.382700 -11.940000 -20.519000
O -9.028000 -9.457500 -17.165800
N -8.944200 -7.716700 -15.166800
H -8.786400 -11.075000 -18.790600
C -8.634300 -6.793300 -14.220500
H -8.476200 -8.013100 -15.793500
Cl -7.770900 -12.333700 -21.054700
O -7.572500 -6.221900 -14.094500
