26
Fragment
H -14.441200 -12.768300 -21.188500
H -13.927000 -12.499600 -23.420400
H -13.761300 -13.438000 -19.018000
C -13.633800 -13.088300 -21.522300
C -13.329300 -12.924700 -22.848000
N -13.047300 -13.808500 -19.320900
C -12.738300 -13.730600 -20.672900
N -12.603800 -14.437600 -17.292900
O -12.504200 -12.518200 -25.413900
N -12.236000 -14.456700 -18.505100
C -12.124100 -13.398300 -23.323700
N -12.028300 -15.286900 -15.205100
N -11.748800 -13.152300 -24.709600
C -11.713300 -15.161800 -16.486000
C -11.545900 -14.252200 -21.178700
C -11.249800 -14.074800 -22.507600
N -11.028900 -16.026100 -14.683700
H -10.996400 -16.260800 -13.857000
H -10.960400 -14.713800 -20.623100
O -10.676800 -13.563000 -25.099200
C -10.489100 -15.817600 -16.780100
H -10.456500 -14.414000 -22.856800
C -10.098700 -16.356800 -15.572500
C -9.796100 -15.919100 -18.017800
H -9.330800 -16.856200 -15.411100
N -9.236200 -16.007900 -19.010100
12
Fragment
H -8.987200 -17.263900 -10.104300
H -8.845600 -17.013700 -12.571600
H -8.404600 -18.707400 -10.288700
C -8.181600 -17.782300 -10.158600
H -8.016500 -18.311900 -12.864800
C -7.964200 -17.392500 -12.591600
H -7.681600 -17.685400 -9.343900
H -7.419900 -16.904700 -13.214300
N -7.379100 -17.314400 -11.278600
C -6.153800 -16.858200 -11.102600
H -5.836400 -16.834800 -10.229000
O -5.396200 -16.463800 -11.974200
38
Fragment
H -14.441200 -12.768300 -21.188500
H -13.927000 -12.499600 -23.420400
H -13.761300 -13.438000 -19.018000
C -13.633800 -13.088300 -21.522300
C -13.329300 -12.924700 -22.848000
N -13.047300 -13.808500 -19.320900
C -12.738300 -13.730600 -20.672900
N -12.603800 -14.437600 -17.292900
O -12.504200 -12.518200 -25.413900
N -12.236000 -14.456700 -18.505100
C -12.124100 -13.398300 -23.323700
N -12.028300 -15.286900 -15.205100
N -11.748800 -13.152300 -24.709600
C -11.713300 -15.161800 -16.486000
C -11.545900 -14.252200 -21.178700
C -11.249800 -14.074800 -22.507600
N -11.028900 -16.026100 -14.683700
H -10.996400 -16.260800 -13.857000
H -10.960400 -14.713800 -20.623100
O -10.676800 -13.563000 -25.099200
C -10.489100 -15.817600 -16.780100
H -10.456500 -14.414000 -22.856800
C -10.098700 -16.356800 -15.572500
C -9.796100 -15.919100 -18.017800
H -9.330800 -16.856200 -15.411100
N -9.236200 -16.007900 -19.010100
H -8.987200 -17.263900 -10.104300
H -8.845600 -17.013700 -12.571600
H -8.404600 -18.707400 -10.288700
C -8.181600 -17.782300 -10.158600
H -8.016500 -18.311900 -12.864800
C -7.964200 -17.392500 -12.591600
H -7.681600 -17.685400 -9.343900
H -7.419900 -16.904700 -13.214300
N -7.379100 -17.314400 -11.278600
C -6.153800 -16.858200 -11.102600
H -5.836400 -16.834800 -10.229000
O -5.396200 -16.463800 -11.974200
