26
Fragment
H -14.441200 -12.768300 -21.188500
H -13.927000 -12.499600 -23.420400
H -13.761300 -13.438000 -19.018000
C -13.633800 -13.088300 -21.522300
C -13.329300 -12.924700 -22.848000
N -13.047300 -13.808500 -19.320900
C -12.738300 -13.730600 -20.672900
N -12.603800 -14.437600 -17.292900
O -12.504200 -12.518200 -25.413900
N -12.236000 -14.456700 -18.505100
C -12.124100 -13.398300 -23.323700
N -12.028300 -15.286900 -15.205100
N -11.748800 -13.152300 -24.709600
C -11.713300 -15.161800 -16.486000
C -11.545900 -14.252200 -21.178700
C -11.249800 -14.074800 -22.507600
N -11.028900 -16.026100 -14.683700
H -10.996400 -16.260800 -13.857000
H -10.960400 -14.713800 -20.623100
O -10.676800 -13.563000 -25.099200
C -10.489100 -15.817600 -16.780100
H -10.456500 -14.414000 -22.856800
C -10.098700 -16.356800 -15.572500
C -9.796100 -15.919100 -18.017800
H -9.330800 -16.856200 -15.411100
N -9.236200 -16.007900 -19.010100
26
Fragment
N -12.881800 -10.746900 -16.110900
H -12.787100 -9.898600 -19.709900
C -12.321800 -10.835700 -17.103200
C -12.019300 -10.398000 -19.548500
H -11.661500 -12.340800 -12.264300
C -11.628900 -10.937200 -18.340900
O -11.441200 -13.191800 -10.021800
H -11.157500 -12.041000 -14.498000
H -11.121600 -10.494000 -21.264000
N -11.089100 -10.728700 -20.437300
C -10.868200 -12.679900 -12.613400
C -10.572100 -12.502600 -13.942300
C -10.404600 -11.593000 -18.635000
N -10.369200 -13.602500 -10.411400
N -10.089600 -11.467900 -19.915900
C -9.993900 -13.356500 -11.797300
N -9.882000 -12.298100 -16.615900
O -9.613700 -14.236600 -9.707100
N -9.514200 -12.317200 -17.828100
C -9.379700 -13.024100 -14.448100
N -9.070600 -12.946200 -15.800100
C -8.788700 -13.830100 -12.273000
C -8.484100 -13.666500 -13.598700
H -8.356700 -13.316800 -16.103000
H -8.191000 -14.255200 -11.700600
H -7.676800 -13.986500 -13.932500
52
Fragment
H -14.441200 -12.768300 -21.188500
H -13.927000 -12.499600 -23.420400
H -13.761300 -13.438000 -19.018000
C -13.633800 -13.088300 -21.522300
C -13.329300 -12.924700 -22.848000
N -13.047300 -13.808500 -19.320900
C -12.738300 -13.730600 -20.672900
N -12.603800 -14.437600 -17.292900
O -12.504200 -12.518200 -25.413900
N -12.236000 -14.456700 -18.505100
C -12.124100 -13.398300 -23.323700
N -12.028300 -15.286900 -15.205100
N -11.748800 -13.152300 -24.709600
C -11.713300 -15.161800 -16.486000
C -11.545900 -14.252200 -21.178700
C -11.249800 -14.074800 -22.507600
N -11.028900 -16.026100 -14.683700
H -10.996400 -16.260800 -13.857000
H -10.960400 -14.713800 -20.623100
O -10.676800 -13.563000 -25.099200
C -10.489100 -15.817600 -16.780100
H -10.456500 -14.414000 -22.856800
C -10.098700 -16.356800 -15.572500
C -9.796100 -15.919100 -18.017800
H -9.330800 -16.856200 -15.411100
N -9.236200 -16.007900 -19.010100
N -12.881800 -10.746900 -16.110900
H -12.787100 -9.898600 -19.709900
C -12.321800 -10.835700 -17.103200
C -12.019300 -10.398000 -19.548500
H -11.661500 -12.340800 -12.264300
C -11.628900 -10.937200 -18.340900
O -11.441200 -13.191800 -10.021800
H -11.157500 -12.041000 -14.498000
H -11.121600 -10.494000 -21.264000
N -11.089100 -10.728700 -20.437300
C -10.868200 -12.679900 -12.613400
C -10.572100 -12.502600 -13.942300
C -10.404600 -11.593000 -18.635000
N -10.369200 -13.602500 -10.411400
N -10.089600 -11.467900 -19.915900
C -9.993900 -13.356500 -11.797300
N -9.882000 -12.298100 -16.615900
O -9.613700 -14.236600 -9.707100
N -9.514200 -12.317200 -17.828100
C -9.379700 -13.024100 -14.448100
N -9.070600 -12.946200 -15.800100
C -8.788700 -13.830100 -12.273000
C -8.484100 -13.666500 -13.598700
H -8.356700 -13.316800 -16.103000
H -8.191000 -14.255200 -11.700600
H -7.676800 -13.986500 -13.932500
