26
Fragment
H -14.441200 -12.768300 -21.188500
H -13.927000 -12.499600 -23.420400
H -13.761300 -13.438000 -19.018000
C -13.633800 -13.088300 -21.522300
C -13.329300 -12.924700 -22.848000
N -13.047300 -13.808500 -19.320900
C -12.738300 -13.730600 -20.672900
N -12.603800 -14.437600 -17.292900
O -12.504200 -12.518200 -25.413900
N -12.236000 -14.456700 -18.505100
C -12.124100 -13.398300 -23.323700
N -12.028300 -15.286900 -15.205100
N -11.748800 -13.152300 -24.709600
C -11.713300 -15.161800 -16.486000
C -11.545900 -14.252200 -21.178700
C -11.249800 -14.074800 -22.507600
N -11.028900 -16.026100 -14.683700
H -10.996400 -16.260800 -13.857000
H -10.960400 -14.713800 -20.623100
O -10.676800 -13.563000 -25.099200
C -10.489100 -15.817600 -16.780100
H -10.456500 -14.414000 -22.856800
C -10.098700 -16.356800 -15.572500
C -9.796100 -15.919100 -18.017800
H -9.330800 -16.856200 -15.411100
N -9.236200 -16.007900 -19.010100
26
Fragment
N -14.428100 -12.901200 -33.671400
H -14.333400 -12.052900 -37.270400
C -13.868200 -12.990000 -34.663700
C -13.565600 -12.552300 -37.109000
H -13.207800 -14.495100 -29.824800
C -13.175200 -13.091500 -35.901400
O -12.987500 -15.346100 -27.582300
H -12.703800 -14.195300 -32.058500
H -12.667900 -12.648300 -38.824500
N -12.635400 -12.883000 -37.997800
C -12.414500 -14.834300 -30.173900
C -12.118400 -14.656900 -31.502800
C -11.950900 -13.747300 -36.195500
N -11.915500 -15.756800 -27.972000
N -11.636000 -13.622200 -37.476400
C -11.540200 -15.510800 -29.357800
N -11.428300 -14.452400 -34.176400
O -11.160100 -16.390900 -27.267600
N -11.060500 -14.471500 -35.388600
C -10.926000 -15.178500 -32.008600
N -10.616900 -15.100500 -33.360600
C -10.335000 -15.984400 -29.833500
C -10.030500 -15.820800 -31.159200
H -9.903000 -15.471100 -33.663500
H -9.737300 -16.409500 -29.261100
H -9.223100 -16.140800 -31.493000
52
Fragment
H -14.441200 -12.768300 -21.188500
H -13.927000 -12.499600 -23.420400
H -13.761300 -13.438000 -19.018000
C -13.633800 -13.088300 -21.522300
C -13.329300 -12.924700 -22.848000
N -13.047300 -13.808500 -19.320900
C -12.738300 -13.730600 -20.672900
N -12.603800 -14.437600 -17.292900
O -12.504200 -12.518200 -25.413900
N -12.236000 -14.456700 -18.505100
C -12.124100 -13.398300 -23.323700
N -12.028300 -15.286900 -15.205100
N -11.748800 -13.152300 -24.709600
C -11.713300 -15.161800 -16.486000
C -11.545900 -14.252200 -21.178700
C -11.249800 -14.074800 -22.507600
N -11.028900 -16.026100 -14.683700
H -10.996400 -16.260800 -13.857000
H -10.960400 -14.713800 -20.623100
O -10.676800 -13.563000 -25.099200
C -10.489100 -15.817600 -16.780100
H -10.456500 -14.414000 -22.856800
C -10.098700 -16.356800 -15.572500
C -9.796100 -15.919100 -18.017800
H -9.330800 -16.856200 -15.411100
N -9.236200 -16.007900 -19.010100
N -14.428100 -12.901200 -33.671400
H -14.333400 -12.052900 -37.270400
C -13.868200 -12.990000 -34.663700
C -13.565600 -12.552300 -37.109000
H -13.207800 -14.495100 -29.824800
C -13.175200 -13.091500 -35.901400
O -12.987500 -15.346100 -27.582300
H -12.703800 -14.195300 -32.058500
H -12.667900 -12.648300 -38.824500
N -12.635400 -12.883000 -37.997800
C -12.414500 -14.834300 -30.173900
C -12.118400 -14.656900 -31.502800
C -11.950900 -13.747300 -36.195500
N -11.915500 -15.756800 -27.972000
N -11.636000 -13.622200 -37.476400
C -11.540200 -15.510800 -29.357800
N -11.428300 -14.452400 -34.176400
O -11.160100 -16.390900 -27.267600
N -11.060500 -14.471500 -35.388600
C -10.926000 -15.178500 -32.008600
N -10.616900 -15.100500 -33.360600
C -10.335000 -15.984400 -29.833500
C -10.030500 -15.820800 -31.159200
H -9.903000 -15.471100 -33.663500
H -9.737300 -16.409500 -29.261100
H -9.223100 -16.140800 -31.493000
