36
Fragment
H -25.804900 -12.790300 -26.724900
H -25.629200 -10.326400 -27.804300
H -25.597300 -12.648300 -25.170600
C -25.146400 -12.639400 -26.054300
H -25.073500 -11.735900 -28.308000
C -24.843000 -10.875300 -27.739500
H -24.656900 -8.414200 -26.926400
N -24.589600 -11.329100 -26.372300
H -24.503100 -13.293700 -26.091700
H -24.033500 -10.457200 -28.106500
H -23.824500 -12.876500 -22.016000
C -23.780400 -10.711200 -25.464600
H -23.708700 -12.390400 -24.220800
C -23.695000 -8.387200 -26.717700
H -23.426100 -7.443900 -26.422700
C -23.418800 -11.435900 -24.309700
C -23.311500 -9.335500 -25.600800
H -23.247600 -8.586600 -27.588400
C -22.842600 -12.939200 -21.961300
C -22.618500 -10.886800 -23.319600
H -22.607500 -13.234600 -21.069100
C -22.506000 -8.838100 -24.609800
H -22.504400 -13.544900 -22.637700
N -22.282800 -11.587300 -22.178600
H -22.162700 -7.910700 -24.666900
C -22.120900 -9.556100 -23.461900
C -21.462100 -11.032800 -21.229200
N -21.368000 -8.962100 -22.523700
N -21.124800 -11.755100 -20.175400
C -21.049200 -9.671700 -21.455200
C -20.336300 -11.189200 -19.233000
C -20.236200 -9.045200 -20.420300
O -19.967500 -11.816400 -18.233100
N -19.927800 -9.854000 -19.363800
O -19.840000 -7.873600 -20.467400
H -19.404300 -9.514200 -18.665700
14
Fragment
H -26.364800 -17.565700 -31.229400
H -26.160400 -13.609700 -33.575200
N -25.955100 -17.175100 -30.422100
N -25.813800 -15.209800 -31.628500
N -25.637900 -13.251400 -32.827300
H -25.631300 -17.626200 -29.747100
C -25.495900 -15.901100 -30.517600
C -25.347300 -13.947900 -31.718700
H -25.191200 -12.499600 -32.985200
N -24.780000 -15.443000 -29.466600
C -24.594800 -13.375200 -30.674300
C -24.367800 -14.166500 -29.585600
H -24.285900 -12.409900 -30.754500
H -23.808700 -13.913600 -28.739700
50
Fragment
H -25.804900 -12.790300 -26.724900
H -25.629200 -10.326400 -27.804300
H -25.597300 -12.648300 -25.170600
C -25.146400 -12.639400 -26.054300
H -25.073500 -11.735900 -28.308000
C -24.843000 -10.875300 -27.739500
H -24.656900 -8.414200 -26.926400
N -24.589600 -11.329100 -26.372300
H -24.503100 -13.293700 -26.091700
H -24.033500 -10.457200 -28.106500
H -23.824500 -12.876500 -22.016000
C -23.780400 -10.711200 -25.464600
H -23.708700 -12.390400 -24.220800
C -23.695000 -8.387200 -26.717700
H -23.426100 -7.443900 -26.422700
C -23.418800 -11.435900 -24.309700
C -23.311500 -9.335500 -25.600800
H -23.247600 -8.586600 -27.588400
C -22.842600 -12.939200 -21.961300
C -22.618500 -10.886800 -23.319600
H -22.607500 -13.234600 -21.069100
C -22.506000 -8.838100 -24.609800
H -22.504400 -13.544900 -22.637700
N -22.282800 -11.587300 -22.178600
H -22.162700 -7.910700 -24.666900
C -22.120900 -9.556100 -23.461900
C -21.462100 -11.032800 -21.229200
N -21.368000 -8.962100 -22.523700
N -21.124800 -11.755100 -20.175400
C -21.049200 -9.671700 -21.455200
C -20.336300 -11.189200 -19.233000
C -20.236200 -9.045200 -20.420300
O -19.967500 -11.816400 -18.233100
N -19.927800 -9.854000 -19.363800
O -19.840000 -7.873600 -20.467400
H -19.404300 -9.514200 -18.665700
H -26.364800 -17.565700 -31.229400
H -26.160400 -13.609700 -33.575200
N -25.955100 -17.175100 -30.422100
N -25.813800 -15.209800 -31.628500
N -25.637900 -13.251400 -32.827300
H -25.631300 -17.626200 -29.747100
C -25.495900 -15.901100 -30.517600
C -25.347300 -13.947900 -31.718700
H -25.191200 -12.499600 -32.985200
N -24.780000 -15.443000 -29.466600
C -24.594800 -13.375200 -30.674300
C -24.367800 -14.166500 -29.585600
H -24.285900 -12.409900 -30.754500
H -23.808700 -13.913600 -28.739700
