36
Fragment
H -25.804900 -12.790300 -26.724900
H -25.629200 -10.326400 -27.804300
H -25.597300 -12.648300 -25.170600
C -25.146400 -12.639400 -26.054300
H -25.073500 -11.735900 -28.308000
C -24.843000 -10.875300 -27.739500
H -24.656900 -8.414200 -26.926400
N -24.589600 -11.329100 -26.372300
H -24.503100 -13.293700 -26.091700
H -24.033500 -10.457200 -28.106500
H -23.824500 -12.876500 -22.016000
C -23.780400 -10.711200 -25.464600
H -23.708700 -12.390400 -24.220800
C -23.695000 -8.387200 -26.717700
H -23.426100 -7.443900 -26.422700
C -23.418800 -11.435900 -24.309700
C -23.311500 -9.335500 -25.600800
H -23.247600 -8.586600 -27.588400
C -22.842600 -12.939200 -21.961300
C -22.618500 -10.886800 -23.319600
H -22.607500 -13.234600 -21.069100
C -22.506000 -8.838100 -24.609800
H -22.504400 -13.544900 -22.637700
N -22.282800 -11.587300 -22.178600
H -22.162700 -7.910700 -24.666900
C -22.120900 -9.556100 -23.461900
C -21.462100 -11.032800 -21.229200
N -21.368000 -8.962100 -22.523700
N -21.124800 -11.755100 -20.175400
C -21.049200 -9.671700 -21.455200
C -20.336300 -11.189200 -19.233000
C -20.236200 -9.045200 -20.420300
O -19.967500 -11.816400 -18.233100
N -19.927800 -9.854000 -19.363800
O -19.840000 -7.873600 -20.467400
H -19.404300 -9.514200 -18.665700
36
Fragment
H -27.137300 -10.265000 -24.508600
O -26.701600 -11.905600 -22.707000
N -26.613900 -9.925200 -23.810500
O -26.574100 -7.962700 -24.941200
C -26.305500 -10.734000 -22.754000
C -26.205400 -8.590000 -23.941300
C -25.492400 -10.107400 -21.719100
N -25.416800 -8.024100 -22.999000
N -25.173600 -10.817000 -20.650600
C -25.079600 -8.746400 -21.945100
C -24.420700 -10.223100 -19.712400
H -24.378900 -11.868400 -18.507400
N -24.258800 -8.191800 -20.995700
H -24.037300 -6.234200 -20.536600
C -24.035600 -10.941100 -18.564500
H -23.934100 -6.544600 -22.105200
C -23.923100 -8.892400 -19.854700
C -23.699100 -6.839900 -21.213000
H -23.294100 -11.192600 -15.585900
C -23.230100 -10.443600 -17.573500
C -23.122800 -8.343200 -18.864600
H -23.115600 -12.335300 -16.751600
C -22.846600 -11.391900 -16.456600
H -22.833000 -7.388800 -18.953500
C -22.761200 -9.068000 -17.709700
H -22.717100 -6.902700 -21.158300
H -22.508100 -9.322000 -15.067800
H -22.038500 -6.485500 -17.082600
N -21.952000 -8.450100 -16.802000
H -21.884700 -11.364900 -16.247900
C -21.698700 -8.903800 -15.434800
H -21.468100 -8.043300 -14.866400
C -21.395200 -7.139700 -17.120100
H -20.944300 -7.130800 -18.003700
H -20.912500 -9.452700 -15.370100
H -20.736800 -6.988900 -16.449400
72
Fragment
H -25.804900 -12.790300 -26.724900
H -25.629200 -10.326400 -27.804300
H -25.597300 -12.648300 -25.170600
C -25.146400 -12.639400 -26.054300
H -25.073500 -11.735900 -28.308000
C -24.843000 -10.875300 -27.739500
H -24.656900 -8.414200 -26.926400
N -24.589600 -11.329100 -26.372300
H -24.503100 -13.293700 -26.091700
H -24.033500 -10.457200 -28.106500
H -23.824500 -12.876500 -22.016000
C -23.780400 -10.711200 -25.464600
H -23.708700 -12.390400 -24.220800
C -23.695000 -8.387200 -26.717700
H -23.426100 -7.443900 -26.422700
C -23.418800 -11.435900 -24.309700
C -23.311500 -9.335500 -25.600800
H -23.247600 -8.586600 -27.588400
C -22.842600 -12.939200 -21.961300
C -22.618500 -10.886800 -23.319600
H -22.607500 -13.234600 -21.069100
C -22.506000 -8.838100 -24.609800
H -22.504400 -13.544900 -22.637700
N -22.282800 -11.587300 -22.178600
H -22.162700 -7.910700 -24.666900
C -22.120900 -9.556100 -23.461900
C -21.462100 -11.032800 -21.229200
N -21.368000 -8.962100 -22.523700
N -21.124800 -11.755100 -20.175400
C -21.049200 -9.671700 -21.455200
C -20.336300 -11.189200 -19.233000
C -20.236200 -9.045200 -20.420300
O -19.967500 -11.816400 -18.233100
N -19.927800 -9.854000 -19.363800
O -19.840000 -7.873600 -20.467400
H -19.404300 -9.514200 -18.665700
H -27.137300 -10.265000 -24.508600
O -26.701600 -11.905600 -22.707000
N -26.613900 -9.925200 -23.810500
O -26.574100 -7.962700 -24.941200
C -26.305500 -10.734000 -22.754000
C -26.205400 -8.590000 -23.941300
C -25.492400 -10.107400 -21.719100
N -25.416800 -8.024100 -22.999000
N -25.173600 -10.817000 -20.650600
C -25.079600 -8.746400 -21.945100
C -24.420700 -10.223100 -19.712400
H -24.378900 -11.868400 -18.507400
N -24.258800 -8.191800 -20.995700
H -24.037300 -6.234200 -20.536600
C -24.035600 -10.941100 -18.564500
H -23.934100 -6.544600 -22.105200
C -23.923100 -8.892400 -19.854700
C -23.699100 -6.839900 -21.213000
H -23.294100 -11.192600 -15.585900
C -23.230100 -10.443600 -17.573500
C -23.122800 -8.343200 -18.864600
H -23.115600 -12.335300 -16.751600
C -22.846600 -11.391900 -16.456600
H -22.833000 -7.388800 -18.953500
C -22.761200 -9.068000 -17.709700
H -22.717100 -6.902700 -21.158300
H -22.508100 -9.322000 -15.067800
H -22.038500 -6.485500 -17.082600
N -21.952000 -8.450100 -16.802000
H -21.884700 -11.364900 -16.247900
C -21.698700 -8.903800 -15.434800
H -21.468100 -8.043300 -14.866400
C -21.395200 -7.139700 -17.120100
H -20.944300 -7.130800 -18.003700
H -20.912500 -9.452700 -15.370100
H -20.736800 -6.988900 -16.449400
