36
Fragment
H -25.804900 -12.790300 -26.724900
H -25.629200 -10.326400 -27.804300
H -25.597300 -12.648300 -25.170600
C -25.146400 -12.639400 -26.054300
H -25.073500 -11.735900 -28.308000
C -24.843000 -10.875300 -27.739500
H -24.656900 -8.414200 -26.926400
N -24.589600 -11.329100 -26.372300
H -24.503100 -13.293700 -26.091700
H -24.033500 -10.457200 -28.106500
H -23.824500 -12.876500 -22.016000
C -23.780400 -10.711200 -25.464600
H -23.708700 -12.390400 -24.220800
C -23.695000 -8.387200 -26.717700
H -23.426100 -7.443900 -26.422700
C -23.418800 -11.435900 -24.309700
C -23.311500 -9.335500 -25.600800
H -23.247600 -8.586600 -27.588400
C -22.842600 -12.939200 -21.961300
C -22.618500 -10.886800 -23.319600
H -22.607500 -13.234600 -21.069100
C -22.506000 -8.838100 -24.609800
H -22.504400 -13.544900 -22.637700
N -22.282800 -11.587300 -22.178600
H -22.162700 -7.910700 -24.666900
C -22.120900 -9.556100 -23.461900
C -21.462100 -11.032800 -21.229200
N -21.368000 -8.962100 -22.523700
N -21.124800 -11.755100 -20.175400
C -21.049200 -9.671700 -21.455200
C -20.336300 -11.189200 -19.233000
C -20.236200 -9.045200 -20.420300
O -19.967500 -11.816400 -18.233100
N -19.927800 -9.854000 -19.363800
O -19.840000 -7.873600 -20.467400
H -19.404300 -9.514200 -18.665700
36
Fragment
H -31.055500 -9.154000 -38.900100
O -30.619800 -10.794600 -37.098400
N -30.532000 -8.814200 -38.201900
O -30.492300 -6.851700 -39.332700
C -30.223600 -9.623000 -37.145400
C -30.123500 -7.479000 -38.332700
C -29.410600 -8.996400 -36.110600
N -29.335000 -6.913100 -37.390400
N -29.091800 -9.706000 -35.042000
C -28.997700 -7.635400 -36.336500
C -28.338900 -9.112100 -34.103800
H -28.297100 -10.757500 -32.898800
N -28.177000 -7.080800 -35.387100
H -27.955400 -5.123200 -34.928000
C -27.953800 -9.830100 -32.956000
H -27.852300 -5.433600 -36.496700
C -27.841300 -7.781400 -34.246100
C -27.617300 -5.728900 -35.604400
H -27.212200 -10.081600 -29.977400
C -27.148300 -9.332700 -31.965000
C -27.041000 -7.232300 -33.256000
H -27.033800 -11.224300 -31.143100
C -26.764800 -10.281000 -30.848000
H -26.751200 -6.277800 -33.345000
C -26.679400 -7.957000 -32.101100
H -26.635300 -5.791700 -35.549700
H -26.426300 -8.211000 -29.459300
H -25.956700 -5.374500 -31.474100
N -25.870200 -7.339100 -31.193400
H -25.802900 -10.253900 -30.639400
C -25.616900 -7.792900 -29.826300
H -25.386300 -6.932300 -29.257800
C -25.313400 -6.028700 -31.511500
H -24.862500 -6.019800 -32.395100
H -24.830600 -8.341800 -29.761500
H -24.654900 -5.877900 -30.840800
72
Fragment
H -25.804900 -12.790300 -26.724900
H -25.629200 -10.326400 -27.804300
H -25.597300 -12.648300 -25.170600
C -25.146400 -12.639400 -26.054300
H -25.073500 -11.735900 -28.308000
C -24.843000 -10.875300 -27.739500
H -24.656900 -8.414200 -26.926400
N -24.589600 -11.329100 -26.372300
H -24.503100 -13.293700 -26.091700
H -24.033500 -10.457200 -28.106500
H -23.824500 -12.876500 -22.016000
C -23.780400 -10.711200 -25.464600
H -23.708700 -12.390400 -24.220800
C -23.695000 -8.387200 -26.717700
H -23.426100 -7.443900 -26.422700
C -23.418800 -11.435900 -24.309700
C -23.311500 -9.335500 -25.600800
H -23.247600 -8.586600 -27.588400
C -22.842600 -12.939200 -21.961300
C -22.618500 -10.886800 -23.319600
H -22.607500 -13.234600 -21.069100
C -22.506000 -8.838100 -24.609800
H -22.504400 -13.544900 -22.637700
N -22.282800 -11.587300 -22.178600
H -22.162700 -7.910700 -24.666900
C -22.120900 -9.556100 -23.461900
C -21.462100 -11.032800 -21.229200
N -21.368000 -8.962100 -22.523700
N -21.124800 -11.755100 -20.175400
C -21.049200 -9.671700 -21.455200
C -20.336300 -11.189200 -19.233000
C -20.236200 -9.045200 -20.420300
O -19.967500 -11.816400 -18.233100
N -19.927800 -9.854000 -19.363800
O -19.840000 -7.873600 -20.467400
H -19.404300 -9.514200 -18.665700
H -31.055500 -9.154000 -38.900100
O -30.619800 -10.794600 -37.098400
N -30.532000 -8.814200 -38.201900
O -30.492300 -6.851700 -39.332700
C -30.223600 -9.623000 -37.145400
C -30.123500 -7.479000 -38.332700
C -29.410600 -8.996400 -36.110600
N -29.335000 -6.913100 -37.390400
N -29.091800 -9.706000 -35.042000
C -28.997700 -7.635400 -36.336500
C -28.338900 -9.112100 -34.103800
H -28.297100 -10.757500 -32.898800
N -28.177000 -7.080800 -35.387100
H -27.955400 -5.123200 -34.928000
C -27.953800 -9.830100 -32.956000
H -27.852300 -5.433600 -36.496700
C -27.841300 -7.781400 -34.246100
C -27.617300 -5.728900 -35.604400
H -27.212200 -10.081600 -29.977400
C -27.148300 -9.332700 -31.965000
C -27.041000 -7.232300 -33.256000
H -27.033800 -11.224300 -31.143100
C -26.764800 -10.281000 -30.848000
H -26.751200 -6.277800 -33.345000
C -26.679400 -7.957000 -32.101100
H -26.635300 -5.791700 -35.549700
H -26.426300 -8.211000 -29.459300
H -25.956700 -5.374500 -31.474100
N -25.870200 -7.339100 -31.193400
H -25.802900 -10.253900 -30.639400
C -25.616900 -7.792900 -29.826300
H -25.386300 -6.932300 -29.257800
C -25.313400 -6.028700 -31.511500
H -24.862500 -6.019800 -32.395100
H -24.830600 -8.341800 -29.761500
H -24.654900 -5.877900 -30.840800
