36
Fragment
H -9.528700 -24.553600 -43.158000
O -9.347000 -28.756900 -46.537100
H -9.292000 -30.596700 -45.053200
H -9.257200 -22.593600 -40.020800
C -9.187600 -28.690500 -45.280300
N -9.179200 -29.870100 -44.572400
N -9.040700 -27.511600 -44.678700
O -9.009400 -31.060700 -42.652000
C -9.007300 -29.979300 -43.204800
H -8.971800 -25.297600 -44.425200
C -8.877200 -27.513100 -43.352900
C -8.839600 -28.676000 -42.544300
C -8.766500 -25.056800 -43.522700
N -8.738000 -26.299200 -42.736100
N -8.652300 -28.653300 -41.218200
H -8.637700 -25.618800 -36.530400
C -8.554900 -26.229100 -41.361800
C -8.504800 -27.460400 -40.634800
H -8.498500 -21.795100 -38.879800
H -8.449800 -27.257500 -36.723800
H -8.435900 -24.312200 -41.175900
C -8.414300 -25.025800 -40.692800
C -8.407300 -22.541700 -39.489800
C -8.324500 -27.384000 -39.234100
H -8.317600 -28.217500 -38.630300
C -8.225000 -24.973100 -39.297200
C -8.190200 -26.217700 -38.541100
C -8.133100 -26.307500 -37.034700
N -8.125500 -23.746900 -38.708500
H -8.046100 -23.344900 -36.628500
H -7.872100 -24.586200 -43.480400
H -7.739900 -22.310500 -40.096500
C -7.407800 -23.483600 -37.456100
H -7.245700 -26.221300 -36.718200
H -6.897700 -22.757000 -37.567700
H -6.702800 -24.172500 -37.262100
10
Fragment
H -4.211000 -24.408400 -36.805100
O -4.205400 -22.315100 -37.758100
C -3.830900 -22.578900 -36.637500
O -3.763400 -23.775200 -36.108700
O -3.615200 -19.973700 -32.727600
C -3.410500 -21.547800 -35.696600
C -3.180200 -20.712500 -34.878500
C -3.059100 -19.764800 -33.772500
O -2.319200 -18.715000 -34.072800
H -2.303900 -18.056800 -33.376400
46
Fragment
H -9.528700 -24.553600 -43.158000
O -9.347000 -28.756900 -46.537100
H -9.292000 -30.596700 -45.053200
H -9.257200 -22.593600 -40.020800
C -9.187600 -28.690500 -45.280300
N -9.179200 -29.870100 -44.572400
N -9.040700 -27.511600 -44.678700
O -9.009400 -31.060700 -42.652000
C -9.007300 -29.979300 -43.204800
H -8.971800 -25.297600 -44.425200
C -8.877200 -27.513100 -43.352900
C -8.839600 -28.676000 -42.544300
C -8.766500 -25.056800 -43.522700
N -8.738000 -26.299200 -42.736100
N -8.652300 -28.653300 -41.218200
H -8.637700 -25.618800 -36.530400
C -8.554900 -26.229100 -41.361800
C -8.504800 -27.460400 -40.634800
H -8.498500 -21.795100 -38.879800
H -8.449800 -27.257500 -36.723800
H -8.435900 -24.312200 -41.175900
C -8.414300 -25.025800 -40.692800
C -8.407300 -22.541700 -39.489800
C -8.324500 -27.384000 -39.234100
H -8.317600 -28.217500 -38.630300
C -8.225000 -24.973100 -39.297200
C -8.190200 -26.217700 -38.541100
C -8.133100 -26.307500 -37.034700
N -8.125500 -23.746900 -38.708500
H -8.046100 -23.344900 -36.628500
H -7.872100 -24.586200 -43.480400
H -7.739900 -22.310500 -40.096500
C -7.407800 -23.483600 -37.456100
H -7.245700 -26.221300 -36.718200
H -6.897700 -22.757000 -37.567700
H -6.702800 -24.172500 -37.262100
H -4.211000 -24.408400 -36.805100
O -4.205400 -22.315100 -37.758100
C -3.830900 -22.578900 -36.637500
O -3.763400 -23.775200 -36.108700
O -3.615200 -19.973700 -32.727600
C -3.410500 -21.547800 -35.696600
C -3.180200 -20.712500 -34.878500
C -3.059100 -19.764800 -33.772500
O -2.319200 -18.715000 -34.072800
H -2.303900 -18.056800 -33.376400
