36
Fragment
H -9.528700 -24.553600 -43.158000
O -9.347000 -28.756900 -46.537100
H -9.292000 -30.596700 -45.053200
H -9.257200 -22.593600 -40.020800
C -9.187600 -28.690500 -45.280300
N -9.179200 -29.870100 -44.572400
N -9.040700 -27.511600 -44.678700
O -9.009400 -31.060700 -42.652000
C -9.007300 -29.979300 -43.204800
H -8.971800 -25.297600 -44.425200
C -8.877200 -27.513100 -43.352900
C -8.839600 -28.676000 -42.544300
C -8.766500 -25.056800 -43.522700
N -8.738000 -26.299200 -42.736100
N -8.652300 -28.653300 -41.218200
H -8.637700 -25.618800 -36.530400
C -8.554900 -26.229100 -41.361800
C -8.504800 -27.460400 -40.634800
H -8.498500 -21.795100 -38.879800
H -8.449800 -27.257500 -36.723800
H -8.435900 -24.312200 -41.175900
C -8.414300 -25.025800 -40.692800
C -8.407300 -22.541700 -39.489800
C -8.324500 -27.384000 -39.234100
H -8.317600 -28.217500 -38.630300
C -8.225000 -24.973100 -39.297200
C -8.190200 -26.217700 -38.541100
C -8.133100 -26.307500 -37.034700
N -8.125500 -23.746900 -38.708500
H -8.046100 -23.344900 -36.628500
H -7.872100 -24.586200 -43.480400
H -7.739900 -22.310500 -40.096500
C -7.407800 -23.483600 -37.456100
H -7.245700 -26.221300 -36.718200
H -6.897700 -22.757000 -37.567700
H -6.702800 -24.172500 -37.262100
36
Fragment
H -10.698000 -33.246200 -37.262100
H -10.503100 -31.830700 -37.567700
H -10.155100 -35.295100 -36.718200
C -9.992900 -32.557300 -37.456100
H -9.660900 -31.384300 -40.096500
H -9.528700 -33.660000 -43.480400
H -9.354600 -32.418700 -36.628500
N -9.275300 -32.820700 -38.708500
C -9.267600 -35.381300 -37.034700
C -9.210600 -35.291400 -38.541100
C -9.175800 -34.046900 -39.297200
H -9.083200 -37.291300 -38.630300
C -9.076200 -36.457800 -39.234100
C -8.993400 -31.615500 -39.489800
C -8.986400 -34.099500 -40.692800
H -8.964900 -33.386000 -41.175900
H -8.950900 -36.331300 -36.723800
H -8.902200 -30.868900 -38.879800
C -8.896000 -36.534200 -40.634800
C -8.845800 -35.302900 -41.361800
H -8.763000 -34.692600 -36.530400
N -8.748400 -37.727000 -41.218200
N -8.662800 -35.372900 -42.736100
C -8.634300 -34.130500 -43.522700
C -8.561200 -37.749700 -42.544300
C -8.523600 -36.586800 -43.352900
H -8.428900 -34.371400 -44.425200
C -8.393400 -39.053100 -43.204800
O -8.391300 -40.134500 -42.652000
N -8.360000 -36.585400 -44.678700
N -8.221500 -38.943800 -44.572400
C -8.213200 -37.764200 -45.280300
H -8.143600 -31.667400 -40.020800
H -8.108700 -39.670400 -45.053200
O -8.053800 -37.830600 -46.537100
H -7.872100 -33.627300 -43.158000
72
Fragment
H -9.528700 -24.553600 -43.158000
O -9.347000 -28.756900 -46.537100
H -9.292000 -30.596700 -45.053200
H -9.257200 -22.593600 -40.020800
C -9.187600 -28.690500 -45.280300
N -9.179200 -29.870100 -44.572400
N -9.040700 -27.511600 -44.678700
O -9.009400 -31.060700 -42.652000
C -9.007300 -29.979300 -43.204800
H -8.971800 -25.297600 -44.425200
C -8.877200 -27.513100 -43.352900
C -8.839600 -28.676000 -42.544300
C -8.766500 -25.056800 -43.522700
N -8.738000 -26.299200 -42.736100
N -8.652300 -28.653300 -41.218200
H -8.637700 -25.618800 -36.530400
C -8.554900 -26.229100 -41.361800
C -8.504800 -27.460400 -40.634800
H -8.498500 -21.795100 -38.879800
H -8.449800 -27.257500 -36.723800
H -8.435900 -24.312200 -41.175900
C -8.414300 -25.025800 -40.692800
C -8.407300 -22.541700 -39.489800
C -8.324500 -27.384000 -39.234100
H -8.317600 -28.217500 -38.630300
C -8.225000 -24.973100 -39.297200
C -8.190200 -26.217700 -38.541100
C -8.133100 -26.307500 -37.034700
N -8.125500 -23.746900 -38.708500
H -8.046100 -23.344900 -36.628500
H -7.872100 -24.586200 -43.480400
H -7.739900 -22.310500 -40.096500
C -7.407800 -23.483600 -37.456100
H -7.245700 -26.221300 -36.718200
H -6.897700 -22.757000 -37.567700
H -6.702800 -24.172500 -37.262100
H -10.698000 -33.246200 -37.262100
H -10.503100 -31.830700 -37.567700
H -10.155100 -35.295100 -36.718200
C -9.992900 -32.557300 -37.456100
H -9.660900 -31.384300 -40.096500
H -9.528700 -33.660000 -43.480400
H -9.354600 -32.418700 -36.628500
N -9.275300 -32.820700 -38.708500
C -9.267600 -35.381300 -37.034700
C -9.210600 -35.291400 -38.541100
C -9.175800 -34.046900 -39.297200
H -9.083200 -37.291300 -38.630300
C -9.076200 -36.457800 -39.234100
C -8.993400 -31.615500 -39.489800
C -8.986400 -34.099500 -40.692800
H -8.964900 -33.386000 -41.175900
H -8.950900 -36.331300 -36.723800
H -8.902200 -30.868900 -38.879800
C -8.896000 -36.534200 -40.634800
C -8.845800 -35.302900 -41.361800
H -8.763000 -34.692600 -36.530400
N -8.748400 -37.727000 -41.218200
N -8.662800 -35.372900 -42.736100
C -8.634300 -34.130500 -43.522700
C -8.561200 -37.749700 -42.544300
C -8.523600 -36.586800 -43.352900
H -8.428900 -34.371400 -44.425200
C -8.393400 -39.053100 -43.204800
O -8.391300 -40.134500 -42.652000
N -8.360000 -36.585400 -44.678700
N -8.221500 -38.943800 -44.572400
C -8.213200 -37.764200 -45.280300
H -8.143600 -31.667400 -40.020800
H -8.108700 -39.670400 -45.053200
O -8.053800 -37.830600 -46.537100
H -7.872100 -33.627300 -43.158000
