36
Fragment
H -9.528700 -24.553600 -43.158000
O -9.347000 -28.756900 -46.537100
H -9.292000 -30.596700 -45.053200
H -9.257200 -22.593600 -40.020800
C -9.187600 -28.690500 -45.280300
N -9.179200 -29.870100 -44.572400
N -9.040700 -27.511600 -44.678700
O -9.009400 -31.060700 -42.652000
C -9.007300 -29.979300 -43.204800
H -8.971800 -25.297600 -44.425200
C -8.877200 -27.513100 -43.352900
C -8.839600 -28.676000 -42.544300
C -8.766500 -25.056800 -43.522700
N -8.738000 -26.299200 -42.736100
N -8.652300 -28.653300 -41.218200
H -8.637700 -25.618800 -36.530400
C -8.554900 -26.229100 -41.361800
C -8.504800 -27.460400 -40.634800
H -8.498500 -21.795100 -38.879800
H -8.449800 -27.257500 -36.723800
H -8.435900 -24.312200 -41.175900
C -8.414300 -25.025800 -40.692800
C -8.407300 -22.541700 -39.489800
C -8.324500 -27.384000 -39.234100
H -8.317600 -28.217500 -38.630300
C -8.225000 -24.973100 -39.297200
C -8.190200 -26.217700 -38.541100
C -8.133100 -26.307500 -37.034700
N -8.125500 -23.746900 -38.708500
H -8.046100 -23.344900 -36.628500
H -7.872100 -24.586200 -43.480400
H -7.739900 -22.310500 -40.096500
C -7.407800 -23.483600 -37.456100
H -7.245700 -26.221300 -36.718200
H -6.897700 -22.757000 -37.567700
H -6.702800 -24.172500 -37.262100
36
Fragment
H -14.178100 -30.270000 -46.844700
H -13.983200 -31.685500 -46.539100
H -13.635200 -28.221200 -47.388600
C -13.473100 -30.958900 -46.650700
H -13.141000 -32.132000 -44.010300
H -13.008800 -29.856300 -40.626400
H -12.834800 -31.097600 -47.478300
N -12.755400 -30.695600 -45.398300
C -12.747800 -28.135000 -47.072100
C -12.690700 -28.224800 -45.565700
C -12.655900 -29.469400 -44.809600
H -12.563300 -26.225000 -45.476500
C -12.556400 -27.058500 -44.872700
C -12.473600 -31.900800 -44.617000
C -12.466600 -29.416700 -43.414000
H -12.445000 -30.130300 -42.930900
H -12.431100 -27.185000 -47.383000
H -12.382400 -32.647400 -45.227000
C -12.376100 -26.982100 -43.472000
C -12.326000 -28.213400 -42.745000
H -12.243200 -28.823700 -47.576400
N -12.228600 -25.789200 -42.888600
N -12.142900 -28.143300 -41.370700
C -12.114400 -29.385700 -40.584100
C -12.041300 -25.766500 -41.562500
C -12.003700 -26.929400 -40.753900
H -11.909100 -29.144900 -39.681600
C -11.873600 -24.463200 -40.902000
O -11.871500 -23.381800 -41.454800
N -11.840200 -26.930900 -39.428100
N -11.701700 -24.572400 -39.534400
C -11.693300 -25.752000 -38.826500
H -11.623700 -31.848900 -44.086000
H -11.588900 -23.845800 -39.053600
O -11.533900 -25.685600 -37.569700
H -11.352200 -29.888900 -40.948800
72
Fragment
H -9.528700 -24.553600 -43.158000
O -9.347000 -28.756900 -46.537100
H -9.292000 -30.596700 -45.053200
H -9.257200 -22.593600 -40.020800
C -9.187600 -28.690500 -45.280300
N -9.179200 -29.870100 -44.572400
N -9.040700 -27.511600 -44.678700
O -9.009400 -31.060700 -42.652000
C -9.007300 -29.979300 -43.204800
H -8.971800 -25.297600 -44.425200
C -8.877200 -27.513100 -43.352900
C -8.839600 -28.676000 -42.544300
C -8.766500 -25.056800 -43.522700
N -8.738000 -26.299200 -42.736100
N -8.652300 -28.653300 -41.218200
H -8.637700 -25.618800 -36.530400
C -8.554900 -26.229100 -41.361800
C -8.504800 -27.460400 -40.634800
H -8.498500 -21.795100 -38.879800
H -8.449800 -27.257500 -36.723800
H -8.435900 -24.312200 -41.175900
C -8.414300 -25.025800 -40.692800
C -8.407300 -22.541700 -39.489800
C -8.324500 -27.384000 -39.234100
H -8.317600 -28.217500 -38.630300
C -8.225000 -24.973100 -39.297200
C -8.190200 -26.217700 -38.541100
C -8.133100 -26.307500 -37.034700
N -8.125500 -23.746900 -38.708500
H -8.046100 -23.344900 -36.628500
H -7.872100 -24.586200 -43.480400
H -7.739900 -22.310500 -40.096500
C -7.407800 -23.483600 -37.456100
H -7.245700 -26.221300 -36.718200
H -6.897700 -22.757000 -37.567700
H -6.702800 -24.172500 -37.262100
H -14.178100 -30.270000 -46.844700
H -13.983200 -31.685500 -46.539100
H -13.635200 -28.221200 -47.388600
C -13.473100 -30.958900 -46.650700
H -13.141000 -32.132000 -44.010300
H -13.008800 -29.856300 -40.626400
H -12.834800 -31.097600 -47.478300
N -12.755400 -30.695600 -45.398300
C -12.747800 -28.135000 -47.072100
C -12.690700 -28.224800 -45.565700
C -12.655900 -29.469400 -44.809600
H -12.563300 -26.225000 -45.476500
C -12.556400 -27.058500 -44.872700
C -12.473600 -31.900800 -44.617000
C -12.466600 -29.416700 -43.414000
H -12.445000 -30.130300 -42.930900
H -12.431100 -27.185000 -47.383000
H -12.382400 -32.647400 -45.227000
C -12.376100 -26.982100 -43.472000
C -12.326000 -28.213400 -42.745000
H -12.243200 -28.823700 -47.576400
N -12.228600 -25.789200 -42.888600
N -12.142900 -28.143300 -41.370700
C -12.114400 -29.385700 -40.584100
C -12.041300 -25.766500 -41.562500
C -12.003700 -26.929400 -40.753900
H -11.909100 -29.144900 -39.681600
C -11.873600 -24.463200 -40.902000
O -11.871500 -23.381800 -41.454800
N -11.840200 -26.930900 -39.428100
N -11.701700 -24.572400 -39.534400
C -11.693300 -25.752000 -38.826500
H -11.623700 -31.848900 -44.086000
H -11.588900 -23.845800 -39.053600
O -11.533900 -25.685600 -37.569700
H -11.352200 -29.888900 -40.948800
