36
Fragment
H -9.528700 -24.553600 -43.158000
O -9.347000 -28.756900 -46.537100
H -9.292000 -30.596700 -45.053200
H -9.257200 -22.593600 -40.020800
C -9.187600 -28.690500 -45.280300
N -9.179200 -29.870100 -44.572400
N -9.040700 -27.511600 -44.678700
O -9.009400 -31.060700 -42.652000
C -9.007300 -29.979300 -43.204800
H -8.971800 -25.297600 -44.425200
C -8.877200 -27.513100 -43.352900
C -8.839600 -28.676000 -42.544300
C -8.766500 -25.056800 -43.522700
N -8.738000 -26.299200 -42.736100
N -8.652300 -28.653300 -41.218200
H -8.637700 -25.618800 -36.530400
C -8.554900 -26.229100 -41.361800
C -8.504800 -27.460400 -40.634800
H -8.498500 -21.795100 -38.879800
H -8.449800 -27.257500 -36.723800
H -8.435900 -24.312200 -41.175900
C -8.414300 -25.025800 -40.692800
C -8.407300 -22.541700 -39.489800
C -8.324500 -27.384000 -39.234100
H -8.317600 -28.217500 -38.630300
C -8.225000 -24.973100 -39.297200
C -8.190200 -26.217700 -38.541100
C -8.133100 -26.307500 -37.034700
N -8.125500 -23.746900 -38.708500
H -8.046100 -23.344900 -36.628500
H -7.872100 -24.586200 -43.480400
H -7.739900 -22.310500 -40.096500
C -7.407800 -23.483600 -37.456100
H -7.245700 -26.221300 -36.718200
H -6.897700 -22.757000 -37.567700
H -6.702800 -24.172500 -37.262100
36
Fragment
H -10.698000 -15.098700 -37.262100
H -10.503100 -13.683200 -37.567700
H -10.155100 -17.147600 -36.718200
C -9.992900 -14.409800 -37.456100
H -9.660900 -13.236800 -40.096500
H -9.528700 -15.512500 -43.480400
H -9.354600 -14.271200 -36.628500
N -9.275300 -14.673200 -38.708500
C -9.267600 -17.233800 -37.034700
C -9.210600 -17.143900 -38.541100
C -9.175800 -15.899400 -39.297200
H -9.083200 -19.143800 -38.630300
C -9.076200 -18.310300 -39.234100
C -8.993400 -13.468000 -39.489800
C -8.986400 -15.952000 -40.692800
H -8.964900 -15.238500 -41.175900
H -8.950900 -18.183800 -36.723800
H -8.902200 -12.721400 -38.879800
C -8.896000 -18.386700 -40.634800
C -8.845800 -17.155400 -41.361800
H -8.763000 -16.545100 -36.530400
N -8.748400 -19.579500 -41.218200
N -8.662800 -17.225400 -42.736100
C -8.634300 -15.983000 -43.522700
C -8.561200 -19.602200 -42.544300
C -8.523600 -18.439300 -43.352900
H -8.428900 -16.223900 -44.425200
C -8.393400 -20.905600 -43.204800
O -8.391300 -21.987000 -42.652000
N -8.360000 -18.437900 -44.678700
N -8.221500 -20.796300 -44.572400
C -8.213200 -19.616700 -45.280300
H -8.143600 -13.519900 -40.020800
H -8.108700 -21.522900 -45.053200
O -8.053800 -19.683100 -46.537100
H -7.872100 -15.479800 -43.158000
72
Fragment
H -9.528700 -24.553600 -43.158000
O -9.347000 -28.756900 -46.537100
H -9.292000 -30.596700 -45.053200
H -9.257200 -22.593600 -40.020800
C -9.187600 -28.690500 -45.280300
N -9.179200 -29.870100 -44.572400
N -9.040700 -27.511600 -44.678700
O -9.009400 -31.060700 -42.652000
C -9.007300 -29.979300 -43.204800
H -8.971800 -25.297600 -44.425200
C -8.877200 -27.513100 -43.352900
C -8.839600 -28.676000 -42.544300
C -8.766500 -25.056800 -43.522700
N -8.738000 -26.299200 -42.736100
N -8.652300 -28.653300 -41.218200
H -8.637700 -25.618800 -36.530400
C -8.554900 -26.229100 -41.361800
C -8.504800 -27.460400 -40.634800
H -8.498500 -21.795100 -38.879800
H -8.449800 -27.257500 -36.723800
H -8.435900 -24.312200 -41.175900
C -8.414300 -25.025800 -40.692800
C -8.407300 -22.541700 -39.489800
C -8.324500 -27.384000 -39.234100
H -8.317600 -28.217500 -38.630300
C -8.225000 -24.973100 -39.297200
C -8.190200 -26.217700 -38.541100
C -8.133100 -26.307500 -37.034700
N -8.125500 -23.746900 -38.708500
H -8.046100 -23.344900 -36.628500
H -7.872100 -24.586200 -43.480400
H -7.739900 -22.310500 -40.096500
C -7.407800 -23.483600 -37.456100
H -7.245700 -26.221300 -36.718200
H -6.897700 -22.757000 -37.567700
H -6.702800 -24.172500 -37.262100
H -10.698000 -15.098700 -37.262100
H -10.503100 -13.683200 -37.567700
H -10.155100 -17.147600 -36.718200
C -9.992900 -14.409800 -37.456100
H -9.660900 -13.236800 -40.096500
H -9.528700 -15.512500 -43.480400
H -9.354600 -14.271200 -36.628500
N -9.275300 -14.673200 -38.708500
C -9.267600 -17.233800 -37.034700
C -9.210600 -17.143900 -38.541100
C -9.175800 -15.899400 -39.297200
H -9.083200 -19.143800 -38.630300
C -9.076200 -18.310300 -39.234100
C -8.993400 -13.468000 -39.489800
C -8.986400 -15.952000 -40.692800
H -8.964900 -15.238500 -41.175900
H -8.950900 -18.183800 -36.723800
H -8.902200 -12.721400 -38.879800
C -8.896000 -18.386700 -40.634800
C -8.845800 -17.155400 -41.361800
H -8.763000 -16.545100 -36.530400
N -8.748400 -19.579500 -41.218200
N -8.662800 -17.225400 -42.736100
C -8.634300 -15.983000 -43.522700
C -8.561200 -19.602200 -42.544300
C -8.523600 -18.439300 -43.352900
H -8.428900 -16.223900 -44.425200
C -8.393400 -20.905600 -43.204800
O -8.391300 -21.987000 -42.652000
N -8.360000 -18.437900 -44.678700
N -8.221500 -20.796300 -44.572400
C -8.213200 -19.616700 -45.280300
H -8.143600 -13.519900 -40.020800
H -8.108700 -21.522900 -45.053200
O -8.053800 -19.683100 -46.537100
H -7.872100 -15.479800 -43.158000
