44
Fragment
H -18.648200 -11.749600 -22.778700
O -18.345600 -11.668300 -25.283600
N -17.820500 -11.569600 -23.076300
C -17.545800 -11.602600 -24.379500
H -17.429700 -15.193100 -29.220900
H -17.213800 -11.548800 -22.489100
H -17.206500 -14.808500 -27.763900
N -16.985500 -14.772600 -28.603200
H -16.287800 -12.159900 -26.462300
O -16.195400 -11.527600 -24.578300
H -15.948400 -10.625400 -26.334300
C -15.810000 -14.267500 -28.958900
C -15.792600 -11.502500 -25.949500
O -15.320600 -14.304000 -30.076200
O -15.277500 -11.040800 -28.960000
O -15.197700 -13.671600 -27.905800
H -14.750800 -13.803200 -25.505200
N -14.363900 -10.718900 -28.217400
C -14.301000 -11.833400 -25.951300
H -14.222600 -13.015700 -24.255500
C -14.092900 -13.156700 -25.205900
O -14.018200 -9.585000 -25.271600
O -13.960400 -9.585000 -28.070700
C -13.885700 -13.156700 -28.136400
H -13.756000 -13.015700 -29.086800
C -13.677600 -11.833400 -27.390900
N -13.614700 -10.718900 -25.124800
H -13.227800 -13.803200 -27.837000
O -12.780900 -13.671600 -25.436500
O -12.701100 -11.040800 -24.382300
O -12.658000 -14.304000 -23.266100
C -12.186000 -11.502500 -27.392800
C -12.168500 -14.267500 -24.383400
H -12.030100 -10.625400 -27.007900
O -11.783200 -11.527600 -28.764000
H -11.690800 -12.159900 -26.879900
N -10.993000 -14.772600 -24.739100
H -10.772100 -14.808500 -25.578400
H -10.764700 -11.548800 -30.853200
H -10.548900 -15.193100 -24.121400
C -10.432800 -11.602600 -28.962700
N -10.158100 -11.569600 -30.265900
O -9.632900 -11.668300 -28.058600
H -9.330300 -11.749600 -30.563600
44
Fragment
H -23.764400 -8.530400 -15.158300
O -23.461800 -8.611700 -17.663300
N -22.936700 -8.710400 -15.456000
C -22.662000 -8.677400 -16.759200
H -22.545900 -5.086900 -21.600600
H -22.330000 -8.731200 -14.868800
H -22.322700 -5.471500 -20.143600
N -22.101700 -5.507400 -20.982900
H -21.404000 -8.120100 -18.842000
O -21.311600 -8.752400 -16.958000
H -21.064600 -9.654600 -18.714000
C -20.926200 -6.012500 -21.338600
C -20.908800 -8.777500 -18.329200
O -20.436800 -5.976000 -22.455900
O -20.393700 -9.239200 -21.339600
O -20.313900 -6.608400 -20.285400
H -19.867000 -6.476800 -17.884900
N -19.480100 -9.561100 -20.597100
C -19.417200 -8.446600 -18.331000
H -19.338800 -7.264300 -16.635200
C -19.209100 -7.123300 -17.585600
O -19.134400 -10.695000 -17.651300
O -19.076600 -10.695000 -20.450400
C -19.001900 -7.123300 -20.516000
H -18.872200 -7.264300 -21.466400
C -18.793800 -8.446600 -19.770600
N -18.730900 -9.561100 -17.504500
H -18.344000 -6.476800 -20.216700
O -17.897100 -6.608400 -17.816200
O -17.817300 -9.239200 -16.762000
O -17.774200 -5.976000 -15.645700
C -17.302200 -8.777500 -19.772400
C -17.284700 -6.012500 -16.763000
H -17.146300 -9.654600 -19.387600
O -16.899400 -8.752400 -21.143700
H -16.807000 -8.120100 -19.259600
N -16.109200 -5.507400 -17.118700
H -15.888300 -5.471500 -17.958100
H -15.880900 -8.731200 -23.232800
H -15.665100 -5.086900 -16.501000
C -15.549000 -8.677400 -21.342400
N -15.274300 -8.710400 -22.645600
O -14.749100 -8.611700 -20.438300
H -14.446500 -8.530400 -22.943300
88
Fragment
H -18.648200 -11.749600 -22.778700
O -18.345600 -11.668300 -25.283600
N -17.820500 -11.569600 -23.076300
C -17.545800 -11.602600 -24.379500
H -17.429700 -15.193100 -29.220900
H -17.213800 -11.548800 -22.489100
H -17.206500 -14.808500 -27.763900
N -16.985500 -14.772600 -28.603200
H -16.287800 -12.159900 -26.462300
O -16.195400 -11.527600 -24.578300
H -15.948400 -10.625400 -26.334300
C -15.810000 -14.267500 -28.958900
C -15.792600 -11.502500 -25.949500
O -15.320600 -14.304000 -30.076200
O -15.277500 -11.040800 -28.960000
O -15.197700 -13.671600 -27.905800
H -14.750800 -13.803200 -25.505200
N -14.363900 -10.718900 -28.217400
C -14.301000 -11.833400 -25.951300
H -14.222600 -13.015700 -24.255500
C -14.092900 -13.156700 -25.205900
O -14.018200 -9.585000 -25.271600
O -13.960400 -9.585000 -28.070700
C -13.885700 -13.156700 -28.136400
H -13.756000 -13.015700 -29.086800
C -13.677600 -11.833400 -27.390900
N -13.614700 -10.718900 -25.124800
H -13.227800 -13.803200 -27.837000
O -12.780900 -13.671600 -25.436500
O -12.701100 -11.040800 -24.382300
O -12.658000 -14.304000 -23.266100
C -12.186000 -11.502500 -27.392800
C -12.168500 -14.267500 -24.383400
H -12.030100 -10.625400 -27.007900
O -11.783200 -11.527600 -28.764000
H -11.690800 -12.159900 -26.879900
N -10.993000 -14.772600 -24.739100
H -10.772100 -14.808500 -25.578400
H -10.764700 -11.548800 -30.853200
H -10.548900 -15.193100 -24.121400
C -10.432800 -11.602600 -28.962700
N -10.158100 -11.569600 -30.265900
O -9.632900 -11.668300 -28.058600
H -9.330300 -11.749600 -30.563600
H -23.764400 -8.530400 -15.158300
O -23.461800 -8.611700 -17.663300
N -22.936700 -8.710400 -15.456000
C -22.662000 -8.677400 -16.759200
H -22.545900 -5.086900 -21.600600
H -22.330000 -8.731200 -14.868800
H -22.322700 -5.471500 -20.143600
N -22.101700 -5.507400 -20.982900
H -21.404000 -8.120100 -18.842000
O -21.311600 -8.752400 -16.958000
H -21.064600 -9.654600 -18.714000
C -20.926200 -6.012500 -21.338600
C -20.908800 -8.777500 -18.329200
O -20.436800 -5.976000 -22.455900
O -20.393700 -9.239200 -21.339600
O -20.313900 -6.608400 -20.285400
H -19.867000 -6.476800 -17.884900
N -19.480100 -9.561100 -20.597100
C -19.417200 -8.446600 -18.331000
H -19.338800 -7.264300 -16.635200
C -19.209100 -7.123300 -17.585600
O -19.134400 -10.695000 -17.651300
O -19.076600 -10.695000 -20.450400
C -19.001900 -7.123300 -20.516000
H -18.872200 -7.264300 -21.466400
C -18.793800 -8.446600 -19.770600
N -18.730900 -9.561100 -17.504500
H -18.344000 -6.476800 -20.216700
O -17.897100 -6.608400 -17.816200
O -17.817300 -9.239200 -16.762000
O -17.774200 -5.976000 -15.645700
C -17.302200 -8.777500 -19.772400
C -17.284700 -6.012500 -16.763000
H -17.146300 -9.654600 -19.387600
O -16.899400 -8.752400 -21.143700
H -16.807000 -8.120100 -19.259600
N -16.109200 -5.507400 -17.118700
H -15.888300 -5.471500 -17.958100
H -15.880900 -8.731200 -23.232800
H -15.665100 -5.086900 -16.501000
C -15.549000 -8.677400 -21.342400
N -15.274300 -8.710400 -22.645600
O -14.749100 -8.611700 -20.438300
H -14.446500 -8.530400 -22.943300
