44
Fragment
H -18.648200 -11.749600 -22.778700
O -18.345600 -11.668300 -25.283600
N -17.820500 -11.569600 -23.076300
C -17.545800 -11.602600 -24.379500
H -17.429700 -15.193100 -29.220900
H -17.213800 -11.548800 -22.489100
H -17.206500 -14.808500 -27.763900
N -16.985500 -14.772600 -28.603200
H -16.287800 -12.159900 -26.462300
O -16.195400 -11.527600 -24.578300
H -15.948400 -10.625400 -26.334300
C -15.810000 -14.267500 -28.958900
C -15.792600 -11.502500 -25.949500
O -15.320600 -14.304000 -30.076200
O -15.277500 -11.040800 -28.960000
O -15.197700 -13.671600 -27.905800
H -14.750800 -13.803200 -25.505200
N -14.363900 -10.718900 -28.217400
C -14.301000 -11.833400 -25.951300
H -14.222600 -13.015700 -24.255500
C -14.092900 -13.156700 -25.205900
O -14.018200 -9.585000 -25.271600
O -13.960400 -9.585000 -28.070700
C -13.885700 -13.156700 -28.136400
H -13.756000 -13.015700 -29.086800
C -13.677600 -11.833400 -27.390900
N -13.614700 -10.718900 -25.124800
H -13.227800 -13.803200 -27.837000
O -12.780900 -13.671600 -25.436500
O -12.701100 -11.040800 -24.382300
O -12.658000 -14.304000 -23.266100
C -12.186000 -11.502500 -27.392800
C -12.168500 -14.267500 -24.383400
H -12.030100 -10.625400 -27.007900
O -11.783200 -11.527600 -28.764000
H -11.690800 -12.159900 -26.879900
N -10.993000 -14.772600 -24.739100
H -10.772100 -14.808500 -25.578400
H -10.764700 -11.548800 -30.853200
H -10.548900 -15.193100 -24.121400
C -10.432800 -11.602600 -28.962700
N -10.158100 -11.569600 -30.265900
O -9.632900 -11.668300 -28.058600
H -9.330300 -11.749600 -30.563600
44
Fragment
H -13.532000 -15.290400 -30.399000
O -13.229400 -15.371700 -32.903900
N -12.704300 -15.470400 -30.696600
C -12.429600 -15.437400 -31.999900
H -12.313500 -11.846900 -36.841200
H -12.097600 -15.491200 -30.109400
H -12.090300 -12.231500 -35.384200
N -11.869300 -12.267400 -36.223500
H -11.171600 -14.880100 -34.082700
O -11.079200 -15.512400 -32.198600
H -10.832200 -16.414600 -33.954600
C -10.693800 -12.772500 -36.579200
C -10.676400 -15.537500 -33.569800
O -10.204400 -12.736000 -37.696500
O -10.161300 -15.999200 -36.580300
O -10.081500 -13.368400 -35.526100
H -9.634600 -13.236800 -33.125500
N -9.247700 -16.321100 -35.837800
C -9.184800 -15.206600 -33.571600
H -9.106400 -14.024300 -31.875800
C -8.976700 -13.883300 -32.826200
O -8.902000 -17.455000 -32.891900
O -8.844200 -17.455000 -35.691000
C -8.769500 -13.883300 -35.756700
H -8.639800 -14.024300 -36.707100
C -8.561400 -15.206600 -35.011300
N -8.498500 -16.321100 -32.745100
H -8.111600 -13.236800 -35.457400
O -7.664700 -13.368400 -33.056800
O -7.584900 -15.999200 -32.002600
O -7.541800 -12.736000 -30.886400
C -7.069800 -15.537500 -35.013100
C -7.052300 -12.772500 -32.003700
H -6.913900 -16.414600 -34.628300
O -6.666900 -15.512400 -36.384300
H -6.574600 -14.880100 -34.500200
N -5.876800 -12.267400 -32.359400
H -5.655900 -12.231500 -33.198700
H -5.648500 -15.491200 -38.473500
H -5.432700 -11.846900 -31.741700
C -5.316600 -15.437400 -36.583000
N -5.041900 -15.470400 -37.886300
O -4.516700 -15.371700 -35.679000
H -4.214100 -15.290400 -38.183900
88
Fragment
H -18.648200 -11.749600 -22.778700
O -18.345600 -11.668300 -25.283600
N -17.820500 -11.569600 -23.076300
C -17.545800 -11.602600 -24.379500
H -17.429700 -15.193100 -29.220900
H -17.213800 -11.548800 -22.489100
H -17.206500 -14.808500 -27.763900
N -16.985500 -14.772600 -28.603200
H -16.287800 -12.159900 -26.462300
O -16.195400 -11.527600 -24.578300
H -15.948400 -10.625400 -26.334300
C -15.810000 -14.267500 -28.958900
C -15.792600 -11.502500 -25.949500
O -15.320600 -14.304000 -30.076200
O -15.277500 -11.040800 -28.960000
O -15.197700 -13.671600 -27.905800
H -14.750800 -13.803200 -25.505200
N -14.363900 -10.718900 -28.217400
C -14.301000 -11.833400 -25.951300
H -14.222600 -13.015700 -24.255500
C -14.092900 -13.156700 -25.205900
O -14.018200 -9.585000 -25.271600
O -13.960400 -9.585000 -28.070700
C -13.885700 -13.156700 -28.136400
H -13.756000 -13.015700 -29.086800
C -13.677600 -11.833400 -27.390900
N -13.614700 -10.718900 -25.124800
H -13.227800 -13.803200 -27.837000
O -12.780900 -13.671600 -25.436500
O -12.701100 -11.040800 -24.382300
O -12.658000 -14.304000 -23.266100
C -12.186000 -11.502500 -27.392800
C -12.168500 -14.267500 -24.383400
H -12.030100 -10.625400 -27.007900
O -11.783200 -11.527600 -28.764000
H -11.690800 -12.159900 -26.879900
N -10.993000 -14.772600 -24.739100
H -10.772100 -14.808500 -25.578400
H -10.764700 -11.548800 -30.853200
H -10.548900 -15.193100 -24.121400
C -10.432800 -11.602600 -28.962700
N -10.158100 -11.569600 -30.265900
O -9.632900 -11.668300 -28.058600
H -9.330300 -11.749600 -30.563600
H -13.532000 -15.290400 -30.399000
O -13.229400 -15.371700 -32.903900
N -12.704300 -15.470400 -30.696600
C -12.429600 -15.437400 -31.999900
H -12.313500 -11.846900 -36.841200
H -12.097600 -15.491200 -30.109400
H -12.090300 -12.231500 -35.384200
N -11.869300 -12.267400 -36.223500
H -11.171600 -14.880100 -34.082700
O -11.079200 -15.512400 -32.198600
H -10.832200 -16.414600 -33.954600
C -10.693800 -12.772500 -36.579200
C -10.676400 -15.537500 -33.569800
O -10.204400 -12.736000 -37.696500
O -10.161300 -15.999200 -36.580300
O -10.081500 -13.368400 -35.526100
H -9.634600 -13.236800 -33.125500
N -9.247700 -16.321100 -35.837800
C -9.184800 -15.206600 -33.571600
H -9.106400 -14.024300 -31.875800
C -8.976700 -13.883300 -32.826200
O -8.902000 -17.455000 -32.891900
O -8.844200 -17.455000 -35.691000
C -8.769500 -13.883300 -35.756700
H -8.639800 -14.024300 -36.707100
C -8.561400 -15.206600 -35.011300
N -8.498500 -16.321100 -32.745100
H -8.111600 -13.236800 -35.457400
O -7.664700 -13.368400 -33.056800
O -7.584900 -15.999200 -32.002600
O -7.541800 -12.736000 -30.886400
C -7.069800 -15.537500 -35.013100
C -7.052300 -12.772500 -32.003700
H -6.913900 -16.414600 -34.628300
O -6.666900 -15.512400 -36.384300
H -6.574600 -14.880100 -34.500200
N -5.876800 -12.267400 -32.359400
H -5.655900 -12.231500 -33.198700
H -5.648500 -15.491200 -38.473500
H -5.432700 -11.846900 -31.741700
C -5.316600 -15.437400 -36.583000
N -5.041900 -15.470400 -37.886300
O -4.516700 -15.371700 -35.679000
H -4.214100 -15.290400 -38.183900
