24
Fragment
H -14.322700 -17.472600 -39.603200
H -13.952400 -17.029500 -34.699100
O -13.635400 -18.233200 -37.098400
C -13.371800 -17.350000 -39.657300
H -13.154700 -16.877100 -40.463300
C -13.146400 -17.114300 -37.239000
C -13.015700 -16.861300 -34.823500
H -12.938300 -18.207300 -39.660000
N -12.913500 -16.576900 -38.497700
N -12.791800 -16.349800 -36.158100
H -12.718200 -16.214700 -34.179700
H -12.525900 -17.678500 -34.709900
C -12.349400 -15.326800 -38.748400
C -12.261500 -15.100600 -36.349100
O -12.186400 -14.924600 -39.908800
C -12.025600 -14.621300 -37.588000
N -11.943000 -14.233100 -35.364500
H -11.631300 -11.674900 -38.477900
N -11.493100 -13.375100 -37.501400
C -11.438200 -13.131600 -36.167900
H -11.240700 -12.888800 -39.389500
H -11.111500 -12.340400 -35.805400
C -11.103200 -12.474700 -38.534700
H -10.174700 -12.253100 -38.431900
24
Fragment
H -14.322700 -9.615500 -39.603200
H -13.952400 -9.172400 -34.699100
O -13.635400 -10.376100 -37.098400
C -13.371800 -9.492900 -39.657300
H -13.154700 -9.020000 -40.463300
C -13.146400 -9.257200 -37.239000
C -13.015700 -9.004200 -34.823500
H -12.938300 -10.350200 -39.660000
N -12.913500 -8.719800 -38.497700
N -12.791800 -8.492700 -36.158100
H -12.718200 -8.357600 -34.179700
H -12.525900 -9.821400 -34.709900
C -12.349400 -7.469700 -38.748400
C -12.261500 -7.243500 -36.349100
O -12.186400 -7.067500 -39.908800
C -12.025600 -6.764200 -37.588000
N -11.943000 -6.376000 -35.364500
H -11.631300 -3.817800 -38.477900
N -11.493100 -5.518000 -37.501400
C -11.438200 -5.274500 -36.167900
H -11.240700 -5.031700 -39.389500
H -11.111500 -4.483300 -35.805400
C -11.103200 -4.617600 -38.534700
H -10.174700 -4.396000 -38.431900
48
Fragment
H -14.322700 -17.472600 -39.603200
H -13.952400 -17.029500 -34.699100
O -13.635400 -18.233200 -37.098400
C -13.371800 -17.350000 -39.657300
H -13.154700 -16.877100 -40.463300
C -13.146400 -17.114300 -37.239000
C -13.015700 -16.861300 -34.823500
H -12.938300 -18.207300 -39.660000
N -12.913500 -16.576900 -38.497700
N -12.791800 -16.349800 -36.158100
H -12.718200 -16.214700 -34.179700
H -12.525900 -17.678500 -34.709900
C -12.349400 -15.326800 -38.748400
C -12.261500 -15.100600 -36.349100
O -12.186400 -14.924600 -39.908800
C -12.025600 -14.621300 -37.588000
N -11.943000 -14.233100 -35.364500
H -11.631300 -11.674900 -38.477900
N -11.493100 -13.375100 -37.501400
C -11.438200 -13.131600 -36.167900
H -11.240700 -12.888800 -39.389500
H -11.111500 -12.340400 -35.805400
C -11.103200 -12.474700 -38.534700
H -10.174700 -12.253100 -38.431900
H -14.322700 -9.615500 -39.603200
H -13.952400 -9.172400 -34.699100
O -13.635400 -10.376100 -37.098400
C -13.371800 -9.492900 -39.657300
H -13.154700 -9.020000 -40.463300
C -13.146400 -9.257200 -37.239000
C -13.015700 -9.004200 -34.823500
H -12.938300 -10.350200 -39.660000
N -12.913500 -8.719800 -38.497700
N -12.791800 -8.492700 -36.158100
H -12.718200 -8.357600 -34.179700
H -12.525900 -9.821400 -34.709900
C -12.349400 -7.469700 -38.748400
C -12.261500 -7.243500 -36.349100
O -12.186400 -7.067500 -39.908800
C -12.025600 -6.764200 -37.588000
N -11.943000 -6.376000 -35.364500
H -11.631300 -3.817800 -38.477900
N -11.493100 -5.518000 -37.501400
C -11.438200 -5.274500 -36.167900
H -11.240700 -5.031700 -39.389500
H -11.111500 -4.483300 -35.805400
C -11.103200 -4.617600 -38.534700
H -10.174700 -4.396000 -38.431900
