24
Fragment
H -14.322700 -17.472600 -39.603200
H -13.952400 -17.029500 -34.699100
O -13.635400 -18.233200 -37.098400
C -13.371800 -17.350000 -39.657300
H -13.154700 -16.877100 -40.463300
C -13.146400 -17.114300 -37.239000
C -13.015700 -16.861300 -34.823500
H -12.938300 -18.207300 -39.660000
N -12.913500 -16.576900 -38.497700
N -12.791800 -16.349800 -36.158100
H -12.718200 -16.214700 -34.179700
H -12.525900 -17.678500 -34.709900
C -12.349400 -15.326800 -38.748400
C -12.261500 -15.100600 -36.349100
O -12.186400 -14.924600 -39.908800
C -12.025600 -14.621300 -37.588000
N -11.943000 -14.233100 -35.364500
H -11.631300 -11.674900 -38.477900
N -11.493100 -13.375100 -37.501400
C -11.438200 -13.131600 -36.167900
H -11.240700 -12.888800 -39.389500
H -11.111500 -12.340400 -35.805400
C -11.103200 -12.474700 -38.534700
H -10.174700 -12.253100 -38.431900
24
Fragment
H -10.566800 -17.884300 -41.545300
H -10.196500 -18.327500 -46.449400
O -9.879500 -17.123800 -44.050100
C -9.615900 -18.006900 -41.491200
H -9.398800 -18.479900 -40.685200
C -9.390500 -18.242600 -43.909500
C -9.259800 -18.495600 -46.325000
H -9.182400 -17.149700 -41.488500
N -9.157600 -18.780000 -42.650800
N -9.035900 -19.007100 -44.990400
H -8.962300 -19.142300 -46.968800
H -8.770000 -17.678500 -46.438600
C -8.593500 -20.030100 -42.400100
C -8.505600 -20.256400 -44.799400
O -8.430500 -20.432400 -41.239700
C -8.269700 -20.735700 -43.560500
N -8.187100 -21.123800 -45.784000
H -7.875400 -23.682100 -42.670600
N -7.737200 -21.981800 -43.647100
C -7.682300 -22.225400 -44.980600
H -7.484800 -22.468200 -41.759000
H -7.355600 -23.016600 -45.343100
C -7.347300 -22.882200 -42.613800
H -6.418800 -23.103800 -42.716600
48
Fragment
H -14.322700 -17.472600 -39.603200
H -13.952400 -17.029500 -34.699100
O -13.635400 -18.233200 -37.098400
C -13.371800 -17.350000 -39.657300
H -13.154700 -16.877100 -40.463300
C -13.146400 -17.114300 -37.239000
C -13.015700 -16.861300 -34.823500
H -12.938300 -18.207300 -39.660000
N -12.913500 -16.576900 -38.497700
N -12.791800 -16.349800 -36.158100
H -12.718200 -16.214700 -34.179700
H -12.525900 -17.678500 -34.709900
C -12.349400 -15.326800 -38.748400
C -12.261500 -15.100600 -36.349100
O -12.186400 -14.924600 -39.908800
C -12.025600 -14.621300 -37.588000
N -11.943000 -14.233100 -35.364500
H -11.631300 -11.674900 -38.477900
N -11.493100 -13.375100 -37.501400
C -11.438200 -13.131600 -36.167900
H -11.240700 -12.888800 -39.389500
H -11.111500 -12.340400 -35.805400
C -11.103200 -12.474700 -38.534700
H -10.174700 -12.253100 -38.431900
H -10.566800 -17.884300 -41.545300
H -10.196500 -18.327500 -46.449400
O -9.879500 -17.123800 -44.050100
C -9.615900 -18.006900 -41.491200
H -9.398800 -18.479900 -40.685200
C -9.390500 -18.242600 -43.909500
C -9.259800 -18.495600 -46.325000
H -9.182400 -17.149700 -41.488500
N -9.157600 -18.780000 -42.650800
N -9.035900 -19.007100 -44.990400
H -8.962300 -19.142300 -46.968800
H -8.770000 -17.678500 -46.438600
C -8.593500 -20.030100 -42.400100
C -8.505600 -20.256400 -44.799400
O -8.430500 -20.432400 -41.239700
C -8.269700 -20.735700 -43.560500
N -8.187100 -21.123800 -45.784000
H -7.875400 -23.682100 -42.670600
N -7.737200 -21.981800 -43.647100
C -7.682300 -22.225400 -44.980600
H -7.484800 -22.468200 -41.759000
H -7.355600 -23.016600 -45.343100
C -7.347300 -22.882200 -42.613800
H -6.418800 -23.103800 -42.716600
