24
Fragment
H -14.322700 -17.472600 -39.603200
H -13.952400 -17.029500 -34.699100
O -13.635400 -18.233200 -37.098400
C -13.371800 -17.350000 -39.657300
H -13.154700 -16.877100 -40.463300
C -13.146400 -17.114300 -37.239000
C -13.015700 -16.861300 -34.823500
H -12.938300 -18.207300 -39.660000
N -12.913500 -16.576900 -38.497700
N -12.791800 -16.349800 -36.158100
H -12.718200 -16.214700 -34.179700
H -12.525900 -17.678500 -34.709900
C -12.349400 -15.326800 -38.748400
C -12.261500 -15.100600 -36.349100
O -12.186400 -14.924600 -39.908800
C -12.025600 -14.621300 -37.588000
N -11.943000 -14.233100 -35.364500
H -11.631300 -11.674900 -38.477900
N -11.493100 -13.375100 -37.501400
C -11.438200 -13.131600 -36.167900
H -11.240700 -12.888800 -39.389500
H -11.111500 -12.340400 -35.805400
C -11.103200 -12.474700 -38.534700
H -10.174700 -12.253100 -38.431900
18
Fragment
O -13.619600 -9.533000 -45.187800
H -13.387500 -9.987900 -43.376600
H -13.292100 -10.026400 -47.363700
O -13.146400 -10.557600 -42.839900
C -13.079500 -10.548900 -45.673100
O -12.972100 -10.684100 -46.993400
C -12.629600 -11.615900 -43.506400
C -12.554500 -11.634800 -44.907600
H -12.214200 -12.611400 -41.829300
C -12.165400 -12.656200 -42.757100
C -11.979800 -12.765400 -45.491800
H -11.907000 -12.798400 -46.419600
C -11.614700 -13.791600 -43.368500
C -11.524600 -13.813600 -44.772300
H -11.225600 -14.825600 -41.796900
N -11.174600 -14.838100 -42.654400
H -11.152800 -14.548200 -45.202400
H -10.841800 -15.521700 -43.057400
42
Fragment
H -14.322700 -17.472600 -39.603200
H -13.952400 -17.029500 -34.699100
O -13.635400 -18.233200 -37.098400
C -13.371800 -17.350000 -39.657300
H -13.154700 -16.877100 -40.463300
C -13.146400 -17.114300 -37.239000
C -13.015700 -16.861300 -34.823500
H -12.938300 -18.207300 -39.660000
N -12.913500 -16.576900 -38.497700
N -12.791800 -16.349800 -36.158100
H -12.718200 -16.214700 -34.179700
H -12.525900 -17.678500 -34.709900
C -12.349400 -15.326800 -38.748400
C -12.261500 -15.100600 -36.349100
O -12.186400 -14.924600 -39.908800
C -12.025600 -14.621300 -37.588000
N -11.943000 -14.233100 -35.364500
H -11.631300 -11.674900 -38.477900
N -11.493100 -13.375100 -37.501400
C -11.438200 -13.131600 -36.167900
H -11.240700 -12.888800 -39.389500
H -11.111500 -12.340400 -35.805400
C -11.103200 -12.474700 -38.534700
H -10.174700 -12.253100 -38.431900
O -13.619600 -9.533000 -45.187800
H -13.387500 -9.987900 -43.376600
H -13.292100 -10.026400 -47.363700
O -13.146400 -10.557600 -42.839900
C -13.079500 -10.548900 -45.673100
O -12.972100 -10.684100 -46.993400
C -12.629600 -11.615900 -43.506400
C -12.554500 -11.634800 -44.907600
H -12.214200 -12.611400 -41.829300
C -12.165400 -12.656200 -42.757100
C -11.979800 -12.765400 -45.491800
H -11.907000 -12.798400 -46.419600
C -11.614700 -13.791600 -43.368500
C -11.524600 -13.813600 -44.772300
H -11.225600 -14.825600 -41.796900
N -11.174600 -14.838100 -42.654400
H -11.152800 -14.548200 -45.202400
H -10.841800 -15.521700 -43.057400
