15
Fragment
O -8.260900 -40.080500 -14.911000
N -7.473400 -39.977200 -15.847100
H -7.435500 -37.810300 -14.425800
C -7.125100 -37.634900 -15.307100
C -7.052400 -38.641500 -16.250000
H -7.044000 -35.547300 -14.000800
O -7.029800 -40.947800 -16.458800
C -6.733800 -36.370500 -15.687000
O -6.720900 -35.323200 -14.805400
C -6.628100 -38.438200 -17.549800
H -6.585700 -39.153600 -18.172600
C -6.315500 -36.122200 -16.991400
C -6.267900 -37.153900 -17.909500
H -6.062400 -35.244400 -17.250800
H -5.984200 -36.979100 -18.799000
15
Fragment
H -12.325300 -44.556200 -8.877900
H -12.046100 -46.097900 -10.583400
C -12.003400 -44.263900 -9.722400
C -11.840000 -45.183900 -10.735200
H -11.832000 -42.290600 -9.211800
C -11.710400 -42.926800 -9.907300
C -11.374200 -44.775200 -11.978000
O -11.241100 -45.731100 -12.945900
C -11.230700 -42.557300 -11.151000
O -11.174800 -40.333800 -10.518300
C -11.042700 -43.447500 -12.189500
H -10.999000 -45.387400 -13.743300
N -10.885300 -41.153700 -11.388300
H -10.695100 -43.156600 -13.024800
O -10.330100 -40.843500 -12.432100
30
Fragment
O -8.260900 -40.080500 -14.911000
N -7.473400 -39.977200 -15.847100
H -7.435500 -37.810300 -14.425800
C -7.125100 -37.634900 -15.307100
C -7.052400 -38.641500 -16.250000
H -7.044000 -35.547300 -14.000800
O -7.029800 -40.947800 -16.458800
C -6.733800 -36.370500 -15.687000
O -6.720900 -35.323200 -14.805400
C -6.628100 -38.438200 -17.549800
H -6.585700 -39.153600 -18.172600
C -6.315500 -36.122200 -16.991400
C -6.267900 -37.153900 -17.909500
H -6.062400 -35.244400 -17.250800
H -5.984200 -36.979100 -18.799000
H -12.325300 -44.556200 -8.877900
H -12.046100 -46.097900 -10.583400
C -12.003400 -44.263900 -9.722400
C -11.840000 -45.183900 -10.735200
H -11.832000 -42.290600 -9.211800
C -11.710400 -42.926800 -9.907300
C -11.374200 -44.775200 -11.978000
O -11.241100 -45.731100 -12.945900
C -11.230700 -42.557300 -11.151000
O -11.174800 -40.333800 -10.518300
C -11.042700 -43.447500 -12.189500
H -10.999000 -45.387400 -13.743300
N -10.885300 -41.153700 -11.388300
H -10.695100 -43.156600 -13.024800
O -10.330100 -40.843500 -12.432100
