21
Fragment
O -15.905800 -14.923800 -17.069200
H -15.445800 -13.173200 -19.576500
O -14.894500 -12.651900 -19.212200
H -14.850300 -13.609700 -15.494700
C -14.780100 -14.466600 -17.096000
O -14.263500 -13.747200 -16.116100
H -14.219400 -15.366700 -18.857000
C -13.855400 -14.658900 -18.268200
H -13.791500 -14.338500 -20.902400
C -13.673200 -13.356100 -19.091400
O -13.149200 -11.424000 -17.751900
C -13.113700 -13.781000 -20.444300
H -12.972200 -14.961800 -17.939800
C -12.723400 -12.656700 -21.364600
C -12.653900 -12.481000 -18.363900
O -12.577100 -13.092900 -22.606800
O -12.542900 -11.508900 -21.024600
H -12.532700 -11.067000 -17.246000
H -12.368400 -12.442100 -23.115300
H -12.317800 -14.348700 -20.288500
O -11.490800 -12.812800 -18.325700
21
Fragment
O -22.445300 -14.923800 -17.069200
H -21.985300 -13.173200 -19.576500
O -21.434000 -12.651900 -19.212200
H -21.389800 -13.609700 -15.494700
C -21.319600 -14.466600 -17.096000
O -20.803000 -13.747200 -16.116100
H -20.758900 -15.366700 -18.857000
C -20.394900 -14.658900 -18.268200
H -20.331000 -14.338500 -20.902400
C -20.212700 -13.356100 -19.091400
O -19.688700 -11.424000 -17.751900
C -19.653200 -13.781000 -20.444300
H -19.511700 -14.961800 -17.939800
C -19.262900 -12.656700 -21.364600
C -19.193400 -12.481000 -18.363900
O -19.116600 -13.092900 -22.606800
O -19.082400 -11.508900 -21.024600
H -19.072200 -11.067000 -17.246000
H -18.907900 -12.442100 -23.115300
H -18.857300 -14.348700 -20.288500
O -18.030300 -12.812800 -18.325700
42
Fragment
O -15.905800 -14.923800 -17.069200
H -15.445800 -13.173200 -19.576500
O -14.894500 -12.651900 -19.212200
H -14.850300 -13.609700 -15.494700
C -14.780100 -14.466600 -17.096000
O -14.263500 -13.747200 -16.116100
H -14.219400 -15.366700 -18.857000
C -13.855400 -14.658900 -18.268200
H -13.791500 -14.338500 -20.902400
C -13.673200 -13.356100 -19.091400
O -13.149200 -11.424000 -17.751900
C -13.113700 -13.781000 -20.444300
H -12.972200 -14.961800 -17.939800
C -12.723400 -12.656700 -21.364600
C -12.653900 -12.481000 -18.363900
O -12.577100 -13.092900 -22.606800
O -12.542900 -11.508900 -21.024600
H -12.532700 -11.067000 -17.246000
H -12.368400 -12.442100 -23.115300
H -12.317800 -14.348700 -20.288500
O -11.490800 -12.812800 -18.325700
O -22.445300 -14.923800 -17.069200
H -21.985300 -13.173200 -19.576500
O -21.434000 -12.651900 -19.212200
H -21.389800 -13.609700 -15.494700
C -21.319600 -14.466600 -17.096000
O -20.803000 -13.747200 -16.116100
H -20.758900 -15.366700 -18.857000
C -20.394900 -14.658900 -18.268200
H -20.331000 -14.338500 -20.902400
C -20.212700 -13.356100 -19.091400
O -19.688700 -11.424000 -17.751900
C -19.653200 -13.781000 -20.444300
H -19.511700 -14.961800 -17.939800
C -19.262900 -12.656700 -21.364600
C -19.193400 -12.481000 -18.363900
O -19.116600 -13.092900 -22.606800
O -19.082400 -11.508900 -21.024600
H -19.072200 -11.067000 -17.246000
H -18.907900 -12.442100 -23.115300
H -18.857300 -14.348700 -20.288500
O -18.030300 -12.812800 -18.325700
