15
Fragment
O -8.260900 -40.080500 -14.911000
N -7.473400 -39.977200 -15.847100
H -7.435500 -37.810300 -14.425800
C -7.125100 -37.634900 -15.307100
C -7.052400 -38.641500 -16.250000
H -7.044000 -35.547300 -14.000800
O -7.029800 -40.947800 -16.458800
C -6.733800 -36.370500 -15.687000
O -6.720900 -35.323200 -14.805400
C -6.628100 -38.438200 -17.549800
H -6.585700 -39.153600 -18.172600
C -6.315500 -36.122200 -16.991400
C -6.267900 -37.153900 -17.909500
H -6.062400 -35.244400 -17.250800
H -5.984200 -36.979100 -18.799000
15
Fragment
H -6.178500 -43.456900 -17.996900
H -6.100300 -45.191600 -19.545000
C -5.894800 -43.282100 -18.886400
C -5.847200 -44.313800 -19.804400
H -5.577000 -41.282400 -18.623300
C -5.534600 -41.997800 -19.246100
O -5.441800 -45.112800 -21.990500
C -5.428900 -44.065500 -21.108900
O -5.132900 -39.488200 -20.337100
H -5.118700 -44.888700 -22.795000
C -5.110300 -41.794500 -20.545900
C -5.037600 -42.801100 -21.488800
H -4.727200 -42.625700 -22.370000
N -4.689300 -40.458800 -20.948800
O -3.901800 -40.355500 -21.884900
30
Fragment
O -8.260900 -40.080500 -14.911000
N -7.473400 -39.977200 -15.847100
H -7.435500 -37.810300 -14.425800
C -7.125100 -37.634900 -15.307100
C -7.052400 -38.641500 -16.250000
H -7.044000 -35.547300 -14.000800
O -7.029800 -40.947800 -16.458800
C -6.733800 -36.370500 -15.687000
O -6.720900 -35.323200 -14.805400
C -6.628100 -38.438200 -17.549800
H -6.585700 -39.153600 -18.172600
C -6.315500 -36.122200 -16.991400
C -6.267900 -37.153900 -17.909500
H -6.062400 -35.244400 -17.250800
H -5.984200 -36.979100 -18.799000
H -6.178500 -43.456900 -17.996900
H -6.100300 -45.191600 -19.545000
C -5.894800 -43.282100 -18.886400
C -5.847200 -44.313800 -19.804400
H -5.577000 -41.282400 -18.623300
C -5.534600 -41.997800 -19.246100
O -5.441800 -45.112800 -21.990500
C -5.428900 -44.065500 -21.108900
O -5.132900 -39.488200 -20.337100
H -5.118700 -44.888700 -22.795000
C -5.110300 -41.794500 -20.545900
C -5.037600 -42.801100 -21.488800
H -4.727200 -42.625700 -22.370000
N -4.689300 -40.458800 -20.948800
O -3.901800 -40.355500 -21.884900
