15
Fragment
O -8.260900 -40.080500 -14.911000
N -7.473400 -39.977200 -15.847100
H -7.435500 -37.810300 -14.425800
C -7.125100 -37.634900 -15.307100
C -7.052400 -38.641500 -16.250000
H -7.044000 -35.547300 -14.000800
O -7.029800 -40.947800 -16.458800
C -6.733800 -36.370500 -15.687000
O -6.720900 -35.323200 -14.805400
C -6.628100 -38.438200 -17.549800
H -6.585700 -39.153600 -18.172600
C -6.315500 -36.122200 -16.991400
C -6.267900 -37.153900 -17.909500
H -6.062400 -35.244400 -17.250800
H -5.984200 -36.979100 -18.799000
8
Fragment
H -10.647800 -37.148000 -21.314000
H -9.881900 -38.418900 -21.268000
N -9.865300 -37.607300 -21.254200
C -8.712000 -36.946100 -21.297400
O -8.706900 -35.677100 -21.381700
H -7.617900 -38.445700 -21.194400
N -7.578600 -37.634700 -21.266200
H -6.855200 -37.228500 -21.360000
23
Fragment
O -8.260900 -40.080500 -14.911000
N -7.473400 -39.977200 -15.847100
H -7.435500 -37.810300 -14.425800
C -7.125100 -37.634900 -15.307100
C -7.052400 -38.641500 -16.250000
H -7.044000 -35.547300 -14.000800
O -7.029800 -40.947800 -16.458800
C -6.733800 -36.370500 -15.687000
O -6.720900 -35.323200 -14.805400
C -6.628100 -38.438200 -17.549800
H -6.585700 -39.153600 -18.172600
C -6.315500 -36.122200 -16.991400
C -6.267900 -37.153900 -17.909500
H -6.062400 -35.244400 -17.250800
H -5.984200 -36.979100 -18.799000
H -10.647800 -37.148000 -21.314000
H -9.881900 -38.418900 -21.268000
N -9.865300 -37.607300 -21.254200
C -8.712000 -36.946100 -21.297400
O -8.706900 -35.677100 -21.381700
H -7.617900 -38.445700 -21.194400
N -7.578600 -37.634700 -21.266200
H -6.855200 -37.228500 -21.360000
