21
Fragment
O -15.905800 -14.923800 -17.069200
H -15.445800 -13.173200 -19.576500
O -14.894500 -12.651900 -19.212200
H -14.850300 -13.609700 -15.494700
C -14.780100 -14.466600 -17.096000
O -14.263500 -13.747200 -16.116100
H -14.219400 -15.366700 -18.857000
C -13.855400 -14.658900 -18.268200
H -13.791500 -14.338500 -20.902400
C -13.673200 -13.356100 -19.091400
O -13.149200 -11.424000 -17.751900
C -13.113700 -13.781000 -20.444300
H -12.972200 -14.961800 -17.939800
C -12.723400 -12.656700 -21.364600
C -12.653900 -12.481000 -18.363900
O -12.577100 -13.092900 -22.606800
O -12.542900 -11.508900 -21.024600
H -12.532700 -11.067000 -17.246000
H -12.368400 -12.442100 -23.115300
H -12.317800 -14.348700 -20.288500
O -11.490800 -12.812800 -18.325700
8
Fragment
O -12.114500 -11.357200 -24.425100
C -11.808100 -10.134100 -24.376900
H -11.799600 -9.996900 -22.484800
H -11.789600 -9.864000 -26.252800
N -11.632500 -9.525200 -23.201300
N -11.604800 -9.443100 -25.501500
H -11.576900 -8.580800 -25.486600
H -11.400300 -8.709600 -23.144000
29
Fragment
O -15.905800 -14.923800 -17.069200
H -15.445800 -13.173200 -19.576500
O -14.894500 -12.651900 -19.212200
H -14.850300 -13.609700 -15.494700
C -14.780100 -14.466600 -17.096000
O -14.263500 -13.747200 -16.116100
H -14.219400 -15.366700 -18.857000
C -13.855400 -14.658900 -18.268200
H -13.791500 -14.338500 -20.902400
C -13.673200 -13.356100 -19.091400
O -13.149200 -11.424000 -17.751900
C -13.113700 -13.781000 -20.444300
H -12.972200 -14.961800 -17.939800
C -12.723400 -12.656700 -21.364600
C -12.653900 -12.481000 -18.363900
O -12.577100 -13.092900 -22.606800
O -12.542900 -11.508900 -21.024600
H -12.532700 -11.067000 -17.246000
H -12.368400 -12.442100 -23.115300
H -12.317800 -14.348700 -20.288500
O -11.490800 -12.812800 -18.325700
O -12.114500 -11.357200 -24.425100
C -11.808100 -10.134100 -24.376900
H -11.799600 -9.996900 -22.484800
H -11.789600 -9.864000 -26.252800
N -11.632500 -9.525200 -23.201300
N -11.604800 -9.443100 -25.501500
H -11.576900 -8.580800 -25.486600
H -11.400300 -8.709600 -23.144000
