21
Fragment
O -15.905800 -14.923800 -17.069200
H -15.445800 -13.173200 -19.576500
O -14.894500 -12.651900 -19.212200
H -14.850300 -13.609700 -15.494700
C -14.780100 -14.466600 -17.096000
O -14.263500 -13.747200 -16.116100
H -14.219400 -15.366700 -18.857000
C -13.855400 -14.658900 -18.268200
H -13.791500 -14.338500 -20.902400
C -13.673200 -13.356100 -19.091400
O -13.149200 -11.424000 -17.751900
C -13.113700 -13.781000 -20.444300
H -12.972200 -14.961800 -17.939800
C -12.723400 -12.656700 -21.364600
C -12.653900 -12.481000 -18.363900
O -12.577100 -13.092900 -22.606800
O -12.542900 -11.508900 -21.024600
H -12.532700 -11.067000 -17.246000
H -12.368400 -12.442100 -23.115300
H -12.317800 -14.348700 -20.288500
O -11.490800 -12.812800 -18.325700
21
Fragment
O -17.696500 -17.321900 -11.843000
H -16.869500 -15.786100 -9.880300
H -16.818900 -17.692600 -7.053500
H -16.654600 -19.067700 -12.922800
O -16.644400 -18.625900 -9.144100
O -16.610200 -17.041900 -7.561900
C -16.533400 -17.653700 -11.804900
C -16.463900 -17.478100 -8.804100
H -16.215000 -15.172900 -12.228900
C -16.073600 -16.353700 -9.724400
O -16.038000 -18.710700 -12.416900
C -15.514100 -16.778700 -11.077400
H -15.395800 -15.796200 -9.266300
C -15.331900 -15.475800 -11.900500
H -14.967900 -14.768100 -11.311800
O -14.923800 -16.387600 -14.052600
C -14.407200 -15.668100 -13.072700
H -14.337000 -16.525100 -14.674100
O -14.292800 -17.482900 -10.956500
H -13.741500 -16.961500 -10.592200
O -13.281500 -15.211000 -13.099600
42
Fragment
O -15.905800 -14.923800 -17.069200
H -15.445800 -13.173200 -19.576500
O -14.894500 -12.651900 -19.212200
H -14.850300 -13.609700 -15.494700
C -14.780100 -14.466600 -17.096000
O -14.263500 -13.747200 -16.116100
H -14.219400 -15.366700 -18.857000
C -13.855400 -14.658900 -18.268200
H -13.791500 -14.338500 -20.902400
C -13.673200 -13.356100 -19.091400
O -13.149200 -11.424000 -17.751900
C -13.113700 -13.781000 -20.444300
H -12.972200 -14.961800 -17.939800
C -12.723400 -12.656700 -21.364600
C -12.653900 -12.481000 -18.363900
O -12.577100 -13.092900 -22.606800
O -12.542900 -11.508900 -21.024600
H -12.532700 -11.067000 -17.246000
H -12.368400 -12.442100 -23.115300
H -12.317800 -14.348700 -20.288500
O -11.490800 -12.812800 -18.325700
O -17.696500 -17.321900 -11.843000
H -16.869500 -15.786100 -9.880300
H -16.818900 -17.692600 -7.053500
H -16.654600 -19.067700 -12.922800
O -16.644400 -18.625900 -9.144100
O -16.610200 -17.041900 -7.561900
C -16.533400 -17.653700 -11.804900
C -16.463900 -17.478100 -8.804100
H -16.215000 -15.172900 -12.228900
C -16.073600 -16.353700 -9.724400
O -16.038000 -18.710700 -12.416900
C -15.514100 -16.778700 -11.077400
H -15.395800 -15.796200 -9.266300
C -15.331900 -15.475800 -11.900500
H -14.967900 -14.768100 -11.311800
O -14.923800 -16.387600 -14.052600
C -14.407200 -15.668100 -13.072700
H -14.337000 -16.525100 -14.674100
O -14.292800 -17.482900 -10.956500
H -13.741500 -16.961500 -10.592200
O -13.281500 -15.211000 -13.099600
