15
Fragment
O -8.260900 -40.080500 -14.911000
N -7.473400 -39.977200 -15.847100
H -7.435500 -37.810300 -14.425800
C -7.125100 -37.634900 -15.307100
C -7.052400 -38.641500 -16.250000
H -7.044000 -35.547300 -14.000800
O -7.029800 -40.947800 -16.458800
C -6.733800 -36.370500 -15.687000
O -6.720900 -35.323200 -14.805400
C -6.628100 -38.438200 -17.549800
H -6.585700 -39.153600 -18.172600
C -6.315500 -36.122200 -16.991400
C -6.267900 -37.153900 -17.909500
H -6.062400 -35.244400 -17.250800
H -5.984200 -36.979100 -18.799000
8
Fragment
H -9.402100 -34.769800 -11.406700
N -8.640700 -34.401900 -11.151900
H -8.628900 -33.657100 -10.799600
O -7.512700 -35.958900 -12.340200
C -7.505800 -34.897400 -11.651400
N -6.364200 -34.258500 -11.407600
H -6.329400 -33.633000 -10.864000
H -5.581600 -34.641100 -11.673500
23
Fragment
O -8.260900 -40.080500 -14.911000
N -7.473400 -39.977200 -15.847100
H -7.435500 -37.810300 -14.425800
C -7.125100 -37.634900 -15.307100
C -7.052400 -38.641500 -16.250000
H -7.044000 -35.547300 -14.000800
O -7.029800 -40.947800 -16.458800
C -6.733800 -36.370500 -15.687000
O -6.720900 -35.323200 -14.805400
C -6.628100 -38.438200 -17.549800
H -6.585700 -39.153600 -18.172600
C -6.315500 -36.122200 -16.991400
C -6.267900 -37.153900 -17.909500
H -6.062400 -35.244400 -17.250800
H -5.984200 -36.979100 -18.799000
H -9.402100 -34.769800 -11.406700
N -8.640700 -34.401900 -11.151900
H -8.628900 -33.657100 -10.799600
O -7.512700 -35.958900 -12.340200
C -7.505800 -34.897400 -11.651400
N -6.364200 -34.258500 -11.407600
H -6.329400 -33.633000 -10.864000
H -5.581600 -34.641100 -11.673500
