15
Fragment
O -8.260900 -40.080500 -14.911000
N -7.473400 -39.977200 -15.847100
H -7.435500 -37.810300 -14.425800
C -7.125100 -37.634900 -15.307100
C -7.052400 -38.641500 -16.250000
H -7.044000 -35.547300 -14.000800
O -7.029800 -40.947800 -16.458800
C -6.733800 -36.370500 -15.687000
O -6.720900 -35.323200 -14.805400
C -6.628100 -38.438200 -17.549800
H -6.585700 -39.153600 -18.172600
C -6.315500 -36.122200 -16.991400
C -6.267900 -37.153900 -17.909500
H -6.062400 -35.244400 -17.250800
H -5.984200 -36.979100 -18.799000
15
Fragment
H -8.539000 -43.456900 -8.797900
H -8.460800 -45.191600 -10.346100
C -8.255300 -43.282100 -9.687400
C -8.207700 -44.313800 -10.605500
H -7.937500 -41.282400 -9.424300
C -7.895100 -41.997800 -10.047100
O -7.802300 -45.112800 -12.791500
C -7.789400 -44.065500 -11.909900
O -7.493500 -39.488200 -11.138100
H -7.479200 -44.888700 -13.596100
C -7.470800 -41.794500 -11.346900
C -7.398100 -42.801100 -12.289800
H -7.087700 -42.625700 -13.171100
N -7.049900 -40.458800 -11.749800
O -6.262300 -40.355500 -12.685900
30
Fragment
O -8.260900 -40.080500 -14.911000
N -7.473400 -39.977200 -15.847100
H -7.435500 -37.810300 -14.425800
C -7.125100 -37.634900 -15.307100
C -7.052400 -38.641500 -16.250000
H -7.044000 -35.547300 -14.000800
O -7.029800 -40.947800 -16.458800
C -6.733800 -36.370500 -15.687000
O -6.720900 -35.323200 -14.805400
C -6.628100 -38.438200 -17.549800
H -6.585700 -39.153600 -18.172600
C -6.315500 -36.122200 -16.991400
C -6.267900 -37.153900 -17.909500
H -6.062400 -35.244400 -17.250800
H -5.984200 -36.979100 -18.799000
H -8.539000 -43.456900 -8.797900
H -8.460800 -45.191600 -10.346100
C -8.255300 -43.282100 -9.687400
C -8.207700 -44.313800 -10.605500
H -7.937500 -41.282400 -9.424300
C -7.895100 -41.997800 -10.047100
O -7.802300 -45.112800 -12.791500
C -7.789400 -44.065500 -11.909900
O -7.493500 -39.488200 -11.138100
H -7.479200 -44.888700 -13.596100
C -7.470800 -41.794500 -11.346900
C -7.398100 -42.801100 -12.289800
H -7.087700 -42.625700 -13.171100
N -7.049900 -40.458800 -11.749800
O -6.262300 -40.355500 -12.685900
