25
Fragment
H -24.438300 -25.579500 -27.546600
H -23.967900 -23.155900 -28.345800
C -23.465900 -25.700000 -27.508300
H -23.247500 -26.642900 -27.661900
H -23.222500 -25.084400 -29.454600
H -23.136500 -25.428900 -26.625900
C -23.008700 -23.359400 -28.350900
C -22.808200 -24.849000 -28.576500
H -22.614600 -23.103700 -27.489900
H -22.572400 -22.857700 -29.072200
N -21.360800 -25.143300 -28.662700
H -21.094000 -23.422900 -33.242400
N -21.014600 -24.335400 -30.923000
H -20.808000 -25.962800 -26.858600
C -20.575300 -24.829900 -29.740700
C -20.515300 -25.663200 -27.712500
N -20.269000 -23.615200 -33.001700
C -20.024800 -24.123600 -31.772200
H -19.603100 -23.476600 -33.560100
C -19.283100 -25.171800 -29.384000
N -19.259800 -25.704800 -28.104000
N -18.699900 -24.356700 -31.478600
C -18.222600 -24.924800 -30.297400
H -18.106000 -24.128400 -32.087100
O -17.013300 -25.137000 -30.146200
25
Fragment
H -16.624500 -26.620500 -33.155400
H -16.154100 -29.044100 -32.356200
C -15.652200 -26.500000 -33.193700
H -15.433700 -25.557100 -33.040100
H -15.408700 -27.115700 -31.247400
H -15.322800 -26.771200 -34.076100
C -15.194900 -28.840700 -32.351100
C -14.994400 -27.351000 -32.125500
H -14.800800 -29.096300 -33.212100
H -14.758600 -29.342400 -31.629800
N -13.547000 -27.056800 -32.039300
H -13.280200 -28.777100 -27.459600
N -13.200900 -27.864700 -29.779000
H -12.994300 -26.237200 -33.843400
C -12.761600 -27.370100 -30.961300
C -12.701600 -26.536900 -32.989500
N -12.455300 -28.584900 -27.700300
C -12.211000 -28.076500 -28.929800
H -11.789400 -28.723500 -27.141900
C -11.469300 -27.028300 -31.318000
N -11.446000 -26.495300 -32.598000
N -10.886100 -27.843400 -29.223400
C -10.408900 -27.275300 -30.404600
H -10.292300 -28.071700 -28.614900
O -9.199600 -27.063000 -30.555800
50
Fragment
H -24.438300 -25.579500 -27.546600
H -23.967900 -23.155900 -28.345800
C -23.465900 -25.700000 -27.508300
H -23.247500 -26.642900 -27.661900
H -23.222500 -25.084400 -29.454600
H -23.136500 -25.428900 -26.625900
C -23.008700 -23.359400 -28.350900
C -22.808200 -24.849000 -28.576500
H -22.614600 -23.103700 -27.489900
H -22.572400 -22.857700 -29.072200
N -21.360800 -25.143300 -28.662700
H -21.094000 -23.422900 -33.242400
N -21.014600 -24.335400 -30.923000
H -20.808000 -25.962800 -26.858600
C -20.575300 -24.829900 -29.740700
C -20.515300 -25.663200 -27.712500
N -20.269000 -23.615200 -33.001700
C -20.024800 -24.123600 -31.772200
H -19.603100 -23.476600 -33.560100
C -19.283100 -25.171800 -29.384000
N -19.259800 -25.704800 -28.104000
N -18.699900 -24.356700 -31.478600
C -18.222600 -24.924800 -30.297400
H -18.106000 -24.128400 -32.087100
O -17.013300 -25.137000 -30.146200
H -16.624500 -26.620500 -33.155400
H -16.154100 -29.044100 -32.356200
C -15.652200 -26.500000 -33.193700
H -15.433700 -25.557100 -33.040100
H -15.408700 -27.115700 -31.247400
H -15.322800 -26.771200 -34.076100
C -15.194900 -28.840700 -32.351100
C -14.994400 -27.351000 -32.125500
H -14.800800 -29.096300 -33.212100
H -14.758600 -29.342400 -31.629800
N -13.547000 -27.056800 -32.039300
H -13.280200 -28.777100 -27.459600
N -13.200900 -27.864700 -29.779000
H -12.994300 -26.237200 -33.843400
C -12.761600 -27.370100 -30.961300
C -12.701600 -26.536900 -32.989500
N -12.455300 -28.584900 -27.700300
C -12.211000 -28.076500 -28.929800
H -11.789400 -28.723500 -27.141900
C -11.469300 -27.028300 -31.318000
N -11.446000 -26.495300 -32.598000
N -10.886100 -27.843400 -29.223400
C -10.408900 -27.275300 -30.404600
H -10.292300 -28.071700 -28.614900
O -9.199600 -27.063000 -30.555800
