25
Fragment
H -24.438300 -25.579500 -27.546600
H -23.967900 -23.155900 -28.345800
C -23.465900 -25.700000 -27.508300
H -23.247500 -26.642900 -27.661900
H -23.222500 -25.084400 -29.454600
H -23.136500 -25.428900 -26.625900
C -23.008700 -23.359400 -28.350900
C -22.808200 -24.849000 -28.576500
H -22.614600 -23.103700 -27.489900
H -22.572400 -22.857700 -29.072200
N -21.360800 -25.143300 -28.662700
H -21.094000 -23.422900 -33.242400
N -21.014600 -24.335400 -30.923000
H -20.808000 -25.962800 -26.858600
C -20.575300 -24.829900 -29.740700
C -20.515300 -25.663200 -27.712500
N -20.269000 -23.615200 -33.001700
C -20.024800 -24.123600 -31.772200
H -19.603100 -23.476600 -33.560100
C -19.283100 -25.171800 -29.384000
N -19.259800 -25.704800 -28.104000
N -18.699900 -24.356700 -31.478600
C -18.222600 -24.924800 -30.297400
H -18.106000 -24.128400 -32.087100
O -17.013300 -25.137000 -30.146200
25
Fragment
O -18.996600 -24.852600 -35.219900
H -17.863800 -25.484100 -37.279100
C -17.837700 -24.567000 -35.546900
N -17.332500 -25.001700 -36.770000
N -16.936500 -23.270800 -33.537500
C -16.870400 -23.818600 -34.814600
H -16.396400 -25.628700 -38.932200
C -16.070900 -24.738800 -37.247400
N -15.790500 -25.182200 -38.477200
C -15.729500 -22.790200 -33.337500
C -15.608700 -23.650900 -35.353500
H -15.472800 -22.343100 -32.540300
N -15.152300 -24.062900 -36.560000
H -14.999300 -25.027700 -38.831100
N -14.876800 -22.997400 -34.392100
H -13.841300 -20.554900 -34.630500
H -13.830300 -21.263300 -36.065100
C -13.465000 -22.573800 -34.523000
C -13.390000 -21.221100 -35.190000
H -13.166200 -21.931500 -32.582800
H -13.003600 -23.232000 -35.118100
H -12.863000 -23.490000 -32.773000
C -12.764900 -22.601700 -33.172800
H -12.450400 -20.966500 -35.308300
H -11.812800 -22.401300 -33.295000
50
Fragment
H -24.438300 -25.579500 -27.546600
H -23.967900 -23.155900 -28.345800
C -23.465900 -25.700000 -27.508300
H -23.247500 -26.642900 -27.661900
H -23.222500 -25.084400 -29.454600
H -23.136500 -25.428900 -26.625900
C -23.008700 -23.359400 -28.350900
C -22.808200 -24.849000 -28.576500
H -22.614600 -23.103700 -27.489900
H -22.572400 -22.857700 -29.072200
N -21.360800 -25.143300 -28.662700
H -21.094000 -23.422900 -33.242400
N -21.014600 -24.335400 -30.923000
H -20.808000 -25.962800 -26.858600
C -20.575300 -24.829900 -29.740700
C -20.515300 -25.663200 -27.712500
N -20.269000 -23.615200 -33.001700
C -20.024800 -24.123600 -31.772200
H -19.603100 -23.476600 -33.560100
C -19.283100 -25.171800 -29.384000
N -19.259800 -25.704800 -28.104000
N -18.699900 -24.356700 -31.478600
C -18.222600 -24.924800 -30.297400
H -18.106000 -24.128400 -32.087100
O -17.013300 -25.137000 -30.146200
O -18.996600 -24.852600 -35.219900
H -17.863800 -25.484100 -37.279100
C -17.837700 -24.567000 -35.546900
N -17.332500 -25.001700 -36.770000
N -16.936500 -23.270800 -33.537500
C -16.870400 -23.818600 -34.814600
H -16.396400 -25.628700 -38.932200
C -16.070900 -24.738800 -37.247400
N -15.790500 -25.182200 -38.477200
C -15.729500 -22.790200 -33.337500
C -15.608700 -23.650900 -35.353500
H -15.472800 -22.343100 -32.540300
N -15.152300 -24.062900 -36.560000
H -14.999300 -25.027700 -38.831100
N -14.876800 -22.997400 -34.392100
H -13.841300 -20.554900 -34.630500
H -13.830300 -21.263300 -36.065100
C -13.465000 -22.573800 -34.523000
C -13.390000 -21.221100 -35.190000
H -13.166200 -21.931500 -32.582800
H -13.003600 -23.232000 -35.118100
H -12.863000 -23.490000 -32.773000
C -12.764900 -22.601700 -33.172800
H -12.450400 -20.966500 -35.308300
H -11.812800 -22.401300 -33.295000
