25
Fragment
H -24.438300 -25.579500 -27.546600
H -23.967900 -23.155900 -28.345800
C -23.465900 -25.700000 -27.508300
H -23.247500 -26.642900 -27.661900
H -23.222500 -25.084400 -29.454600
H -23.136500 -25.428900 -26.625900
C -23.008700 -23.359400 -28.350900
C -22.808200 -24.849000 -28.576500
H -22.614600 -23.103700 -27.489900
H -22.572400 -22.857700 -29.072200
N -21.360800 -25.143300 -28.662700
H -21.094000 -23.422900 -33.242400
N -21.014600 -24.335400 -30.923000
H -20.808000 -25.962800 -26.858600
C -20.575300 -24.829900 -29.740700
C -20.515300 -25.663200 -27.712500
N -20.269000 -23.615200 -33.001700
C -20.024800 -24.123600 -31.772200
H -19.603100 -23.476600 -33.560100
C -19.283100 -25.171800 -29.384000
N -19.259800 -25.704800 -28.104000
N -18.699900 -24.356700 -31.478600
C -18.222600 -24.924800 -30.297400
H -18.106000 -24.128400 -32.087100
O -17.013300 -25.137000 -30.146200
25
Fragment
O -26.810400 -27.347500 -25.482100
H -25.677500 -26.716000 -23.422900
C -25.651400 -27.633100 -25.155100
N -25.146200 -27.198300 -23.932000
N -24.750200 -28.929300 -27.164500
C -24.684100 -28.381500 -25.887400
H -24.210100 -26.571300 -21.769800
C -23.884600 -27.461300 -23.454600
N -23.604200 -27.017900 -22.224800
C -23.543300 -29.409800 -27.364500
C -23.422500 -28.549100 -25.348500
H -23.286500 -29.856900 -28.161700
N -22.966000 -28.137200 -24.142000
H -22.813000 -27.172400 -21.870900
N -22.690500 -29.202600 -26.309900
H -21.655000 -31.645200 -26.071500
H -21.644100 -30.936700 -24.636900
C -21.278700 -29.626200 -26.179000
C -21.203700 -30.978900 -25.512000
H -20.979900 -30.268600 -28.119200
H -20.817400 -28.968000 -25.583900
H -20.676700 -28.710000 -27.929000
C -20.578600 -29.598300 -27.529200
H -20.264200 -31.233500 -25.393700
H -19.626600 -29.798800 -27.407000
50
Fragment
H -24.438300 -25.579500 -27.546600
H -23.967900 -23.155900 -28.345800
C -23.465900 -25.700000 -27.508300
H -23.247500 -26.642900 -27.661900
H -23.222500 -25.084400 -29.454600
H -23.136500 -25.428900 -26.625900
C -23.008700 -23.359400 -28.350900
C -22.808200 -24.849000 -28.576500
H -22.614600 -23.103700 -27.489900
H -22.572400 -22.857700 -29.072200
N -21.360800 -25.143300 -28.662700
H -21.094000 -23.422900 -33.242400
N -21.014600 -24.335400 -30.923000
H -20.808000 -25.962800 -26.858600
C -20.575300 -24.829900 -29.740700
C -20.515300 -25.663200 -27.712500
N -20.269000 -23.615200 -33.001700
C -20.024800 -24.123600 -31.772200
H -19.603100 -23.476600 -33.560100
C -19.283100 -25.171800 -29.384000
N -19.259800 -25.704800 -28.104000
N -18.699900 -24.356700 -31.478600
C -18.222600 -24.924800 -30.297400
H -18.106000 -24.128400 -32.087100
O -17.013300 -25.137000 -30.146200
O -26.810400 -27.347500 -25.482100
H -25.677500 -26.716000 -23.422900
C -25.651400 -27.633100 -25.155100
N -25.146200 -27.198300 -23.932000
N -24.750200 -28.929300 -27.164500
C -24.684100 -28.381500 -25.887400
H -24.210100 -26.571300 -21.769800
C -23.884600 -27.461300 -23.454600
N -23.604200 -27.017900 -22.224800
C -23.543300 -29.409800 -27.364500
C -23.422500 -28.549100 -25.348500
H -23.286500 -29.856900 -28.161700
N -22.966000 -28.137200 -24.142000
H -22.813000 -27.172400 -21.870900
N -22.690500 -29.202600 -26.309900
H -21.655000 -31.645200 -26.071500
H -21.644100 -30.936700 -24.636900
C -21.278700 -29.626200 -26.179000
C -21.203700 -30.978900 -25.512000
H -20.979900 -30.268600 -28.119200
H -20.817400 -28.968000 -25.583900
H -20.676700 -28.710000 -27.929000
C -20.578600 -29.598300 -27.529200
H -20.264200 -31.233500 -25.393700
H -19.626600 -29.798800 -27.407000
