25
Fragment
H -24.438300 -25.579500 -27.546600
H -23.967900 -23.155900 -28.345800
C -23.465900 -25.700000 -27.508300
H -23.247500 -26.642900 -27.661900
H -23.222500 -25.084400 -29.454600
H -23.136500 -25.428900 -26.625900
C -23.008700 -23.359400 -28.350900
C -22.808200 -24.849000 -28.576500
H -22.614600 -23.103700 -27.489900
H -22.572400 -22.857700 -29.072200
N -21.360800 -25.143300 -28.662700
H -21.094000 -23.422900 -33.242400
N -21.014600 -24.335400 -30.923000
H -20.808000 -25.962800 -26.858600
C -20.575300 -24.829900 -29.740700
C -20.515300 -25.663200 -27.712500
N -20.269000 -23.615200 -33.001700
C -20.024800 -24.123600 -31.772200
H -19.603100 -23.476600 -33.560100
C -19.283100 -25.171800 -29.384000
N -19.259800 -25.704800 -28.104000
N -18.699900 -24.356700 -31.478600
C -18.222600 -24.924800 -30.297400
H -18.106000 -24.128400 -32.087100
O -17.013300 -25.137000 -30.146200
25
Fragment
O -26.810400 -24.852600 -35.599100
H -25.677500 -25.484100 -33.539900
C -25.651400 -24.567000 -35.272100
N -25.146200 -25.001700 -34.049000
N -24.750200 -23.270800 -37.281500
C -24.684100 -23.818600 -36.004400
H -24.210100 -25.628700 -31.886800
C -23.884600 -24.738800 -33.571600
N -23.604200 -25.182200 -32.341800
C -23.543300 -22.790200 -37.481500
C -23.422500 -23.650900 -35.465500
H -23.286500 -22.343100 -38.278700
N -22.966000 -24.062900 -34.259000
H -22.813000 -25.027700 -31.987900
N -22.690500 -22.997400 -36.426900
H -21.655000 -20.554900 -36.188500
H -21.644100 -21.263300 -34.753900
C -21.278700 -22.573800 -36.296000
C -21.203700 -21.221100 -35.629000
H -20.979900 -21.931500 -38.236200
H -20.817400 -23.232000 -35.700900
H -20.676700 -23.490000 -38.046000
C -20.578600 -22.601700 -37.646200
H -20.264200 -20.966500 -35.510700
H -19.626600 -22.401300 -37.524000
50
Fragment
H -24.438300 -25.579500 -27.546600
H -23.967900 -23.155900 -28.345800
C -23.465900 -25.700000 -27.508300
H -23.247500 -26.642900 -27.661900
H -23.222500 -25.084400 -29.454600
H -23.136500 -25.428900 -26.625900
C -23.008700 -23.359400 -28.350900
C -22.808200 -24.849000 -28.576500
H -22.614600 -23.103700 -27.489900
H -22.572400 -22.857700 -29.072200
N -21.360800 -25.143300 -28.662700
H -21.094000 -23.422900 -33.242400
N -21.014600 -24.335400 -30.923000
H -20.808000 -25.962800 -26.858600
C -20.575300 -24.829900 -29.740700
C -20.515300 -25.663200 -27.712500
N -20.269000 -23.615200 -33.001700
C -20.024800 -24.123600 -31.772200
H -19.603100 -23.476600 -33.560100
C -19.283100 -25.171800 -29.384000
N -19.259800 -25.704800 -28.104000
N -18.699900 -24.356700 -31.478600
C -18.222600 -24.924800 -30.297400
H -18.106000 -24.128400 -32.087100
O -17.013300 -25.137000 -30.146200
O -26.810400 -24.852600 -35.599100
H -25.677500 -25.484100 -33.539900
C -25.651400 -24.567000 -35.272100
N -25.146200 -25.001700 -34.049000
N -24.750200 -23.270800 -37.281500
C -24.684100 -23.818600 -36.004400
H -24.210100 -25.628700 -31.886800
C -23.884600 -24.738800 -33.571600
N -23.604200 -25.182200 -32.341800
C -23.543300 -22.790200 -37.481500
C -23.422500 -23.650900 -35.465500
H -23.286500 -22.343100 -38.278700
N -22.966000 -24.062900 -34.259000
H -22.813000 -25.027700 -31.987900
N -22.690500 -22.997400 -36.426900
H -21.655000 -20.554900 -36.188500
H -21.644100 -21.263300 -34.753900
C -21.278700 -22.573800 -36.296000
C -21.203700 -21.221100 -35.629000
H -20.979900 -21.931500 -38.236200
H -20.817400 -23.232000 -35.700900
H -20.676700 -23.490000 -38.046000
C -20.578600 -22.601700 -37.646200
H -20.264200 -20.966500 -35.510700
H -19.626600 -22.401300 -37.524000
