25
Fragment
H -24.438300 -25.579500 -27.546600
H -23.967900 -23.155900 -28.345800
C -23.465900 -25.700000 -27.508300
H -23.247500 -26.642900 -27.661900
H -23.222500 -25.084400 -29.454600
H -23.136500 -25.428900 -26.625900
C -23.008700 -23.359400 -28.350900
C -22.808200 -24.849000 -28.576500
H -22.614600 -23.103700 -27.489900
H -22.572400 -22.857700 -29.072200
N -21.360800 -25.143300 -28.662700
H -21.094000 -23.422900 -33.242400
N -21.014600 -24.335400 -30.923000
H -20.808000 -25.962800 -26.858600
C -20.575300 -24.829900 -29.740700
C -20.515300 -25.663200 -27.712500
N -20.269000 -23.615200 -33.001700
C -20.024800 -24.123600 -31.772200
H -19.603100 -23.476600 -33.560100
C -19.283100 -25.171800 -29.384000
N -19.259800 -25.704800 -28.104000
N -18.699900 -24.356700 -31.478600
C -18.222600 -24.924800 -30.297400
H -18.106000 -24.128400 -32.087100
O -17.013300 -25.137000 -30.146200
5
Fragment
Cl -21.839300 -27.997100 -30.958400
H -20.462600 -29.185800 -32.344000
C -20.382900 -28.287200 -31.912100
Cl -20.211800 -27.077100 -33.175100
Cl -18.957400 -28.295400 -30.862700
30
Fragment
H -24.438300 -25.579500 -27.546600
H -23.967900 -23.155900 -28.345800
C -23.465900 -25.700000 -27.508300
H -23.247500 -26.642900 -27.661900
H -23.222500 -25.084400 -29.454600
H -23.136500 -25.428900 -26.625900
C -23.008700 -23.359400 -28.350900
C -22.808200 -24.849000 -28.576500
H -22.614600 -23.103700 -27.489900
H -22.572400 -22.857700 -29.072200
N -21.360800 -25.143300 -28.662700
H -21.094000 -23.422900 -33.242400
N -21.014600 -24.335400 -30.923000
H -20.808000 -25.962800 -26.858600
C -20.575300 -24.829900 -29.740700
C -20.515300 -25.663200 -27.712500
N -20.269000 -23.615200 -33.001700
C -20.024800 -24.123600 -31.772200
H -19.603100 -23.476600 -33.560100
C -19.283100 -25.171800 -29.384000
N -19.259800 -25.704800 -28.104000
N -18.699900 -24.356700 -31.478600
C -18.222600 -24.924800 -30.297400
H -18.106000 -24.128400 -32.087100
O -17.013300 -25.137000 -30.146200
Cl -21.839300 -27.997100 -30.958400
H -20.462600 -29.185800 -32.344000
C -20.382900 -28.287200 -31.912100
Cl -20.211800 -27.077100 -33.175100
Cl -18.957400 -28.295400 -30.862700
