25
Fragment
H -24.438300 -25.579500 -27.546600
H -23.967900 -23.155900 -28.345800
C -23.465900 -25.700000 -27.508300
H -23.247500 -26.642900 -27.661900
H -23.222500 -25.084400 -29.454600
H -23.136500 -25.428900 -26.625900
C -23.008700 -23.359400 -28.350900
C -22.808200 -24.849000 -28.576500
H -22.614600 -23.103700 -27.489900
H -22.572400 -22.857700 -29.072200
N -21.360800 -25.143300 -28.662700
H -21.094000 -23.422900 -33.242400
N -21.014600 -24.335400 -30.923000
H -20.808000 -25.962800 -26.858600
C -20.575300 -24.829900 -29.740700
C -20.515300 -25.663200 -27.712500
N -20.269000 -23.615200 -33.001700
C -20.024800 -24.123600 -31.772200
H -19.603100 -23.476600 -33.560100
C -19.283100 -25.171800 -29.384000
N -19.259800 -25.704800 -28.104000
N -18.699900 -24.356700 -31.478600
C -18.222600 -24.924800 -30.297400
H -18.106000 -24.128400 -32.087100
O -17.013300 -25.137000 -30.146200
25
Fragment
H -27.255900 -22.341600 -23.178000
H -26.618300 -23.776400 -25.191300
C -26.303900 -22.141200 -23.055800
H -26.205800 -21.252900 -22.656000
H -26.065100 -21.510900 -25.001100
H -25.902600 -22.811400 -22.465800
C -25.678800 -23.521800 -25.073000
C -25.603800 -22.169100 -24.406000
H -25.238400 -23.479600 -25.948100
H -25.227500 -24.188000 -24.513500
N -24.192000 -21.745500 -24.275100
H -24.069500 -19.715200 -28.714100
N -23.916500 -20.680000 -26.443000
H -23.596000 -22.399800 -22.423300
C -23.460000 -21.092000 -25.236500
C -23.339200 -21.952700 -23.220500
N -23.278300 -19.560700 -28.360200
C -22.997900 -20.004100 -27.130400
H -22.672400 -19.114200 -28.815200
C -22.198400 -20.924300 -24.697600
N -22.132300 -21.472100 -23.420500
N -21.736300 -19.741200 -26.653000
C -21.231100 -20.175900 -25.429900
H -21.205000 -19.258800 -27.162100
O -20.072100 -19.890300 -25.102900
50
Fragment
H -24.438300 -25.579500 -27.546600
H -23.967900 -23.155900 -28.345800
C -23.465900 -25.700000 -27.508300
H -23.247500 -26.642900 -27.661900
H -23.222500 -25.084400 -29.454600
H -23.136500 -25.428900 -26.625900
C -23.008700 -23.359400 -28.350900
C -22.808200 -24.849000 -28.576500
H -22.614600 -23.103700 -27.489900
H -22.572400 -22.857700 -29.072200
N -21.360800 -25.143300 -28.662700
H -21.094000 -23.422900 -33.242400
N -21.014600 -24.335400 -30.923000
H -20.808000 -25.962800 -26.858600
C -20.575300 -24.829900 -29.740700
C -20.515300 -25.663200 -27.712500
N -20.269000 -23.615200 -33.001700
C -20.024800 -24.123600 -31.772200
H -19.603100 -23.476600 -33.560100
C -19.283100 -25.171800 -29.384000
N -19.259800 -25.704800 -28.104000
N -18.699900 -24.356700 -31.478600
C -18.222600 -24.924800 -30.297400
H -18.106000 -24.128400 -32.087100
O -17.013300 -25.137000 -30.146200
H -27.255900 -22.341600 -23.178000
H -26.618300 -23.776400 -25.191300
C -26.303900 -22.141200 -23.055800
H -26.205800 -21.252900 -22.656000
H -26.065100 -21.510900 -25.001100
H -25.902600 -22.811400 -22.465800
C -25.678800 -23.521800 -25.073000
C -25.603800 -22.169100 -24.406000
H -25.238400 -23.479600 -25.948100
H -25.227500 -24.188000 -24.513500
N -24.192000 -21.745500 -24.275100
H -24.069500 -19.715200 -28.714100
N -23.916500 -20.680000 -26.443000
H -23.596000 -22.399800 -22.423300
C -23.460000 -21.092000 -25.236500
C -23.339200 -21.952700 -23.220500
N -23.278300 -19.560700 -28.360200
C -22.997900 -20.004100 -27.130400
H -22.672400 -19.114200 -28.815200
C -22.198400 -20.924300 -24.697600
N -22.132300 -21.472100 -23.420500
N -21.736300 -19.741200 -26.653000
C -21.231100 -20.175900 -25.429900
H -21.205000 -19.258800 -27.162100
O -20.072100 -19.890300 -25.102900
