16
Fragment
H 2.479600 -12.059900 -30.313100
H 2.640300 -14.345200 -29.696600
H 2.968700 -9.737900 -29.861000
C 2.980700 -11.782700 -29.456100
N 3.125200 -14.091000 -28.833400
C 3.237500 -10.470300 -29.186900
H 3.399800 -14.831600 -28.216900
C 3.400000 -12.782200 -28.560100
O 3.830300 -7.894000 -28.605300
C 3.916200 -10.116900 -28.036000
C 4.069900 -12.397600 -27.407100
N 4.205400 -8.720000 -27.785300
H 4.328500 -13.124500 -26.737200
C 4.330900 -11.087900 -27.146100
O 4.787800 -8.411600 -26.768000
H 4.851000 -10.820900 -26.305600
21
Fragment
H 5.511100 -10.692400 -30.621400
H 6.033700 -15.198800 -28.484000
O 6.254700 -13.247500 -30.411700
C 6.511200 -10.572100 -30.493900
H 6.692900 -9.600200 -30.354200
C 6.786900 -12.746400 -29.435600
H 6.966100 -10.866800 -31.361200
N 6.989400 -11.367900 -29.351300
C 7.016500 -14.960100 -28.389500
N 7.207800 -13.501800 -28.375100
H 7.371000 -15.391500 -27.559200
H 7.509200 -15.373200 -29.203300
C 7.579200 -10.663900 -28.288800
O 7.710300 -9.453300 -28.321700
C 7.823000 -12.885900 -27.312600
C 7.985200 -11.546800 -27.251000
N 8.345300 -13.510900 -26.233700
N 8.639700 -11.313700 -26.067200
C 8.833000 -12.503200 -25.502000
H 8.930000 -10.407900 -25.709600
H 9.310500 -12.638100 -24.579300
37
Fragment
H 2.479600 -12.059900 -30.313100
H 2.640300 -14.345200 -29.696600
H 2.968700 -9.737900 -29.861000
C 2.980700 -11.782700 -29.456100
N 3.125200 -14.091000 -28.833400
C 3.237500 -10.470300 -29.186900
H 3.399800 -14.831600 -28.216900
C 3.400000 -12.782200 -28.560100
O 3.830300 -7.894000 -28.605300
C 3.916200 -10.116900 -28.036000
C 4.069900 -12.397600 -27.407100
N 4.205400 -8.720000 -27.785300
H 4.328500 -13.124500 -26.737200
C 4.330900 -11.087900 -27.146100
O 4.787800 -8.411600 -26.768000
H 4.851000 -10.820900 -26.305600
H 5.511100 -10.692400 -30.621400
H 6.033700 -15.198800 -28.484000
O 6.254700 -13.247500 -30.411700
C 6.511200 -10.572100 -30.493900
H 6.692900 -9.600200 -30.354200
C 6.786900 -12.746400 -29.435600
H 6.966100 -10.866800 -31.361200
N 6.989400 -11.367900 -29.351300
C 7.016500 -14.960100 -28.389500
N 7.207800 -13.501800 -28.375100
H 7.371000 -15.391500 -27.559200
H 7.509200 -15.373200 -29.203300
C 7.579200 -10.663900 -28.288800
O 7.710300 -9.453300 -28.321700
C 7.823000 -12.885900 -27.312600
C 7.985200 -11.546800 -27.251000
N 8.345300 -13.510900 -26.233700
N 8.639700 -11.313700 -26.067200
C 8.833000 -12.503200 -25.502000
H 8.930000 -10.407900 -25.709600
H 9.310500 -12.638100 -24.579300
