16
Fragment
H 2.479600 -12.059900 -30.313100
H 2.640300 -14.345200 -29.696600
H 2.968700 -9.737900 -29.861000
C 2.980700 -11.782700 -29.456100
N 3.125200 -14.091000 -28.833400
C 3.237500 -10.470300 -29.186900
H 3.399800 -14.831600 -28.216900
C 3.400000 -12.782200 -28.560100
O 3.830300 -7.894000 -28.605300
C 3.916200 -10.116900 -28.036000
C 4.069900 -12.397600 -27.407100
N 4.205400 -8.720000 -27.785300
H 4.328500 -13.124500 -26.737200
C 4.330900 -11.087900 -27.146100
O 4.787800 -8.411600 -26.768000
H 4.851000 -10.820900 -26.305600
21
Fragment
H 1.020600 -8.049100 -26.798800
H 1.401000 -5.818900 -25.668500
C 1.498000 -7.914200 -25.876100
N 1.691300 -6.724700 -25.310900
N 1.985700 -8.921900 -25.144500
C 2.345800 -6.957800 -24.127200
C 2.508100 -8.296900 -24.065500
O 2.620700 -4.864300 -23.056400
C 2.751800 -6.074900 -23.089300
H 2.821800 -10.784200 -22.174800
H 2.960100 -10.802500 -23.818900
N 3.123300 -8.912800 -23.003000
C 3.314600 -10.371100 -22.988600
N 3.341600 -6.778900 -22.026800
H 3.364900 -6.277800 -20.016900
C 3.544100 -8.157400 -21.942600
H 3.638200 -5.011200 -21.023900
C 3.819800 -5.983100 -20.884200
O 4.076300 -8.658500 -20.966400
H 4.297300 -10.609800 -22.894100
H 4.819900 -6.103400 -20.756800
37
Fragment
H 2.479600 -12.059900 -30.313100
H 2.640300 -14.345200 -29.696600
H 2.968700 -9.737900 -29.861000
C 2.980700 -11.782700 -29.456100
N 3.125200 -14.091000 -28.833400
C 3.237500 -10.470300 -29.186900
H 3.399800 -14.831600 -28.216900
C 3.400000 -12.782200 -28.560100
O 3.830300 -7.894000 -28.605300
C 3.916200 -10.116900 -28.036000
C 4.069900 -12.397600 -27.407100
N 4.205400 -8.720000 -27.785300
H 4.328500 -13.124500 -26.737200
C 4.330900 -11.087900 -27.146100
O 4.787800 -8.411600 -26.768000
H 4.851000 -10.820900 -26.305600
H 1.020600 -8.049100 -26.798800
H 1.401000 -5.818900 -25.668500
C 1.498000 -7.914200 -25.876100
N 1.691300 -6.724700 -25.310900
N 1.985700 -8.921900 -25.144500
C 2.345800 -6.957800 -24.127200
C 2.508100 -8.296900 -24.065500
O 2.620700 -4.864300 -23.056400
C 2.751800 -6.074900 -23.089300
H 2.821800 -10.784200 -22.174800
H 2.960100 -10.802500 -23.818900
N 3.123300 -8.912800 -23.003000
C 3.314600 -10.371100 -22.988600
N 3.341600 -6.778900 -22.026800
H 3.364900 -6.277800 -20.016900
C 3.544100 -8.157400 -21.942600
H 3.638200 -5.011200 -21.023900
C 3.819800 -5.983100 -20.884200
O 4.076300 -8.658500 -20.966400
H 4.297300 -10.609800 -22.894100
H 4.819900 -6.103400 -20.756800
