19
Fragment
H -18.339500 -11.589000 -20.862100
O -18.247800 -12.560800 -20.683100
H -18.000900 -14.927800 -19.602700
C -17.949700 -12.790800 -19.365900
C -17.844800 -14.096900 -18.917900
H -17.828200 -10.700500 -18.870800
C -17.756100 -11.726600 -18.500800
H -17.597900 -10.113500 -16.669700
C -17.528900 -14.325500 -17.596700
C -17.463800 -11.967500 -17.164800
H -17.420300 -15.349700 -17.237500
C -17.324000 -13.264800 -16.681800
O -17.293200 -10.931700 -16.305100
C -17.014500 -13.540500 -15.289300
N -16.917000 -14.723900 -14.702700
N -16.789600 -12.609200 -14.342200
N -16.638700 -14.475200 -13.396300
H -16.621100 -11.639100 -14.451100
N -16.551600 -13.211600 -13.173000
19
Fragment
H -20.059800 -10.334700 -27.945700
O -19.962800 -11.013600 -27.268900
H -19.821400 -8.459400 -26.697100
C -19.649500 -10.487000 -26.041900
C -19.607600 -9.125300 -25.856200
H -19.407600 -12.440200 -25.145900
C -19.382600 -11.359300 -24.995200
C -19.302000 -8.601100 -24.611700
O -19.276100 -7.261400 -24.424700
C -19.082100 -10.839400 -23.756000
C -19.032600 -9.442800 -23.534100
H -18.876300 -11.506700 -22.931300
H -18.824300 -7.091800 -23.413000
C -18.729200 -8.941500 -22.207500
N -18.619500 -7.648300 -21.861700
N -18.526900 -9.668500 -21.119000
H -18.526100 -6.875400 -22.237100
N -18.345900 -7.556400 -20.549900
N -18.296400 -8.772600 -20.122100
38
Fragment
H -18.339500 -11.589000 -20.862100
O -18.247800 -12.560800 -20.683100
H -18.000900 -14.927800 -19.602700
C -17.949700 -12.790800 -19.365900
C -17.844800 -14.096900 -18.917900
H -17.828200 -10.700500 -18.870800
C -17.756100 -11.726600 -18.500800
H -17.597900 -10.113500 -16.669700
C -17.528900 -14.325500 -17.596700
C -17.463800 -11.967500 -17.164800
H -17.420300 -15.349700 -17.237500
C -17.324000 -13.264800 -16.681800
O -17.293200 -10.931700 -16.305100
C -17.014500 -13.540500 -15.289300
N -16.917000 -14.723900 -14.702700
N -16.789600 -12.609200 -14.342200
N -16.638700 -14.475200 -13.396300
H -16.621100 -11.639100 -14.451100
N -16.551600 -13.211600 -13.173000
H -20.059800 -10.334700 -27.945700
O -19.962800 -11.013600 -27.268900
H -19.821400 -8.459400 -26.697100
C -19.649500 -10.487000 -26.041900
C -19.607600 -9.125300 -25.856200
H -19.407600 -12.440200 -25.145900
C -19.382600 -11.359300 -24.995200
C -19.302000 -8.601100 -24.611700
O -19.276100 -7.261400 -24.424700
C -19.082100 -10.839400 -23.756000
C -19.032600 -9.442800 -23.534100
H -18.876300 -11.506700 -22.931300
H -18.824300 -7.091800 -23.413000
C -18.729200 -8.941500 -22.207500
N -18.619500 -7.648300 -21.861700
N -18.526900 -9.668500 -21.119000
H -18.526100 -6.875400 -22.237100
N -18.345900 -7.556400 -20.549900
N -18.296400 -8.772600 -20.122100
