19
Fragment
H -18.339500 -11.589000 -20.862100
O -18.247800 -12.560800 -20.683100
H -18.000900 -14.927800 -19.602700
C -17.949700 -12.790800 -19.365900
C -17.844800 -14.096900 -18.917900
H -17.828200 -10.700500 -18.870800
C -17.756100 -11.726600 -18.500800
H -17.597900 -10.113500 -16.669700
C -17.528900 -14.325500 -17.596700
C -17.463800 -11.967500 -17.164800
H -17.420300 -15.349700 -17.237500
C -17.324000 -13.264800 -16.681800
O -17.293200 -10.931700 -16.305100
C -17.014500 -13.540500 -15.289300
N -16.917000 -14.723900 -14.702700
N -16.789600 -12.609200 -14.342200
N -16.638700 -14.475200 -13.396300
H -16.621100 -11.639100 -14.451100
N -16.551600 -13.211600 -13.173000
3
Fragment
H -19.319800 -8.420700 -17.108300
O -18.418100 -8.650500 -17.257700
H -18.237800 -8.631200 -18.124100
22
Fragment
H -18.339500 -11.589000 -20.862100
O -18.247800 -12.560800 -20.683100
H -18.000900 -14.927800 -19.602700
C -17.949700 -12.790800 -19.365900
C -17.844800 -14.096900 -18.917900
H -17.828200 -10.700500 -18.870800
C -17.756100 -11.726600 -18.500800
H -17.597900 -10.113500 -16.669700
C -17.528900 -14.325500 -17.596700
C -17.463800 -11.967500 -17.164800
H -17.420300 -15.349700 -17.237500
C -17.324000 -13.264800 -16.681800
O -17.293200 -10.931700 -16.305100
C -17.014500 -13.540500 -15.289300
N -16.917000 -14.723900 -14.702700
N -16.789600 -12.609200 -14.342200
N -16.638700 -14.475200 -13.396300
H -16.621100 -11.639100 -14.451100
N -16.551600 -13.211600 -13.173000
H -19.319800 -8.420700 -17.108300
O -18.418100 -8.650500 -17.257700
H -18.237800 -8.631200 -18.124100
