19
Fragment
H -18.339500 -11.589000 -20.862100
O -18.247800 -12.560800 -20.683100
H -18.000900 -14.927800 -19.602700
C -17.949700 -12.790800 -19.365900
C -17.844800 -14.096900 -18.917900
H -17.828200 -10.700500 -18.870800
C -17.756100 -11.726600 -18.500800
H -17.597900 -10.113500 -16.669700
C -17.528900 -14.325500 -17.596700
C -17.463800 -11.967500 -17.164800
H -17.420300 -15.349700 -17.237500
C -17.324000 -13.264800 -16.681800
O -17.293200 -10.931700 -16.305100
C -17.014500 -13.540500 -15.289300
N -16.917000 -14.723900 -14.702700
N -16.789600 -12.609200 -14.342200
N -16.638700 -14.475200 -13.396300
H -16.621100 -11.639100 -14.451100
N -16.551600 -13.211600 -13.173000
19
Fragment
N -21.587300 -13.944600 -20.240500
N -21.537800 -15.160700 -19.812600
H -21.357600 -15.841700 -18.125500
N -21.356800 -13.048700 -19.243500
N -21.264200 -15.068900 -18.500800
C -21.154500 -13.775600 -18.155100
H -21.059400 -15.625400 -16.949600
H -21.007400 -11.210500 -17.431200
C -20.851100 -13.274400 -16.828500
C -20.801600 -11.877700 -16.606500
O -20.607600 -15.455700 -15.937800
C -20.581700 -14.116100 -15.750800
C -20.501100 -11.357800 -15.367400
H -20.476100 -10.277000 -15.216700
C -20.276100 -13.591900 -14.506300
C -20.234300 -12.230200 -14.320600
H -20.062300 -14.257800 -13.665400
O -19.920900 -11.703600 -13.093600
H -19.823900 -12.382400 -12.416900
38
Fragment
H -18.339500 -11.589000 -20.862100
O -18.247800 -12.560800 -20.683100
H -18.000900 -14.927800 -19.602700
C -17.949700 -12.790800 -19.365900
C -17.844800 -14.096900 -18.917900
H -17.828200 -10.700500 -18.870800
C -17.756100 -11.726600 -18.500800
H -17.597900 -10.113500 -16.669700
C -17.528900 -14.325500 -17.596700
C -17.463800 -11.967500 -17.164800
H -17.420300 -15.349700 -17.237500
C -17.324000 -13.264800 -16.681800
O -17.293200 -10.931700 -16.305100
C -17.014500 -13.540500 -15.289300
N -16.917000 -14.723900 -14.702700
N -16.789600 -12.609200 -14.342200
N -16.638700 -14.475200 -13.396300
H -16.621100 -11.639100 -14.451100
N -16.551600 -13.211600 -13.173000
N -21.587300 -13.944600 -20.240500
N -21.537800 -15.160700 -19.812600
H -21.357600 -15.841700 -18.125500
N -21.356800 -13.048700 -19.243500
N -21.264200 -15.068900 -18.500800
C -21.154500 -13.775600 -18.155100
H -21.059400 -15.625400 -16.949600
H -21.007400 -11.210500 -17.431200
C -20.851100 -13.274400 -16.828500
C -20.801600 -11.877700 -16.606500
O -20.607600 -15.455700 -15.937800
C -20.581700 -14.116100 -15.750800
C -20.501100 -11.357800 -15.367400
H -20.476100 -10.277000 -15.216700
C -20.276100 -13.591900 -14.506300
C -20.234300 -12.230200 -14.320600
H -20.062300 -14.257800 -13.665400
O -19.920900 -11.703600 -13.093600
H -19.823900 -12.382400 -12.416900
