19
Fragment
H -18.339500 -11.589000 -20.862100
O -18.247800 -12.560800 -20.683100
H -18.000900 -14.927800 -19.602700
C -17.949700 -12.790800 -19.365900
C -17.844800 -14.096900 -18.917900
H -17.828200 -10.700500 -18.870800
C -17.756100 -11.726600 -18.500800
H -17.597900 -10.113500 -16.669700
C -17.528900 -14.325500 -17.596700
C -17.463800 -11.967500 -17.164800
H -17.420300 -15.349700 -17.237500
C -17.324000 -13.264800 -16.681800
O -17.293200 -10.931700 -16.305100
C -17.014500 -13.540500 -15.289300
N -16.917000 -14.723900 -14.702700
N -16.789600 -12.609200 -14.342200
N -16.638700 -14.475200 -13.396300
H -16.621100 -11.639100 -14.451100
N -16.551600 -13.211600 -13.173000
19
Fragment
N -16.424100 -9.505500 -27.189600
H -16.354600 -11.078000 -25.911400
N -16.337000 -8.241900 -26.966200
N -16.186100 -10.107900 -26.020400
N -16.058700 -7.993300 -25.659800
C -15.961200 -9.176600 -25.073200
O -15.682500 -11.785400 -24.057400
C -15.651800 -9.452300 -23.680700
H -15.555400 -7.367400 -23.125000
C -15.511900 -10.749600 -23.197700
C -15.446800 -8.391600 -22.765800
H -15.377800 -12.603600 -23.692800
C -15.219600 -10.990500 -21.861700
H -15.147500 -12.016700 -21.491700
C -15.130900 -8.620200 -21.444600
C -15.026000 -9.926300 -20.996600
H -14.974800 -7.789400 -20.759800
O -14.727900 -10.156300 -19.679400
H -14.636200 -11.128200 -19.500500
38
Fragment
H -18.339500 -11.589000 -20.862100
O -18.247800 -12.560800 -20.683100
H -18.000900 -14.927800 -19.602700
C -17.949700 -12.790800 -19.365900
C -17.844800 -14.096900 -18.917900
H -17.828200 -10.700500 -18.870800
C -17.756100 -11.726600 -18.500800
H -17.597900 -10.113500 -16.669700
C -17.528900 -14.325500 -17.596700
C -17.463800 -11.967500 -17.164800
H -17.420300 -15.349700 -17.237500
C -17.324000 -13.264800 -16.681800
O -17.293200 -10.931700 -16.305100
C -17.014500 -13.540500 -15.289300
N -16.917000 -14.723900 -14.702700
N -16.789600 -12.609200 -14.342200
N -16.638700 -14.475200 -13.396300
H -16.621100 -11.639100 -14.451100
N -16.551600 -13.211600 -13.173000
N -16.424100 -9.505500 -27.189600
H -16.354600 -11.078000 -25.911400
N -16.337000 -8.241900 -26.966200
N -16.186100 -10.107900 -26.020400
N -16.058700 -7.993300 -25.659800
C -15.961200 -9.176600 -25.073200
O -15.682500 -11.785400 -24.057400
C -15.651800 -9.452300 -23.680700
H -15.555400 -7.367400 -23.125000
C -15.511900 -10.749600 -23.197700
C -15.446800 -8.391600 -22.765800
H -15.377800 -12.603600 -23.692800
C -15.219600 -10.990500 -21.861700
H -15.147500 -12.016700 -21.491700
C -15.130900 -8.620200 -21.444600
C -15.026000 -9.926300 -20.996600
H -14.974800 -7.789400 -20.759800
O -14.727900 -10.156300 -19.679400
H -14.636200 -11.128200 -19.500500
