20
Fragment
H -12.210400 -11.039700 -28.302200
H -11.883500 -11.347200 -30.538400
C -11.292900 -11.172600 -28.095100
O -10.961400 -11.094900 -26.915700
C -10.903200 -11.480000 -30.502200
H -10.697700 -12.369000 -30.886300
H -10.511600 -9.510100 -31.009000
N -10.457900 -11.431200 -29.116600
H -10.447500 -10.500500 -32.269800
C -10.211700 -10.403600 -31.312600
C -9.005500 -11.574400 -28.939700
H -8.771100 -11.477500 -27.982500
N -8.755000 -10.525500 -31.141700
H -8.715800 -12.471700 -29.241300
H -8.478300 -9.606400 -29.370000
C -8.294800 -10.496700 -29.760200
O -8.240700 -10.416400 -33.352500
C -7.906200 -10.491500 -32.179300
H -7.316200 -10.649400 -29.734000
H -6.976300 -10.529400 -31.988300
28
Fragment
O -11.810400 -15.659300 -34.129400
O -11.688800 -13.740100 -33.043800
N -11.276100 -14.537300 -33.884600
H -10.531900 -15.522600 -36.205300
N -10.199300 -14.260600 -34.642800
O -10.001800 -14.297900 -38.064000
H -9.887700 -12.524400 -33.673500
C -9.783400 -15.307600 -35.593900
H -9.539000 -16.131100 -35.101300
C -9.439000 -13.049400 -34.383300
H -9.409700 -12.495500 -35.201800
O -8.915600 -13.928800 -31.991700
N -8.839500 -14.458300 -37.671300
N -8.642000 -14.830600 -36.356100
N -8.076000 -13.369100 -33.963100
N -7.895000 -13.752300 -32.653900
O -7.828400 -14.265100 -38.339500
H -7.313700 -15.662500 -35.085200
C -7.281700 -15.131700 -35.919700
H -7.159500 -12.040400 -35.185700
C -6.923800 -12.878000 -34.713100
H -6.827900 -15.675400 -36.611500
O -6.737100 -13.886400 -32.238100
N -6.522600 -13.912100 -35.688500
H -6.174600 -12.686800 -34.093800
N -5.476300 -13.602100 -36.462700
O -5.071300 -14.380700 -37.316500
O -4.962200 -12.471700 -36.236600
48
Fragment
H -12.210400 -11.039700 -28.302200
H -11.883500 -11.347200 -30.538400
C -11.292900 -11.172600 -28.095100
O -10.961400 -11.094900 -26.915700
C -10.903200 -11.480000 -30.502200
H -10.697700 -12.369000 -30.886300
H -10.511600 -9.510100 -31.009000
N -10.457900 -11.431200 -29.116600
H -10.447500 -10.500500 -32.269800
C -10.211700 -10.403600 -31.312600
C -9.005500 -11.574400 -28.939700
H -8.771100 -11.477500 -27.982500
N -8.755000 -10.525500 -31.141700
H -8.715800 -12.471700 -29.241300
H -8.478300 -9.606400 -29.370000
C -8.294800 -10.496700 -29.760200
O -8.240700 -10.416400 -33.352500
C -7.906200 -10.491500 -32.179300
H -7.316200 -10.649400 -29.734000
H -6.976300 -10.529400 -31.988300
O -11.810400 -15.659300 -34.129400
O -11.688800 -13.740100 -33.043800
N -11.276100 -14.537300 -33.884600
H -10.531900 -15.522600 -36.205300
N -10.199300 -14.260600 -34.642800
O -10.001800 -14.297900 -38.064000
H -9.887700 -12.524400 -33.673500
C -9.783400 -15.307600 -35.593900
H -9.539000 -16.131100 -35.101300
C -9.439000 -13.049400 -34.383300
H -9.409700 -12.495500 -35.201800
O -8.915600 -13.928800 -31.991700
N -8.839500 -14.458300 -37.671300
N -8.642000 -14.830600 -36.356100
N -8.076000 -13.369100 -33.963100
N -7.895000 -13.752300 -32.653900
O -7.828400 -14.265100 -38.339500
H -7.313700 -15.662500 -35.085200
C -7.281700 -15.131700 -35.919700
H -7.159500 -12.040400 -35.185700
C -6.923800 -12.878000 -34.713100
H -6.827900 -15.675400 -36.611500
O -6.737100 -13.886400 -32.238100
N -6.522600 -13.912100 -35.688500
H -6.174600 -12.686800 -34.093800
N -5.476300 -13.602100 -36.462700
O -5.071300 -14.380700 -37.316500
O -4.962200 -12.471700 -36.236600
