14
Fragment
F -16.375000 -17.957900 -27.506100
H -15.539200 -15.636500 -26.867000
C -15.097100 -17.468700 -27.594100
C -14.858700 -16.166100 -27.195900
H -14.273900 -19.196200 -28.335300
C -14.094100 -18.291000 -28.061700
C -13.568700 -15.674700 -27.288800
H -13.394300 -14.753100 -27.039400
C -12.807900 -17.787700 -28.150300
C -12.520100 -16.473000 -27.761000
H -12.159800 -18.319400 -28.472500
N -11.238500 -15.953900 -27.916300
H -10.979300 -15.348400 -27.378700
H -10.632100 -16.506500 -27.994200
28
Fragment
O -13.619000 -11.418500 -24.342900
O -13.609900 -11.128200 -22.195500
N -13.053900 -11.232100 -23.279900
O -11.948400 -13.317500 -21.349400
O -11.885300 -13.348500 -25.491600
N -11.674300 -11.098700 -23.299100
H -11.635100 -10.990500 -25.263400
H -11.581100 -10.933400 -21.342300
C -10.987000 -11.039600 -24.576500
C -10.946100 -11.010300 -22.048100
N -10.723300 -13.343600 -21.460100
N -10.668500 -13.322200 -25.340300
H -10.392900 -10.259600 -24.551500
H -10.369800 -10.246100 -22.100600
N -10.118100 -12.181500 -24.835500
N -10.103900 -12.173000 -21.794300
O -10.011800 -14.329100 -21.306500
O -9.899100 -14.245000 -25.604700
C -8.687600 -12.186500 -24.571700
C -8.676200 -12.230400 -22.052900
H -8.448600 -11.264100 -24.510700
H -8.402300 -11.337000 -22.087600
N -8.381900 -12.877600 -23.330100
H -8.232500 -12.543300 -25.307900
H -8.217100 -12.683500 -21.323800
N -7.491900 -13.927400 -23.347200
O -7.136400 -14.355500 -24.440200
O -7.121800 -14.379100 -22.269800
42
Fragment
F -16.375000 -17.957900 -27.506100
H -15.539200 -15.636500 -26.867000
C -15.097100 -17.468700 -27.594100
C -14.858700 -16.166100 -27.195900
H -14.273900 -19.196200 -28.335300
C -14.094100 -18.291000 -28.061700
C -13.568700 -15.674700 -27.288800
H -13.394300 -14.753100 -27.039400
C -12.807900 -17.787700 -28.150300
C -12.520100 -16.473000 -27.761000
H -12.159800 -18.319400 -28.472500
N -11.238500 -15.953900 -27.916300
H -10.979300 -15.348400 -27.378700
H -10.632100 -16.506500 -27.994200
O -13.619000 -11.418500 -24.342900
O -13.609900 -11.128200 -22.195500
N -13.053900 -11.232100 -23.279900
O -11.948400 -13.317500 -21.349400
O -11.885300 -13.348500 -25.491600
N -11.674300 -11.098700 -23.299100
H -11.635100 -10.990500 -25.263400
H -11.581100 -10.933400 -21.342300
C -10.987000 -11.039600 -24.576500
C -10.946100 -11.010300 -22.048100
N -10.723300 -13.343600 -21.460100
N -10.668500 -13.322200 -25.340300
H -10.392900 -10.259600 -24.551500
H -10.369800 -10.246100 -22.100600
N -10.118100 -12.181500 -24.835500
N -10.103900 -12.173000 -21.794300
O -10.011800 -14.329100 -21.306500
O -9.899100 -14.245000 -25.604700
C -8.687600 -12.186500 -24.571700
C -8.676200 -12.230400 -22.052900
H -8.448600 -11.264100 -24.510700
H -8.402300 -11.337000 -22.087600
N -8.381900 -12.877600 -23.330100
H -8.232500 -12.543300 -25.307900
H -8.217100 -12.683500 -21.323800
N -7.491900 -13.927400 -23.347200
O -7.136400 -14.355500 -24.440200
O -7.121800 -14.379100 -22.269800
