14
Fragment
F -16.375000 -17.957900 -27.506100
H -15.539200 -15.636500 -26.867000
C -15.097100 -17.468700 -27.594100
C -14.858700 -16.166100 -27.195900
H -14.273900 -19.196200 -28.335300
C -14.094100 -18.291000 -28.061700
C -13.568700 -15.674700 -27.288800
H -13.394300 -14.753100 -27.039400
C -12.807900 -17.787700 -28.150300
C -12.520100 -16.473000 -27.761000
H -12.159800 -18.319400 -28.472500
N -11.238500 -15.953900 -27.916300
H -10.979300 -15.348400 -27.378700
H -10.632100 -16.506500 -27.994200
14
Fragment
F -12.517200 -21.282000 -28.111500
H -11.681400 -23.603400 -28.750600
C -11.239300 -21.771200 -28.023500
C -11.000900 -23.073800 -28.421700
H -10.416100 -20.043700 -27.282300
C -10.236300 -20.948900 -27.555900
C -9.710900 -23.565200 -28.328800
H -9.536500 -24.486800 -28.578200
C -8.950100 -21.452200 -27.467300
C -8.662300 -22.766900 -27.856600
H -8.302000 -20.920500 -27.145100
N -7.380700 -23.286000 -27.701300
H -7.121500 -23.891500 -28.238900
H -6.774300 -22.733400 -27.623400
28
Fragment
F -16.375000 -17.957900 -27.506100
H -15.539200 -15.636500 -26.867000
C -15.097100 -17.468700 -27.594100
C -14.858700 -16.166100 -27.195900
H -14.273900 -19.196200 -28.335300
C -14.094100 -18.291000 -28.061700
C -13.568700 -15.674700 -27.288800
H -13.394300 -14.753100 -27.039400
C -12.807900 -17.787700 -28.150300
C -12.520100 -16.473000 -27.761000
H -12.159800 -18.319400 -28.472500
N -11.238500 -15.953900 -27.916300
H -10.979300 -15.348400 -27.378700
H -10.632100 -16.506500 -27.994200
F -12.517200 -21.282000 -28.111500
H -11.681400 -23.603400 -28.750600
C -11.239300 -21.771200 -28.023500
C -11.000900 -23.073800 -28.421700
H -10.416100 -20.043700 -27.282300
C -10.236300 -20.948900 -27.555900
C -9.710900 -23.565200 -28.328800
H -9.536500 -24.486800 -28.578200
C -8.950100 -21.452200 -27.467300
C -8.662300 -22.766900 -27.856600
H -8.302000 -20.920500 -27.145100
N -7.380700 -23.286000 -27.701300
H -7.121500 -23.891500 -28.238900
H -6.774300 -22.733400 -27.623400
