14
Fragment
F -16.375000 -17.957900 -27.506100
H -15.539200 -15.636500 -26.867000
C -15.097100 -17.468700 -27.594100
C -14.858700 -16.166100 -27.195900
H -14.273900 -19.196200 -28.335300
C -14.094100 -18.291000 -28.061700
C -13.568700 -15.674700 -27.288800
H -13.394300 -14.753100 -27.039400
C -12.807900 -17.787700 -28.150300
C -12.520100 -16.473000 -27.761000
H -12.159800 -18.319400 -28.472500
N -11.238500 -15.953900 -27.916300
H -10.979300 -15.348400 -27.378700
H -10.632100 -16.506500 -27.994200
28
Fragment
O -12.167200 -19.255100 -31.539400
O -12.152600 -19.278700 -33.709800
N -11.797100 -19.706800 -32.616800
H -11.071900 -20.950700 -30.593400
H -11.056500 -21.090900 -34.577500
N -10.907100 -20.756600 -32.599700
H -10.886700 -22.297200 -31.357200
H -10.840400 -22.370100 -33.780300
C -10.612800 -21.403800 -31.322500
C -10.601400 -21.447700 -33.841300
O -9.389900 -19.389200 -34.874300
O -9.277200 -19.305100 -30.576100
N -9.185100 -21.461200 -31.063900
N -9.170900 -21.452700 -34.105100
H -8.919200 -23.388100 -31.370200
H -8.896100 -23.374600 -33.821100
N -8.620500 -20.312000 -34.609900
N -8.565700 -20.290600 -30.729700
C -8.342900 -22.623900 -31.317700
C -8.302000 -22.594600 -33.846100
H -7.707900 -22.700800 -30.611900
H -7.653900 -22.643700 -34.533000
N -7.614700 -22.535500 -32.568700
O -7.403700 -20.285700 -34.761200
O -7.340600 -20.316700 -30.619000
N -6.235100 -22.402100 -32.549500
O -5.679100 -22.506000 -31.465100
O -5.670000 -22.215700 -33.612500
42
Fragment
F -16.375000 -17.957900 -27.506100
H -15.539200 -15.636500 -26.867000
C -15.097100 -17.468700 -27.594100
C -14.858700 -16.166100 -27.195900
H -14.273900 -19.196200 -28.335300
C -14.094100 -18.291000 -28.061700
C -13.568700 -15.674700 -27.288800
H -13.394300 -14.753100 -27.039400
C -12.807900 -17.787700 -28.150300
C -12.520100 -16.473000 -27.761000
H -12.159800 -18.319400 -28.472500
N -11.238500 -15.953900 -27.916300
H -10.979300 -15.348400 -27.378700
H -10.632100 -16.506500 -27.994200
O -12.167200 -19.255100 -31.539400
O -12.152600 -19.278700 -33.709800
N -11.797100 -19.706800 -32.616800
H -11.071900 -20.950700 -30.593400
H -11.056500 -21.090900 -34.577500
N -10.907100 -20.756600 -32.599700
H -10.886700 -22.297200 -31.357200
H -10.840400 -22.370100 -33.780300
C -10.612800 -21.403800 -31.322500
C -10.601400 -21.447700 -33.841300
O -9.389900 -19.389200 -34.874300
O -9.277200 -19.305100 -30.576100
N -9.185100 -21.461200 -31.063900
N -9.170900 -21.452700 -34.105100
H -8.919200 -23.388100 -31.370200
H -8.896100 -23.374600 -33.821100
N -8.620500 -20.312000 -34.609900
N -8.565700 -20.290600 -30.729700
C -8.342900 -22.623900 -31.317700
C -8.302000 -22.594600 -33.846100
H -7.707900 -22.700800 -30.611900
H -7.653900 -22.643700 -34.533000
N -7.614700 -22.535500 -32.568700
O -7.403700 -20.285700 -34.761200
O -7.340600 -20.316700 -30.619000
N -6.235100 -22.402100 -32.549500
O -5.679100 -22.506000 -31.465100
O -5.670000 -22.215700 -33.612500
