14
Fragment
F -16.375000 -17.957900 -27.506100
H -15.539200 -15.636500 -26.867000
C -15.097100 -17.468700 -27.594100
C -14.858700 -16.166100 -27.195900
H -14.273900 -19.196200 -28.335300
C -14.094100 -18.291000 -28.061700
C -13.568700 -15.674700 -27.288800
H -13.394300 -14.753100 -27.039400
C -12.807900 -17.787700 -28.150300
C -12.520100 -16.473000 -27.761000
H -12.159800 -18.319400 -28.472500
N -11.238500 -15.953900 -27.916300
H -10.979300 -15.348400 -27.378700
H -10.632100 -16.506500 -27.994200
14
Fragment
F -24.090600 -17.957900 -27.506100
H -23.254800 -15.636500 -26.867000
C -22.812700 -17.468700 -27.594100
C -22.574300 -16.166100 -27.195900
H -21.989500 -19.196200 -28.335300
C -21.809700 -18.291000 -28.061700
C -21.284300 -15.674700 -27.288800
H -21.109900 -14.753100 -27.039400
C -20.523500 -17.787700 -28.150300
C -20.235700 -16.473000 -27.761000
H -19.875400 -18.319400 -28.472500
N -18.954100 -15.953900 -27.916300
H -18.694900 -15.348400 -27.378700
H -18.347700 -16.506500 -27.994200
28
Fragment
F -16.375000 -17.957900 -27.506100
H -15.539200 -15.636500 -26.867000
C -15.097100 -17.468700 -27.594100
C -14.858700 -16.166100 -27.195900
H -14.273900 -19.196200 -28.335300
C -14.094100 -18.291000 -28.061700
C -13.568700 -15.674700 -27.288800
H -13.394300 -14.753100 -27.039400
C -12.807900 -17.787700 -28.150300
C -12.520100 -16.473000 -27.761000
H -12.159800 -18.319400 -28.472500
N -11.238500 -15.953900 -27.916300
H -10.979300 -15.348400 -27.378700
H -10.632100 -16.506500 -27.994200
F -24.090600 -17.957900 -27.506100
H -23.254800 -15.636500 -26.867000
C -22.812700 -17.468700 -27.594100
C -22.574300 -16.166100 -27.195900
H -21.989500 -19.196200 -28.335300
C -21.809700 -18.291000 -28.061700
C -21.284300 -15.674700 -27.288800
H -21.109900 -14.753100 -27.039400
C -20.523500 -17.787700 -28.150300
C -20.235700 -16.473000 -27.761000
H -19.875400 -18.319400 -28.472500
N -18.954100 -15.953900 -27.916300
H -18.694900 -15.348400 -27.378700
H -18.347700 -16.506500 -27.994200
