14
Fragment
F -16.375000 -17.957900 -27.506100
H -15.539200 -15.636500 -26.867000
C -15.097100 -17.468700 -27.594100
C -14.858700 -16.166100 -27.195900
H -14.273900 -19.196200 -28.335300
C -14.094100 -18.291000 -28.061700
C -13.568700 -15.674700 -27.288800
H -13.394300 -14.753100 -27.039400
C -12.807900 -17.787700 -28.150300
C -12.520100 -16.473000 -27.761000
H -12.159800 -18.319400 -28.472500
N -11.238500 -15.953900 -27.916300
H -10.979300 -15.348400 -27.378700
H -10.632100 -16.506500 -27.994200
28
Fragment
O -16.025000 -19.984800 -24.078200
O -16.010400 -19.961200 -21.907800
N -15.654900 -19.533100 -23.000800
H -14.929700 -18.289200 -25.024200
H -14.914300 -18.149000 -21.040100
N -14.764900 -18.483300 -23.017900
H -14.744500 -16.942700 -24.260400
H -14.698200 -16.869800 -21.837300
C -14.470600 -17.836100 -24.295100
C -14.459200 -17.792200 -21.776300
O -13.247700 -19.850700 -20.743300
O -13.135000 -19.934800 -25.041500
N -13.042900 -17.778700 -24.553700
N -13.028700 -17.787200 -21.512500
H -12.777000 -15.851800 -24.247400
H -12.753900 -15.865300 -21.796500
N -12.478300 -18.927900 -21.007700
N -12.423500 -18.949300 -24.887900
C -12.200700 -16.616000 -24.299900
C -12.159800 -16.645300 -21.771500
H -11.565700 -16.539100 -25.005700
H -11.511700 -16.596200 -21.084600
N -11.472500 -16.704400 -23.048900
O -11.261500 -18.954200 -20.856400
O -11.198400 -18.923200 -24.998600
N -10.092900 -16.837800 -23.068100
O -9.536900 -16.733900 -24.152500
O -9.527800 -17.024200 -22.005100
42
Fragment
F -16.375000 -17.957900 -27.506100
H -15.539200 -15.636500 -26.867000
C -15.097100 -17.468700 -27.594100
C -14.858700 -16.166100 -27.195900
H -14.273900 -19.196200 -28.335300
C -14.094100 -18.291000 -28.061700
C -13.568700 -15.674700 -27.288800
H -13.394300 -14.753100 -27.039400
C -12.807900 -17.787700 -28.150300
C -12.520100 -16.473000 -27.761000
H -12.159800 -18.319400 -28.472500
N -11.238500 -15.953900 -27.916300
H -10.979300 -15.348400 -27.378700
H -10.632100 -16.506500 -27.994200
O -16.025000 -19.984800 -24.078200
O -16.010400 -19.961200 -21.907800
N -15.654900 -19.533100 -23.000800
H -14.929700 -18.289200 -25.024200
H -14.914300 -18.149000 -21.040100
N -14.764900 -18.483300 -23.017900
H -14.744500 -16.942700 -24.260400
H -14.698200 -16.869800 -21.837300
C -14.470600 -17.836100 -24.295100
C -14.459200 -17.792200 -21.776300
O -13.247700 -19.850700 -20.743300
O -13.135000 -19.934800 -25.041500
N -13.042900 -17.778700 -24.553700
N -13.028700 -17.787200 -21.512500
H -12.777000 -15.851800 -24.247400
H -12.753900 -15.865300 -21.796500
N -12.478300 -18.927900 -21.007700
N -12.423500 -18.949300 -24.887900
C -12.200700 -16.616000 -24.299900
C -12.159800 -16.645300 -21.771500
H -11.565700 -16.539100 -25.005700
H -11.511700 -16.596200 -21.084600
N -11.472500 -16.704400 -23.048900
O -11.261500 -18.954200 -20.856400
O -11.198400 -18.923200 -24.998600
N -10.092900 -16.837800 -23.068100
O -9.536900 -16.733900 -24.152500
O -9.527800 -17.024200 -22.005100
