13
Fragment
H -17.057600 -8.938500 -26.908800
H -16.828300 -8.081800 -25.555100
C -16.384000 -8.620700 -26.256900
H -16.100500 -10.091500 -24.922600
C -15.617100 -9.709500 -25.697700
H -15.510600 -10.422400 -26.376000
H -15.466400 -6.888200 -27.030500
C -15.241700 -7.847900 -26.938700
H -15.047100 -8.220100 -27.836000
O -14.340300 -9.251700 -25.283300
C -14.052500 -8.045300 -25.994100
H -13.971200 -7.281800 -25.369700
H -13.209400 -8.132300 -26.505100
13
Fragment
H -19.182100 -9.078100 -21.850100
H -18.420300 -9.928600 -22.985500
C -18.339000 -9.165100 -22.361000
O -18.051200 -7.958700 -23.071900
H -17.344400 -8.990300 -20.519200
C -17.149800 -9.362500 -21.416500
H -16.925100 -10.322200 -21.324600
H -16.880900 -6.788000 -21.979200
C -16.774400 -7.500900 -22.657500
H -16.290900 -7.118900 -23.432600
C -16.007500 -8.589700 -22.098300
H -15.563200 -9.128600 -22.800100
H -15.333900 -8.271900 -21.446300
26
Fragment
H -17.057600 -8.938500 -26.908800
H -16.828300 -8.081800 -25.555100
C -16.384000 -8.620700 -26.256900
H -16.100500 -10.091500 -24.922600
C -15.617100 -9.709500 -25.697700
H -15.510600 -10.422400 -26.376000
H -15.466400 -6.888200 -27.030500
C -15.241700 -7.847900 -26.938700
H -15.047100 -8.220100 -27.836000
O -14.340300 -9.251700 -25.283300
C -14.052500 -8.045300 -25.994100
H -13.971200 -7.281800 -25.369700
H -13.209400 -8.132300 -26.505100
H -19.182100 -9.078100 -21.850100
H -18.420300 -9.928600 -22.985500
C -18.339000 -9.165100 -22.361000
O -18.051200 -7.958700 -23.071900
H -17.344400 -8.990300 -20.519200
C -17.149800 -9.362500 -21.416500
H -16.925100 -10.322200 -21.324600
H -16.880900 -6.788000 -21.979200
C -16.774400 -7.500900 -22.657500
H -16.290900 -7.118900 -23.432600
C -16.007500 -8.589700 -22.098300
H -15.563200 -9.128600 -22.800100
H -15.333900 -8.271900 -21.446300
