13
Fragment
H -17.057600 -8.938500 -26.908800
H -16.828300 -8.081800 -25.555100
C -16.384000 -8.620700 -26.256900
H -16.100500 -10.091500 -24.922600
C -15.617100 -9.709500 -25.697700
H -15.510600 -10.422400 -26.376000
H -15.466400 -6.888200 -27.030500
C -15.241700 -7.847900 -26.938700
H -15.047100 -8.220100 -27.836000
O -14.340300 -9.251700 -25.283300
C -14.052500 -8.045300 -25.994100
H -13.971200 -7.281800 -25.369700
H -13.209400 -8.132300 -26.505100
28
Fragment
O -14.046800 -11.576900 -23.098100
O -13.222000 -9.407200 -19.900900
N -13.219300 -11.299800 -22.261100
O -13.032200 -11.906700 -21.229900
H -12.743600 -10.630300 -25.102800
C -12.370000 -10.167900 -22.529600
N -12.185900 -8.916100 -20.332400
N -11.986100 -10.844800 -24.846000
C -11.883100 -9.161100 -21.721500
N -11.810000 -9.967100 -23.756700
O -11.409800 -8.243200 -19.689400
H -11.305400 -10.641800 -25.439700
N -11.045600 -8.363700 -22.404400
C -11.010100 -8.862800 -23.628400
C -10.207200 -8.347600 -24.726700
N -10.171700 -8.846700 -25.950800
H -9.911800 -6.568600 -22.915500
O -9.807500 -8.967200 -28.665800
N -9.407300 -7.243300 -24.598400
C -9.334200 -8.049300 -26.633700
N -9.231200 -6.365600 -23.509200
N -9.031400 -8.294300 -28.022800
C -8.847300 -7.042500 -25.825500
H -8.473700 -6.580100 -23.252400
O -8.185100 -5.303700 -27.125300
N -7.998000 -5.910600 -26.094100
O -7.995300 -7.803200 -28.454300
O -7.170500 -5.633500 -25.257000
41
Fragment
H -17.057600 -8.938500 -26.908800
H -16.828300 -8.081800 -25.555100
C -16.384000 -8.620700 -26.256900
H -16.100500 -10.091500 -24.922600
C -15.617100 -9.709500 -25.697700
H -15.510600 -10.422400 -26.376000
H -15.466400 -6.888200 -27.030500
C -15.241700 -7.847900 -26.938700
H -15.047100 -8.220100 -27.836000
O -14.340300 -9.251700 -25.283300
C -14.052500 -8.045300 -25.994100
H -13.971200 -7.281800 -25.369700
H -13.209400 -8.132300 -26.505100
O -14.046800 -11.576900 -23.098100
O -13.222000 -9.407200 -19.900900
N -13.219300 -11.299800 -22.261100
O -13.032200 -11.906700 -21.229900
H -12.743600 -10.630300 -25.102800
C -12.370000 -10.167900 -22.529600
N -12.185900 -8.916100 -20.332400
N -11.986100 -10.844800 -24.846000
C -11.883100 -9.161100 -21.721500
N -11.810000 -9.967100 -23.756700
O -11.409800 -8.243200 -19.689400
H -11.305400 -10.641800 -25.439700
N -11.045600 -8.363700 -22.404400
C -11.010100 -8.862800 -23.628400
C -10.207200 -8.347600 -24.726700
N -10.171700 -8.846700 -25.950800
H -9.911800 -6.568600 -22.915500
O -9.807500 -8.967200 -28.665800
N -9.407300 -7.243300 -24.598400
C -9.334200 -8.049300 -26.633700
N -9.231200 -6.365600 -23.509200
N -9.031400 -8.294300 -28.022800
C -8.847300 -7.042500 -25.825500
H -8.473700 -6.580100 -23.252400
O -8.185100 -5.303700 -27.125300
N -7.998000 -5.910600 -26.094100
O -7.995300 -7.803200 -28.454300
O -7.170500 -5.633500 -25.257000
