13
Fragment
H -17.057600 -8.938500 -26.908800
H -16.828300 -8.081800 -25.555100
C -16.384000 -8.620700 -26.256900
H -16.100500 -10.091500 -24.922600
C -15.617100 -9.709500 -25.697700
H -15.510600 -10.422400 -26.376000
H -15.466400 -6.888200 -27.030500
C -15.241700 -7.847900 -26.938700
H -15.047100 -8.220100 -27.836000
O -14.340300 -9.251700 -25.283300
C -14.052500 -8.045300 -25.994100
H -13.971200 -7.281800 -25.369700
H -13.209400 -8.132300 -26.505100
13
Fragment
H -18.993600 -11.000700 -29.909300
H -18.231700 -10.150200 -31.044700
C -18.150500 -10.913700 -30.420200
O -17.862600 -12.120100 -31.131100
H -17.155900 -11.088500 -28.578400
C -16.961300 -10.716300 -29.475700
H -16.736600 -9.756600 -29.383800
H -16.692300 -13.290800 -30.038400
C -16.585900 -12.577900 -30.716700
H -16.102400 -12.959900 -31.491800
C -15.819000 -11.489100 -30.157500
H -15.374700 -10.950200 -30.859300
H -15.145300 -11.806900 -29.505500
26
Fragment
H -17.057600 -8.938500 -26.908800
H -16.828300 -8.081800 -25.555100
C -16.384000 -8.620700 -26.256900
H -16.100500 -10.091500 -24.922600
C -15.617100 -9.709500 -25.697700
H -15.510600 -10.422400 -26.376000
H -15.466400 -6.888200 -27.030500
C -15.241700 -7.847900 -26.938700
H -15.047100 -8.220100 -27.836000
O -14.340300 -9.251700 -25.283300
C -14.052500 -8.045300 -25.994100
H -13.971200 -7.281800 -25.369700
H -13.209400 -8.132300 -26.505100
H -18.993600 -11.000700 -29.909300
H -18.231700 -10.150200 -31.044700
C -18.150500 -10.913700 -30.420200
O -17.862600 -12.120100 -31.131100
H -17.155900 -11.088500 -28.578400
C -16.961300 -10.716300 -29.475700
H -16.736600 -9.756600 -29.383800
H -16.692300 -13.290800 -30.038400
C -16.585900 -12.577900 -30.716700
H -16.102400 -12.959900 -31.491800
C -15.819000 -11.489100 -30.157500
H -15.374700 -10.950200 -30.859300
H -15.145300 -11.806900 -29.505500
