13
Fragment
H -17.057600 -8.938500 -26.908800
H -16.828300 -8.081800 -25.555100
C -16.384000 -8.620700 -26.256900
H -16.100500 -10.091500 -24.922600
C -15.617100 -9.709500 -25.697700
H -15.510600 -10.422400 -26.376000
H -15.466400 -6.888200 -27.030500
C -15.241700 -7.847900 -26.938700
H -15.047100 -8.220100 -27.836000
O -14.340300 -9.251700 -25.283300
C -14.052500 -8.045300 -25.994100
H -13.971200 -7.281800 -25.369700
H -13.209400 -8.132300 -26.505100
28
Fragment
O -25.221000 -17.313700 -23.098100
O -24.396200 -15.144000 -19.900900
N -24.393500 -17.036600 -22.261100
O -24.206400 -17.643500 -21.229900
H -23.917800 -16.367100 -25.102800
C -23.544200 -15.904700 -22.529600
N -23.360100 -14.652900 -20.332400
N -23.160300 -16.581600 -24.846000
C -23.057300 -14.897900 -21.721500
N -22.984200 -15.703900 -23.756700
O -22.584000 -13.980000 -19.689400
H -22.479600 -16.378600 -25.439700
N -22.219800 -14.100500 -22.404400
C -22.184300 -14.599600 -23.628400
C -21.381400 -14.084400 -24.726700
N -21.345900 -14.583500 -25.950800
H -21.086000 -12.305400 -22.915500
O -20.981700 -14.704000 -28.665800
N -20.581500 -12.980100 -24.598400
C -20.508400 -13.786100 -26.633700
N -20.405400 -12.102400 -23.509200
N -20.205600 -14.031100 -28.022800
C -20.021500 -12.779300 -25.825500
H -19.647900 -12.316900 -23.252400
O -19.359300 -11.040500 -27.125300
N -19.172200 -11.647400 -26.094100
O -19.169500 -13.540000 -28.454300
O -18.344700 -11.370300 -25.257000
41
Fragment
H -17.057600 -8.938500 -26.908800
H -16.828300 -8.081800 -25.555100
C -16.384000 -8.620700 -26.256900
H -16.100500 -10.091500 -24.922600
C -15.617100 -9.709500 -25.697700
H -15.510600 -10.422400 -26.376000
H -15.466400 -6.888200 -27.030500
C -15.241700 -7.847900 -26.938700
H -15.047100 -8.220100 -27.836000
O -14.340300 -9.251700 -25.283300
C -14.052500 -8.045300 -25.994100
H -13.971200 -7.281800 -25.369700
H -13.209400 -8.132300 -26.505100
O -25.221000 -17.313700 -23.098100
O -24.396200 -15.144000 -19.900900
N -24.393500 -17.036600 -22.261100
O -24.206400 -17.643500 -21.229900
H -23.917800 -16.367100 -25.102800
C -23.544200 -15.904700 -22.529600
N -23.360100 -14.652900 -20.332400
N -23.160300 -16.581600 -24.846000
C -23.057300 -14.897900 -21.721500
N -22.984200 -15.703900 -23.756700
O -22.584000 -13.980000 -19.689400
H -22.479600 -16.378600 -25.439700
N -22.219800 -14.100500 -22.404400
C -22.184300 -14.599600 -23.628400
C -21.381400 -14.084400 -24.726700
N -21.345900 -14.583500 -25.950800
H -21.086000 -12.305400 -22.915500
O -20.981700 -14.704000 -28.665800
N -20.581500 -12.980100 -24.598400
C -20.508400 -13.786100 -26.633700
N -20.405400 -12.102400 -23.509200
N -20.205600 -14.031100 -28.022800
C -20.021500 -12.779300 -25.825500
H -19.647900 -12.316900 -23.252400
O -19.359300 -11.040500 -27.125300
N -19.172200 -11.647400 -26.094100
O -19.169500 -13.540000 -28.454300
O -18.344700 -11.370300 -25.257000
