21
Fragment
N -16.024000 -17.618300 -25.592200
N -15.757200 -16.621100 -26.488800
C -14.857600 -18.055500 -25.189100
H -14.671500 -18.767800 -24.589100
N -14.483700 -16.462800 -26.621200
N -13.901500 -17.362100 -25.798900
H -13.069700 -20.487500 -29.626400
H -13.028800 -18.273200 -28.283500
C -12.448700 -17.490200 -25.697300
H -12.390600 -19.434600 -26.325300
H -12.270900 -17.651400 -24.762100
C -12.141000 -20.374600 -29.558700
C -12.102700 -18.339000 -28.044400
H -12.066300 -16.616100 -25.981000
C -11.930900 -18.625500 -26.563300
H -11.639800 -17.526400 -28.286700
N -11.543100 -19.421200 -28.855200
N -11.227800 -21.144200 -30.112000
H -10.995400 -18.734900 -26.390600
N -10.217600 -19.591000 -28.960000
N -10.036400 -20.626200 -29.719900
21
Fragment
N -10.909800 -20.766200 -23.360900
N -10.643100 -21.763400 -22.464300
C -9.743500 -20.329000 -23.764000
H -9.557300 -19.616700 -24.364000
N -9.369500 -21.921700 -22.331900
N -8.787300 -21.022400 -23.154200
H -7.955600 -17.897000 -19.326700
H -7.914700 -20.111300 -20.669600
C -7.334500 -20.894300 -23.255800
H -7.276400 -18.949900 -22.627800
H -7.156700 -20.733100 -24.191000
C -7.026800 -18.009900 -19.394400
C -6.988600 -20.045500 -20.908700
H -6.952200 -21.768400 -22.972100
C -6.816800 -19.759000 -22.389800
H -6.525700 -20.858100 -20.666400
N -6.429000 -18.963300 -20.097900
N -6.113700 -17.240300 -18.841100
H -5.881300 -19.649600 -22.562500
N -5.103400 -18.793500 -19.993100
N -4.922300 -17.758300 -19.233200
42
Fragment
N -16.024000 -17.618300 -25.592200
N -15.757200 -16.621100 -26.488800
C -14.857600 -18.055500 -25.189100
H -14.671500 -18.767800 -24.589100
N -14.483700 -16.462800 -26.621200
N -13.901500 -17.362100 -25.798900
H -13.069700 -20.487500 -29.626400
H -13.028800 -18.273200 -28.283500
C -12.448700 -17.490200 -25.697300
H -12.390600 -19.434600 -26.325300
H -12.270900 -17.651400 -24.762100
C -12.141000 -20.374600 -29.558700
C -12.102700 -18.339000 -28.044400
H -12.066300 -16.616100 -25.981000
C -11.930900 -18.625500 -26.563300
H -11.639800 -17.526400 -28.286700
N -11.543100 -19.421200 -28.855200
N -11.227800 -21.144200 -30.112000
H -10.995400 -18.734900 -26.390600
N -10.217600 -19.591000 -28.960000
N -10.036400 -20.626200 -29.719900
N -10.909800 -20.766200 -23.360900
N -10.643100 -21.763400 -22.464300
C -9.743500 -20.329000 -23.764000
H -9.557300 -19.616700 -24.364000
N -9.369500 -21.921700 -22.331900
N -8.787300 -21.022400 -23.154200
H -7.955600 -17.897000 -19.326700
H -7.914700 -20.111300 -20.669600
C -7.334500 -20.894300 -23.255800
H -7.276400 -18.949900 -22.627800
H -7.156700 -20.733100 -24.191000
C -7.026800 -18.009900 -19.394400
C -6.988600 -20.045500 -20.908700
H -6.952200 -21.768400 -22.972100
C -6.816800 -19.759000 -22.389800
H -6.525700 -20.858100 -20.666400
N -6.429000 -18.963300 -20.097900
N -6.113700 -17.240300 -18.841100
H -5.881300 -19.649600 -22.562500
N -5.103400 -18.793500 -19.993100
N -4.922300 -17.758300 -19.233200
