21
Fragment
N -16.024000 -17.618300 -25.592200
N -15.757200 -16.621100 -26.488800
C -14.857600 -18.055500 -25.189100
H -14.671500 -18.767800 -24.589100
N -14.483700 -16.462800 -26.621200
N -13.901500 -17.362100 -25.798900
H -13.069700 -20.487500 -29.626400
H -13.028800 -18.273200 -28.283500
C -12.448700 -17.490200 -25.697300
H -12.390600 -19.434600 -26.325300
H -12.270900 -17.651400 -24.762100
C -12.141000 -20.374600 -29.558700
C -12.102700 -18.339000 -28.044400
H -12.066300 -16.616100 -25.981000
C -11.930900 -18.625500 -26.563300
H -11.639800 -17.526400 -28.286700
N -11.543100 -19.421200 -28.855200
N -11.227800 -21.144200 -30.112000
H -10.995400 -18.734900 -26.390600
N -10.217600 -19.591000 -28.960000
N -10.036400 -20.626200 -29.719900
21
Fragment
N -15.534300 -15.142700 -29.719900
N -15.353200 -14.107500 -28.960000
H -14.575300 -13.251400 -26.390600
N -14.342900 -15.660700 -30.112000
N -14.027600 -13.937700 -28.855200
H -13.930900 -12.042900 -28.286700
C -13.639800 -13.142000 -26.563300
H -13.504400 -11.132600 -25.981000
C -13.468000 -12.855500 -28.044400
C -13.429800 -14.891100 -29.558700
H -13.299900 -12.167900 -24.762100
H -13.180200 -13.951100 -26.325300
C -13.122100 -12.006700 -25.697300
H -12.541900 -12.789700 -28.283500
H -12.501000 -15.004000 -29.626400
N -11.669300 -11.878600 -25.798900
N -11.087100 -10.979300 -26.621200
H -10.899300 -13.284300 -24.589100
C -10.713100 -12.572000 -25.189100
N -9.813500 -11.137600 -26.488800
N -9.546800 -12.134800 -25.592200
42
Fragment
N -16.024000 -17.618300 -25.592200
N -15.757200 -16.621100 -26.488800
C -14.857600 -18.055500 -25.189100
H -14.671500 -18.767800 -24.589100
N -14.483700 -16.462800 -26.621200
N -13.901500 -17.362100 -25.798900
H -13.069700 -20.487500 -29.626400
H -13.028800 -18.273200 -28.283500
C -12.448700 -17.490200 -25.697300
H -12.390600 -19.434600 -26.325300
H -12.270900 -17.651400 -24.762100
C -12.141000 -20.374600 -29.558700
C -12.102700 -18.339000 -28.044400
H -12.066300 -16.616100 -25.981000
C -11.930900 -18.625500 -26.563300
H -11.639800 -17.526400 -28.286700
N -11.543100 -19.421200 -28.855200
N -11.227800 -21.144200 -30.112000
H -10.995400 -18.734900 -26.390600
N -10.217600 -19.591000 -28.960000
N -10.036400 -20.626200 -29.719900
N -15.534300 -15.142700 -29.719900
N -15.353200 -14.107500 -28.960000
H -14.575300 -13.251400 -26.390600
N -14.342900 -15.660700 -30.112000
N -14.027600 -13.937700 -28.855200
H -13.930900 -12.042900 -28.286700
C -13.639800 -13.142000 -26.563300
H -13.504400 -11.132600 -25.981000
C -13.468000 -12.855500 -28.044400
C -13.429800 -14.891100 -29.558700
H -13.299900 -12.167900 -24.762100
H -13.180200 -13.951100 -26.325300
C -13.122100 -12.006700 -25.697300
H -12.541900 -12.789700 -28.283500
H -12.501000 -15.004000 -29.626400
N -11.669300 -11.878600 -25.798900
N -11.087100 -10.979300 -26.621200
H -10.899300 -13.284300 -24.589100
C -10.713100 -12.572000 -25.189100
N -9.813500 -11.137600 -26.488800
N -9.546800 -12.134800 -25.592200
