21
Fragment
N -16.024000 -17.618300 -25.592200
N -15.757200 -16.621100 -26.488800
C -14.857600 -18.055500 -25.189100
H -14.671500 -18.767800 -24.589100
N -14.483700 -16.462800 -26.621200
N -13.901500 -17.362100 -25.798900
H -13.069700 -20.487500 -29.626400
H -13.028800 -18.273200 -28.283500
C -12.448700 -17.490200 -25.697300
H -12.390600 -19.434600 -26.325300
H -12.270900 -17.651400 -24.762100
C -12.141000 -20.374600 -29.558700
C -12.102700 -18.339000 -28.044400
H -12.066300 -16.616100 -25.981000
C -11.930900 -18.625500 -26.563300
H -11.639800 -17.526400 -28.286700
N -11.543100 -19.421200 -28.855200
N -11.227800 -21.144200 -30.112000
H -10.995400 -18.734900 -26.390600
N -10.217600 -19.591000 -28.960000
N -10.036400 -20.626200 -29.719900
21
Fragment
N -20.648500 -15.142700 -27.392000
N -20.467300 -14.107500 -28.151900
H -19.689500 -13.251400 -30.721300
N -19.457100 -15.660700 -26.999900
N -19.141800 -13.937700 -28.256700
H -19.045100 -12.042900 -28.825200
C -18.754000 -13.142000 -30.548700
H -18.618600 -11.132600 -31.130900
C -18.582200 -12.855500 -29.067500
C -18.543900 -14.891100 -27.553300
H -18.414000 -12.167900 -32.349800
H -18.294300 -13.951100 -30.786600
C -18.236200 -12.006700 -31.414700
H -17.656100 -12.789700 -28.828500
H -17.615200 -15.004000 -27.485500
N -16.783400 -11.878600 -31.313000
N -16.201200 -10.979300 -30.490800
H -16.013400 -13.284300 -32.522800
C -15.827300 -12.572000 -31.922800
N -14.927700 -11.137600 -30.623100
N -14.660900 -12.134800 -31.519800
42
Fragment
N -16.024000 -17.618300 -25.592200
N -15.757200 -16.621100 -26.488800
C -14.857600 -18.055500 -25.189100
H -14.671500 -18.767800 -24.589100
N -14.483700 -16.462800 -26.621200
N -13.901500 -17.362100 -25.798900
H -13.069700 -20.487500 -29.626400
H -13.028800 -18.273200 -28.283500
C -12.448700 -17.490200 -25.697300
H -12.390600 -19.434600 -26.325300
H -12.270900 -17.651400 -24.762100
C -12.141000 -20.374600 -29.558700
C -12.102700 -18.339000 -28.044400
H -12.066300 -16.616100 -25.981000
C -11.930900 -18.625500 -26.563300
H -11.639800 -17.526400 -28.286700
N -11.543100 -19.421200 -28.855200
N -11.227800 -21.144200 -30.112000
H -10.995400 -18.734900 -26.390600
N -10.217600 -19.591000 -28.960000
N -10.036400 -20.626200 -29.719900
N -20.648500 -15.142700 -27.392000
N -20.467300 -14.107500 -28.151900
H -19.689500 -13.251400 -30.721300
N -19.457100 -15.660700 -26.999900
N -19.141800 -13.937700 -28.256700
H -19.045100 -12.042900 -28.825200
C -18.754000 -13.142000 -30.548700
H -18.618600 -11.132600 -31.130900
C -18.582200 -12.855500 -29.067500
C -18.543900 -14.891100 -27.553300
H -18.414000 -12.167900 -32.349800
H -18.294300 -13.951100 -30.786600
C -18.236200 -12.006700 -31.414700
H -17.656100 -12.789700 -28.828500
H -17.615200 -15.004000 -27.485500
N -16.783400 -11.878600 -31.313000
N -16.201200 -10.979300 -30.490800
H -16.013400 -13.284300 -32.522800
C -15.827300 -12.572000 -31.922800
N -14.927700 -11.137600 -30.623100
N -14.660900 -12.134800 -31.519800
