21
Fragment
N -16.024000 -17.618300 -25.592200
N -15.757200 -16.621100 -26.488800
C -14.857600 -18.055500 -25.189100
H -14.671500 -18.767800 -24.589100
N -14.483700 -16.462800 -26.621200
N -13.901500 -17.362100 -25.798900
H -13.069700 -20.487500 -29.626400
H -13.028800 -18.273200 -28.283500
C -12.448700 -17.490200 -25.697300
H -12.390600 -19.434600 -26.325300
H -12.270900 -17.651400 -24.762100
C -12.141000 -20.374600 -29.558700
C -12.102700 -18.339000 -28.044400
H -12.066300 -16.616100 -25.981000
C -11.930900 -18.625500 -26.563300
H -11.639800 -17.526400 -28.286700
N -11.543100 -19.421200 -28.855200
N -11.227800 -21.144200 -30.112000
H -10.995400 -18.734900 -26.390600
N -10.217600 -19.591000 -28.960000
N -10.036400 -20.626200 -29.719900
21
Fragment
N -10.420200 -15.142700 -27.392000
N -10.239000 -14.107500 -28.151900
H -9.461200 -13.251400 -30.721300
N -9.228800 -15.660700 -26.999900
N -8.913500 -13.937700 -28.256700
H -8.816800 -12.042900 -28.825200
C -8.525700 -13.142000 -30.548700
H -8.390300 -11.132600 -31.130900
C -8.353900 -12.855500 -29.067500
C -8.315600 -14.891100 -27.553300
H -8.185700 -12.167900 -32.349800
H -8.066000 -13.951100 -30.786600
C -8.007900 -12.006700 -31.414700
H -7.427800 -12.789700 -28.828500
H -7.386900 -15.004000 -27.485500
N -6.555100 -11.878600 -31.313000
N -5.972900 -10.979300 -30.490800
H -5.785100 -13.284300 -32.522800
C -5.599000 -12.572000 -31.922800
N -4.699400 -11.137600 -30.623100
N -4.432600 -12.134800 -31.519800
42
Fragment
N -16.024000 -17.618300 -25.592200
N -15.757200 -16.621100 -26.488800
C -14.857600 -18.055500 -25.189100
H -14.671500 -18.767800 -24.589100
N -14.483700 -16.462800 -26.621200
N -13.901500 -17.362100 -25.798900
H -13.069700 -20.487500 -29.626400
H -13.028800 -18.273200 -28.283500
C -12.448700 -17.490200 -25.697300
H -12.390600 -19.434600 -26.325300
H -12.270900 -17.651400 -24.762100
C -12.141000 -20.374600 -29.558700
C -12.102700 -18.339000 -28.044400
H -12.066300 -16.616100 -25.981000
C -11.930900 -18.625500 -26.563300
H -11.639800 -17.526400 -28.286700
N -11.543100 -19.421200 -28.855200
N -11.227800 -21.144200 -30.112000
H -10.995400 -18.734900 -26.390600
N -10.217600 -19.591000 -28.960000
N -10.036400 -20.626200 -29.719900
N -10.420200 -15.142700 -27.392000
N -10.239000 -14.107500 -28.151900
H -9.461200 -13.251400 -30.721300
N -9.228800 -15.660700 -26.999900
N -8.913500 -13.937700 -28.256700
H -8.816800 -12.042900 -28.825200
C -8.525700 -13.142000 -30.548700
H -8.390300 -11.132600 -31.130900
C -8.353900 -12.855500 -29.067500
C -8.315600 -14.891100 -27.553300
H -8.185700 -12.167900 -32.349800
H -8.066000 -13.951100 -30.786600
C -8.007900 -12.006700 -31.414700
H -7.427800 -12.789700 -28.828500
H -7.386900 -15.004000 -27.485500
N -6.555100 -11.878600 -31.313000
N -5.972900 -10.979300 -30.490800
H -5.785100 -13.284300 -32.522800
C -5.599000 -12.572000 -31.922800
N -4.699400 -11.137600 -30.623100
N -4.432600 -12.134800 -31.519800
