21
Fragment
N -16.024000 -17.618300 -25.592200
N -15.757200 -16.621100 -26.488800
C -14.857600 -18.055500 -25.189100
H -14.671500 -18.767800 -24.589100
N -14.483700 -16.462800 -26.621200
N -13.901500 -17.362100 -25.798900
H -13.069700 -20.487500 -29.626400
H -13.028800 -18.273200 -28.283500
C -12.448700 -17.490200 -25.697300
H -12.390600 -19.434600 -26.325300
H -12.270900 -17.651400 -24.762100
C -12.141000 -20.374600 -29.558700
C -12.102700 -18.339000 -28.044400
H -12.066300 -16.616100 -25.981000
C -11.930900 -18.625500 -26.563300
H -11.639800 -17.526400 -28.286700
N -11.543100 -19.421200 -28.855200
N -11.227800 -21.144200 -30.112000
H -10.995400 -18.734900 -26.390600
N -10.217600 -19.591000 -28.960000
N -10.036400 -20.626200 -29.719900
21
Fragment
N -20.648500 -26.109700 -27.392000
N -20.467300 -25.074500 -28.151900
H -19.689500 -24.218400 -30.721300
N -19.457100 -26.627700 -26.999900
N -19.141800 -24.904700 -28.256700
H -19.045100 -23.009900 -28.825200
C -18.754000 -24.109000 -30.548700
H -18.618600 -22.099600 -31.130900
C -18.582200 -23.822500 -29.067500
C -18.543900 -25.858100 -27.553300
H -18.414000 -23.134900 -32.349800
H -18.294300 -24.918100 -30.786600
C -18.236200 -22.973700 -31.414700
H -17.656100 -23.756700 -28.828500
H -17.615200 -25.971000 -27.485500
N -16.783400 -22.845600 -31.313000
N -16.201200 -21.946300 -30.490800
H -16.013400 -24.251300 -32.522800
C -15.827300 -23.539000 -31.922800
N -14.927700 -22.104600 -30.623100
N -14.660900 -23.101800 -31.519800
42
Fragment
N -16.024000 -17.618300 -25.592200
N -15.757200 -16.621100 -26.488800
C -14.857600 -18.055500 -25.189100
H -14.671500 -18.767800 -24.589100
N -14.483700 -16.462800 -26.621200
N -13.901500 -17.362100 -25.798900
H -13.069700 -20.487500 -29.626400
H -13.028800 -18.273200 -28.283500
C -12.448700 -17.490200 -25.697300
H -12.390600 -19.434600 -26.325300
H -12.270900 -17.651400 -24.762100
C -12.141000 -20.374600 -29.558700
C -12.102700 -18.339000 -28.044400
H -12.066300 -16.616100 -25.981000
C -11.930900 -18.625500 -26.563300
H -11.639800 -17.526400 -28.286700
N -11.543100 -19.421200 -28.855200
N -11.227800 -21.144200 -30.112000
H -10.995400 -18.734900 -26.390600
N -10.217600 -19.591000 -28.960000
N -10.036400 -20.626200 -29.719900
N -20.648500 -26.109700 -27.392000
N -20.467300 -25.074500 -28.151900
H -19.689500 -24.218400 -30.721300
N -19.457100 -26.627700 -26.999900
N -19.141800 -24.904700 -28.256700
H -19.045100 -23.009900 -28.825200
C -18.754000 -24.109000 -30.548700
H -18.618600 -22.099600 -31.130900
C -18.582200 -23.822500 -29.067500
C -18.543900 -25.858100 -27.553300
H -18.414000 -23.134900 -32.349800
H -18.294300 -24.918100 -30.786600
C -18.236200 -22.973700 -31.414700
H -17.656100 -23.756700 -28.828500
H -17.615200 -25.971000 -27.485500
N -16.783400 -22.845600 -31.313000
N -16.201200 -21.946300 -30.490800
H -16.013400 -24.251300 -32.522800
C -15.827300 -23.539000 -31.922800
N -14.927700 -22.104600 -30.623100
N -14.660900 -23.101800 -31.519800
