21
Fragment
N -16.024000 -17.618300 -25.592200
N -15.757200 -16.621100 -26.488800
C -14.857600 -18.055500 -25.189100
H -14.671500 -18.767800 -24.589100
N -14.483700 -16.462800 -26.621200
N -13.901500 -17.362100 -25.798900
H -13.069700 -20.487500 -29.626400
H -13.028800 -18.273200 -28.283500
C -12.448700 -17.490200 -25.697300
H -12.390600 -19.434600 -26.325300
H -12.270900 -17.651400 -24.762100
C -12.141000 -20.374600 -29.558700
C -12.102700 -18.339000 -28.044400
H -12.066300 -16.616100 -25.981000
C -11.930900 -18.625500 -26.563300
H -11.639800 -17.526400 -28.286700
N -11.543100 -19.421200 -28.855200
N -11.227800 -21.144200 -30.112000
H -10.995400 -18.734900 -26.390600
N -10.217600 -19.591000 -28.960000
N -10.036400 -20.626200 -29.719900
21
Fragment
N -16.024000 -20.766200 -33.751000
N -15.757200 -21.763400 -34.647700
C -14.857600 -20.329000 -33.348000
H -14.671500 -19.616700 -32.748000
N -14.483700 -21.921700 -34.780000
N -13.901500 -21.022400 -33.957800
H -13.069700 -17.897000 -37.785300
H -13.028800 -20.111300 -36.442300
C -12.448700 -20.894300 -33.856100
H -12.390600 -18.949900 -34.484200
H -12.270900 -20.733100 -32.921000
C -12.141000 -18.009900 -37.717500
C -12.102700 -20.045500 -36.203300
H -12.066300 -21.768400 -34.139900
C -11.930900 -19.759000 -34.722100
H -11.639800 -20.858100 -36.445600
N -11.543100 -18.963300 -37.014100
N -11.227800 -17.240300 -38.270900
H -10.995400 -19.649600 -34.549500
N -10.217600 -18.793500 -37.118900
N -10.036400 -17.758300 -37.878800
42
Fragment
N -16.024000 -17.618300 -25.592200
N -15.757200 -16.621100 -26.488800
C -14.857600 -18.055500 -25.189100
H -14.671500 -18.767800 -24.589100
N -14.483700 -16.462800 -26.621200
N -13.901500 -17.362100 -25.798900
H -13.069700 -20.487500 -29.626400
H -13.028800 -18.273200 -28.283500
C -12.448700 -17.490200 -25.697300
H -12.390600 -19.434600 -26.325300
H -12.270900 -17.651400 -24.762100
C -12.141000 -20.374600 -29.558700
C -12.102700 -18.339000 -28.044400
H -12.066300 -16.616100 -25.981000
C -11.930900 -18.625500 -26.563300
H -11.639800 -17.526400 -28.286700
N -11.543100 -19.421200 -28.855200
N -11.227800 -21.144200 -30.112000
H -10.995400 -18.734900 -26.390600
N -10.217600 -19.591000 -28.960000
N -10.036400 -20.626200 -29.719900
N -16.024000 -20.766200 -33.751000
N -15.757200 -21.763400 -34.647700
C -14.857600 -20.329000 -33.348000
H -14.671500 -19.616700 -32.748000
N -14.483700 -21.921700 -34.780000
N -13.901500 -21.022400 -33.957800
H -13.069700 -17.897000 -37.785300
H -13.028800 -20.111300 -36.442300
C -12.448700 -20.894300 -33.856100
H -12.390600 -18.949900 -34.484200
H -12.270900 -20.733100 -32.921000
C -12.141000 -18.009900 -37.717500
C -12.102700 -20.045500 -36.203300
H -12.066300 -21.768400 -34.139900
C -11.930900 -19.759000 -34.722100
H -11.639800 -20.858100 -36.445600
N -11.543100 -18.963300 -37.014100
N -11.227800 -17.240300 -38.270900
H -10.995400 -19.649600 -34.549500
N -10.217600 -18.793500 -37.118900
N -10.036400 -17.758300 -37.878800
