3
Fragment
H -10.179200 -20.462600 -18.206300
O -9.605800 -20.988900 -18.409300
H -8.800600 -20.615000 -18.195000
29
Fragment
H -10.839400 -23.014700 -15.048300
H -10.351300 -24.534300 -15.271800
H -10.267100 -26.009800 -6.157300
H -10.212700 -23.795200 -6.853700
H -10.164300 -23.978900 -12.908900
C -10.080000 -23.641400 -14.942100
C -9.931800 -25.803200 -7.021900
C -9.895400 -24.485500 -7.424900
N -9.651000 -23.705800 -13.567600
H -9.545800 -22.272800 -8.590400
H -9.527100 -27.740200 -7.537800
C -9.491400 -26.839700 -7.840300
C -9.381700 -24.182300 -8.693300
N -9.306000 -22.873600 -9.129200
H -9.053200 -22.277000 -16.105500
C -9.002500 -26.541200 -9.100300
C -8.936100 -25.204700 -9.522600
C -8.871400 -23.145900 -15.668500
C -8.807000 -22.491500 -10.336300
O -8.738400 -21.327000 -10.679900
H -8.712600 -27.238900 -9.677100
H -8.581500 -23.796600 -16.356200
C -8.384000 -23.295700 -13.419600
N -8.363500 -23.536600 -11.169700
C -8.342700 -24.878700 -10.813400
N -7.872100 -23.005100 -14.639900
O -7.837500 -25.715800 -11.560000
N -7.664400 -23.150900 -12.336600
H -7.131400 -22.661600 -14.757900
32
Fragment
H -10.179200 -20.462600 -18.206300
O -9.605800 -20.988900 -18.409300
H -8.800600 -20.615000 -18.195000
H -10.839400 -23.014700 -15.048300
H -10.351300 -24.534300 -15.271800
H -10.267100 -26.009800 -6.157300
H -10.212700 -23.795200 -6.853700
H -10.164300 -23.978900 -12.908900
C -10.080000 -23.641400 -14.942100
C -9.931800 -25.803200 -7.021900
C -9.895400 -24.485500 -7.424900
N -9.651000 -23.705800 -13.567600
H -9.545800 -22.272800 -8.590400
H -9.527100 -27.740200 -7.537800
C -9.491400 -26.839700 -7.840300
C -9.381700 -24.182300 -8.693300
N -9.306000 -22.873600 -9.129200
H -9.053200 -22.277000 -16.105500
C -9.002500 -26.541200 -9.100300
C -8.936100 -25.204700 -9.522600
C -8.871400 -23.145900 -15.668500
C -8.807000 -22.491500 -10.336300
O -8.738400 -21.327000 -10.679900
H -8.712600 -27.238900 -9.677100
H -8.581500 -23.796600 -16.356200
C -8.384000 -23.295700 -13.419600
N -8.363500 -23.536600 -11.169700
C -8.342700 -24.878700 -10.813400
N -7.872100 -23.005100 -14.639900
O -7.837500 -25.715800 -11.560000
N -7.664400 -23.150900 -12.336600
H -7.131400 -22.661600 -14.757900
