3
Fragment
H -10.179200 -20.462600 -18.206300
O -9.605800 -20.988900 -18.409300
H -8.800600 -20.615000 -18.195000
29
Fragment
H -15.224000 -20.063800 -20.429600
N -14.691000 -19.574500 -18.008400
O -14.517900 -17.009600 -17.231800
N -14.483300 -19.720300 -20.311700
C -14.012700 -17.846700 -16.485200
N -13.991900 -19.188800 -16.841500
C -13.971400 -19.429700 -19.091300
H -13.773900 -18.928800 -22.027900
H -13.642800 -15.486500 -15.348900
O -13.617000 -21.398400 -16.351700
C -13.548400 -20.233900 -16.008100
C -13.484000 -19.579500 -21.340300
C -13.419300 -17.520700 -15.194400
C -13.352900 -16.184200 -14.772100
H -13.302200 -20.448400 -21.777300
N -13.049400 -19.851800 -14.801000
C -12.973700 -18.543100 -14.365100
C -12.864000 -15.885700 -13.512000
H -12.828300 -14.985200 -13.209500
H -12.809600 -20.452600 -14.262200
N -12.704400 -19.019600 -19.239400
C -12.460000 -18.239900 -13.096600
C -12.423600 -16.922200 -12.693600
C -12.275400 -19.084000 -20.613900
H -12.191100 -18.746500 -18.580700
H -12.142700 -18.930200 -12.525500
H -12.088300 -16.715600 -11.829000
H -12.004100 -18.191100 -20.943500
H -11.516000 -19.710700 -20.720000
32
Fragment
H -10.179200 -20.462600 -18.206300
O -9.605800 -20.988900 -18.409300
H -8.800600 -20.615000 -18.195000
H -15.224000 -20.063800 -20.429600
N -14.691000 -19.574500 -18.008400
O -14.517900 -17.009600 -17.231800
N -14.483300 -19.720300 -20.311700
C -14.012700 -17.846700 -16.485200
N -13.991900 -19.188800 -16.841500
C -13.971400 -19.429700 -19.091300
H -13.773900 -18.928800 -22.027900
H -13.642800 -15.486500 -15.348900
O -13.617000 -21.398400 -16.351700
C -13.548400 -20.233900 -16.008100
C -13.484000 -19.579500 -21.340300
C -13.419300 -17.520700 -15.194400
C -13.352900 -16.184200 -14.772100
H -13.302200 -20.448400 -21.777300
N -13.049400 -19.851800 -14.801000
C -12.973700 -18.543100 -14.365100
C -12.864000 -15.885700 -13.512000
H -12.828300 -14.985200 -13.209500
H -12.809600 -20.452600 -14.262200
N -12.704400 -19.019600 -19.239400
C -12.460000 -18.239900 -13.096600
C -12.423600 -16.922200 -12.693600
C -12.275400 -19.084000 -20.613900
H -12.191100 -18.746500 -18.580700
H -12.142700 -18.930200 -12.525500
H -12.088300 -16.715600 -11.829000
H -12.004100 -18.191100 -20.943500
H -11.516000 -19.710700 -20.720000
