28
Fragment
N -23.259100 -14.015500 -18.976700
C -22.659300 -14.388700 -19.888100
N -22.488400 -17.008400 -22.230900
C -22.235600 -16.033800 -21.667300
C -21.897800 -14.823400 -21.008400
C -20.851800 -14.037700 -21.493400
H -20.606200 -14.855800 -23.215300
N -20.374900 -13.009200 -20.774100
N -20.269200 -14.238100 -22.688300
H -20.236300 -13.156200 -19.920400
N -19.443200 -12.188900 -21.485500
H -19.133600 -11.514500 -21.029200
N -18.887600 -13.981200 -22.863000
C -18.537900 -12.925400 -22.217700
N -17.236900 -12.444700 -22.309100
H -17.036800 -13.678000 -24.761900
N -16.877500 -11.410300 -21.466100
H -16.473800 -14.719400 -23.796500
C -16.298400 -13.863400 -24.178900
C -16.215700 -12.780600 -23.166200
C -15.635700 -11.118600 -21.792300
H -15.495900 -13.861500 -24.667400
H -15.385800 -9.563300 -20.421300
C -15.194300 -11.948600 -22.846400
C -14.894700 -10.045900 -21.074100
H -14.596600 -9.363200 -21.577300
H -14.344900 -11.927100 -23.187000
H -14.187600 -10.430500 -20.758300
34
Fragment
N -18.383600 -9.356400 -32.042300
H -17.819500 -10.197200 -28.814400
C -17.776300 -10.234400 -31.628300
N -17.318800 -10.941900 -28.702600
H -17.183100 -11.261000 -27.893000
C -17.039900 -11.316100 -31.101700
C -16.851900 -11.626100 -29.735900
C -16.417300 -12.321800 -31.852700
N -16.318200 -12.474200 -33.169700
C -16.039600 -12.820500 -29.666600
N -15.832900 -13.225200 -30.964200
O -15.671000 -12.788600 -27.401800
N -15.642200 -13.532600 -33.621700
C -15.422000 -13.359800 -28.457300
N -15.162700 -14.309200 -31.393700
C -15.116800 -14.389000 -32.725500
H -14.895700 -15.311000 -28.845900
C -14.486300 -14.514700 -28.506900
N -14.482500 -15.606600 -34.651800
N -14.455300 -15.484400 -33.267500
H -14.371200 -16.755900 -30.713800
H -14.284900 -17.901800 -36.495600
H -14.155800 -14.691800 -27.592200
C -13.827600 -16.730400 -34.893400
C -13.778700 -16.540800 -32.671200
H -13.709200 -14.289100 -29.167200
C -13.666900 -17.218900 -36.300000
H -13.559300 -16.532100 -37.016900
C -13.557500 -16.715500 -31.206500
C -13.382200 -17.340900 -33.700800
H -13.074900 -17.580100 -31.044600
H -13.001300 -15.963700 -30.828800
H -12.875100 -18.171600 -33.610200
H -12.824900 -17.639000 -36.438900
62
Fragment
N -23.259100 -14.015500 -18.976700
C -22.659300 -14.388700 -19.888100
N -22.488400 -17.008400 -22.230900
C -22.235600 -16.033800 -21.667300
C -21.897800 -14.823400 -21.008400
C -20.851800 -14.037700 -21.493400
H -20.606200 -14.855800 -23.215300
N -20.374900 -13.009200 -20.774100
N -20.269200 -14.238100 -22.688300
H -20.236300 -13.156200 -19.920400
N -19.443200 -12.188900 -21.485500
H -19.133600 -11.514500 -21.029200
N -18.887600 -13.981200 -22.863000
C -18.537900 -12.925400 -22.217700
N -17.236900 -12.444700 -22.309100
H -17.036800 -13.678000 -24.761900
N -16.877500 -11.410300 -21.466100
H -16.473800 -14.719400 -23.796500
C -16.298400 -13.863400 -24.178900
C -16.215700 -12.780600 -23.166200
C -15.635700 -11.118600 -21.792300
H -15.495900 -13.861500 -24.667400
H -15.385800 -9.563300 -20.421300
C -15.194300 -11.948600 -22.846400
C -14.894700 -10.045900 -21.074100
H -14.596600 -9.363200 -21.577300
H -14.344900 -11.927100 -23.187000
H -14.187600 -10.430500 -20.758300
N -18.383600 -9.356400 -32.042300
H -17.819500 -10.197200 -28.814400
C -17.776300 -10.234400 -31.628300
N -17.318800 -10.941900 -28.702600
H -17.183100 -11.261000 -27.893000
C -17.039900 -11.316100 -31.101700
C -16.851900 -11.626100 -29.735900
C -16.417300 -12.321800 -31.852700
N -16.318200 -12.474200 -33.169700
C -16.039600 -12.820500 -29.666600
N -15.832900 -13.225200 -30.964200
O -15.671000 -12.788600 -27.401800
N -15.642200 -13.532600 -33.621700
C -15.422000 -13.359800 -28.457300
N -15.162700 -14.309200 -31.393700
C -15.116800 -14.389000 -32.725500
H -14.895700 -15.311000 -28.845900
C -14.486300 -14.514700 -28.506900
N -14.482500 -15.606600 -34.651800
N -14.455300 -15.484400 -33.267500
H -14.371200 -16.755900 -30.713800
H -14.284900 -17.901800 -36.495600
H -14.155800 -14.691800 -27.592200
C -13.827600 -16.730400 -34.893400
C -13.778700 -16.540800 -32.671200
H -13.709200 -14.289100 -29.167200
C -13.666900 -17.218900 -36.300000
H -13.559300 -16.532100 -37.016900
C -13.557500 -16.715500 -31.206500
C -13.382200 -17.340900 -33.700800
H -13.074900 -17.580100 -31.044600
H -13.001300 -15.963700 -30.828800
H -12.875100 -18.171600 -33.610200
H -12.824900 -17.639000 -36.438900
