28
Fragment
N -23.259100 -14.015500 -18.976700
C -22.659300 -14.388700 -19.888100
N -22.488400 -17.008400 -22.230900
C -22.235600 -16.033800 -21.667300
C -21.897800 -14.823400 -21.008400
C -20.851800 -14.037700 -21.493400
H -20.606200 -14.855800 -23.215300
N -20.374900 -13.009200 -20.774100
N -20.269200 -14.238100 -22.688300
H -20.236300 -13.156200 -19.920400
N -19.443200 -12.188900 -21.485500
H -19.133600 -11.514500 -21.029200
N -18.887600 -13.981200 -22.863000
C -18.537900 -12.925400 -22.217700
N -17.236900 -12.444700 -22.309100
H -17.036800 -13.678000 -24.761900
N -16.877500 -11.410300 -21.466100
H -16.473800 -14.719400 -23.796500
C -16.298400 -13.863400 -24.178900
C -16.215700 -12.780600 -23.166200
C -15.635700 -11.118600 -21.792300
H -15.495900 -13.861500 -24.667400
H -15.385800 -9.563300 -20.421300
C -15.194300 -11.948600 -22.846400
C -14.894700 -10.045900 -21.074100
H -14.596600 -9.363200 -21.577300
H -14.344900 -11.927100 -23.187000
H -14.187600 -10.430500 -20.758300
28
Fragment
N -15.583100 -14.015500 -18.976700
C -14.983300 -14.388700 -19.888100
N -14.812400 -17.008400 -22.230900
C -14.559600 -16.033800 -21.667300
C -14.221800 -14.823400 -21.008400
C -13.175800 -14.037700 -21.493400
H -12.930200 -14.855800 -23.215300
N -12.698900 -13.009200 -20.774100
N -12.593200 -14.238100 -22.688300
H -12.560300 -13.156200 -19.920400
N -11.767200 -12.188900 -21.485500
H -11.457600 -11.514500 -21.029200
N -11.211600 -13.981200 -22.863000
C -10.861900 -12.925400 -22.217700
N -9.560900 -12.444700 -22.309100
H -9.360800 -13.678000 -24.761900
N -9.201500 -11.410300 -21.466100
H -8.797800 -14.719400 -23.796500
C -8.622400 -13.863400 -24.178900
C -8.539700 -12.780600 -23.166200
C -7.959700 -11.118600 -21.792300
H -7.819900 -13.861500 -24.667400
H -7.709800 -9.563300 -20.421300
C -7.518300 -11.948600 -22.846400
C -7.218700 -10.045900 -21.074100
H -6.920600 -9.363200 -21.577300
H -6.668900 -11.927100 -23.187000
H -6.511600 -10.430500 -20.758300
56
Fragment
N -23.259100 -14.015500 -18.976700
C -22.659300 -14.388700 -19.888100
N -22.488400 -17.008400 -22.230900
C -22.235600 -16.033800 -21.667300
C -21.897800 -14.823400 -21.008400
C -20.851800 -14.037700 -21.493400
H -20.606200 -14.855800 -23.215300
N -20.374900 -13.009200 -20.774100
N -20.269200 -14.238100 -22.688300
H -20.236300 -13.156200 -19.920400
N -19.443200 -12.188900 -21.485500
H -19.133600 -11.514500 -21.029200
N -18.887600 -13.981200 -22.863000
C -18.537900 -12.925400 -22.217700
N -17.236900 -12.444700 -22.309100
H -17.036800 -13.678000 -24.761900
N -16.877500 -11.410300 -21.466100
H -16.473800 -14.719400 -23.796500
C -16.298400 -13.863400 -24.178900
C -16.215700 -12.780600 -23.166200
C -15.635700 -11.118600 -21.792300
H -15.495900 -13.861500 -24.667400
H -15.385800 -9.563300 -20.421300
C -15.194300 -11.948600 -22.846400
C -14.894700 -10.045900 -21.074100
H -14.596600 -9.363200 -21.577300
H -14.344900 -11.927100 -23.187000
H -14.187600 -10.430500 -20.758300
N -15.583100 -14.015500 -18.976700
C -14.983300 -14.388700 -19.888100
N -14.812400 -17.008400 -22.230900
C -14.559600 -16.033800 -21.667300
C -14.221800 -14.823400 -21.008400
C -13.175800 -14.037700 -21.493400
H -12.930200 -14.855800 -23.215300
N -12.698900 -13.009200 -20.774100
N -12.593200 -14.238100 -22.688300
H -12.560300 -13.156200 -19.920400
N -11.767200 -12.188900 -21.485500
H -11.457600 -11.514500 -21.029200
N -11.211600 -13.981200 -22.863000
C -10.861900 -12.925400 -22.217700
N -9.560900 -12.444700 -22.309100
H -9.360800 -13.678000 -24.761900
N -9.201500 -11.410300 -21.466100
H -8.797800 -14.719400 -23.796500
C -8.622400 -13.863400 -24.178900
C -8.539700 -12.780600 -23.166200
C -7.959700 -11.118600 -21.792300
H -7.819900 -13.861500 -24.667400
H -7.709800 -9.563300 -20.421300
C -7.518300 -11.948600 -22.846400
C -7.218700 -10.045900 -21.074100
H -6.920600 -9.363200 -21.577300
H -6.668900 -11.927100 -23.187000
H -6.511600 -10.430500 -20.758300
