28
Fragment
N -23.259100 -14.015500 -18.976700
C -22.659300 -14.388700 -19.888100
N -22.488400 -17.008400 -22.230900
C -22.235600 -16.033800 -21.667300
C -21.897800 -14.823400 -21.008400
C -20.851800 -14.037700 -21.493400
H -20.606200 -14.855800 -23.215300
N -20.374900 -13.009200 -20.774100
N -20.269200 -14.238100 -22.688300
H -20.236300 -13.156200 -19.920400
N -19.443200 -12.188900 -21.485500
H -19.133600 -11.514500 -21.029200
N -18.887600 -13.981200 -22.863000
C -18.537900 -12.925400 -22.217700
N -17.236900 -12.444700 -22.309100
H -17.036800 -13.678000 -24.761900
N -16.877500 -11.410300 -21.466100
H -16.473800 -14.719400 -23.796500
C -16.298400 -13.863400 -24.178900
C -16.215700 -12.780600 -23.166200
C -15.635700 -11.118600 -21.792300
H -15.495900 -13.861500 -24.667400
H -15.385800 -9.563300 -20.421300
C -15.194300 -11.948600 -22.846400
C -14.894700 -10.045900 -21.074100
H -14.596600 -9.363200 -21.577300
H -14.344900 -11.927100 -23.187000
H -14.187600 -10.430500 -20.758300
34
Fragment
H -21.795300 -4.859700 -10.810700
H -21.745100 -4.327100 -13.639400
H -21.618900 -6.535000 -16.420800
H -21.545300 -4.918600 -16.205000
C -21.238000 -5.157800 -13.548800
C -21.062700 -5.783200 -16.043100
H -21.061000 -5.966700 -10.232700
C -20.953300 -5.279800 -10.949600
H -20.911000 -8.209600 -18.082400
C -20.841500 -5.957900 -14.578400
C -20.792600 -5.768300 -12.356200
H -20.464400 -7.806900 -19.657400
H -20.335300 -4.596900 -10.754000
H -20.249100 -5.742800 -16.535800
N -20.164900 -7.014400 -13.982100
N -20.137700 -6.892100 -12.597800
C -20.133900 -7.984000 -18.742700
H -19.724500 -7.187700 -18.403700
C -19.503400 -8.109700 -14.524100
N -19.457500 -8.189500 -15.855900
C -19.198200 -9.138900 -18.792300
N -18.978000 -8.966100 -13.627900
O -18.949200 -9.710100 -19.847800
N -18.787300 -9.273500 -16.285400
C -18.580600 -9.678300 -17.583000
N -18.302000 -10.024500 -14.079900
C -18.202900 -10.176900 -15.396900
C -17.768300 -10.872700 -17.513700
C -17.580300 -11.182600 -16.147900
H -17.437100 -11.237700 -19.356600
N -17.301400 -11.556800 -18.547000
C -16.843900 -12.264400 -15.621300
H -16.800700 -12.301500 -18.435200
N -16.236600 -13.142300 -15.207300
62
Fragment
N -23.259100 -14.015500 -18.976700
C -22.659300 -14.388700 -19.888100
N -22.488400 -17.008400 -22.230900
C -22.235600 -16.033800 -21.667300
C -21.897800 -14.823400 -21.008400
C -20.851800 -14.037700 -21.493400
H -20.606200 -14.855800 -23.215300
N -20.374900 -13.009200 -20.774100
N -20.269200 -14.238100 -22.688300
H -20.236300 -13.156200 -19.920400
N -19.443200 -12.188900 -21.485500
H -19.133600 -11.514500 -21.029200
N -18.887600 -13.981200 -22.863000
C -18.537900 -12.925400 -22.217700
N -17.236900 -12.444700 -22.309100
H -17.036800 -13.678000 -24.761900
N -16.877500 -11.410300 -21.466100
H -16.473800 -14.719400 -23.796500
C -16.298400 -13.863400 -24.178900
C -16.215700 -12.780600 -23.166200
C -15.635700 -11.118600 -21.792300
H -15.495900 -13.861500 -24.667400
H -15.385800 -9.563300 -20.421300
C -15.194300 -11.948600 -22.846400
C -14.894700 -10.045900 -21.074100
H -14.596600 -9.363200 -21.577300
H -14.344900 -11.927100 -23.187000
H -14.187600 -10.430500 -20.758300
H -21.795300 -4.859700 -10.810700
H -21.745100 -4.327100 -13.639400
H -21.618900 -6.535000 -16.420800
H -21.545300 -4.918600 -16.205000
C -21.238000 -5.157800 -13.548800
C -21.062700 -5.783200 -16.043100
H -21.061000 -5.966700 -10.232700
C -20.953300 -5.279800 -10.949600
H -20.911000 -8.209600 -18.082400
C -20.841500 -5.957900 -14.578400
C -20.792600 -5.768300 -12.356200
H -20.464400 -7.806900 -19.657400
H -20.335300 -4.596900 -10.754000
H -20.249100 -5.742800 -16.535800
N -20.164900 -7.014400 -13.982100
N -20.137700 -6.892100 -12.597800
C -20.133900 -7.984000 -18.742700
H -19.724500 -7.187700 -18.403700
C -19.503400 -8.109700 -14.524100
N -19.457500 -8.189500 -15.855900
C -19.198200 -9.138900 -18.792300
N -18.978000 -8.966100 -13.627900
O -18.949200 -9.710100 -19.847800
N -18.787300 -9.273500 -16.285400
C -18.580600 -9.678300 -17.583000
N -18.302000 -10.024500 -14.079900
C -18.202900 -10.176900 -15.396900
C -17.768300 -10.872700 -17.513700
C -17.580300 -11.182600 -16.147900
H -17.437100 -11.237700 -19.356600
N -17.301400 -11.556800 -18.547000
C -16.843900 -12.264400 -15.621300
H -16.800700 -12.301500 -18.435200
N -16.236600 -13.142300 -15.207300
