28
Fragment
N -23.259100 -14.015500 -18.976700
C -22.659300 -14.388700 -19.888100
N -22.488400 -17.008400 -22.230900
C -22.235600 -16.033800 -21.667300
C -21.897800 -14.823400 -21.008400
C -20.851800 -14.037700 -21.493400
H -20.606200 -14.855800 -23.215300
N -20.374900 -13.009200 -20.774100
N -20.269200 -14.238100 -22.688300
H -20.236300 -13.156200 -19.920400
N -19.443200 -12.188900 -21.485500
H -19.133600 -11.514500 -21.029200
N -18.887600 -13.981200 -22.863000
C -18.537900 -12.925400 -22.217700
N -17.236900 -12.444700 -22.309100
H -17.036800 -13.678000 -24.761900
N -16.877500 -11.410300 -21.466100
H -16.473800 -14.719400 -23.796500
C -16.298400 -13.863400 -24.178900
C -16.215700 -12.780600 -23.166200
C -15.635700 -11.118600 -21.792300
H -15.495900 -13.861500 -24.667400
H -15.385800 -9.563300 -20.421300
C -15.194300 -11.948600 -22.846400
C -14.894700 -10.045900 -21.074100
H -14.596600 -9.363200 -21.577300
H -14.344900 -11.927100 -23.187000
H -14.187600 -10.430500 -20.758300
28
Fragment
N -30.935100 -14.015500 -18.976700
C -30.335300 -14.388700 -19.888100
N -30.164400 -17.008400 -22.230900
C -29.911600 -16.033800 -21.667300
C -29.573800 -14.823400 -21.008400
C -28.527800 -14.037700 -21.493400
H -28.282200 -14.855800 -23.215300
N -28.050900 -13.009200 -20.774100
N -27.945200 -14.238100 -22.688300
H -27.912300 -13.156200 -19.920400
N -27.119200 -12.188900 -21.485500
H -26.809600 -11.514500 -21.029200
N -26.563600 -13.981200 -22.863000
C -26.213900 -12.925400 -22.217700
N -24.912900 -12.444700 -22.309100
H -24.712800 -13.678000 -24.761900
N -24.553500 -11.410300 -21.466100
H -24.149800 -14.719400 -23.796500
C -23.974400 -13.863400 -24.178900
C -23.891700 -12.780600 -23.166200
C -23.311700 -11.118600 -21.792300
H -23.171900 -13.861500 -24.667400
H -23.061800 -9.563300 -20.421300
C -22.870300 -11.948600 -22.846400
C -22.570700 -10.045900 -21.074100
H -22.272600 -9.363200 -21.577300
H -22.020900 -11.927100 -23.187000
H -21.863600 -10.430500 -20.758300
56
Fragment
N -23.259100 -14.015500 -18.976700
C -22.659300 -14.388700 -19.888100
N -22.488400 -17.008400 -22.230900
C -22.235600 -16.033800 -21.667300
C -21.897800 -14.823400 -21.008400
C -20.851800 -14.037700 -21.493400
H -20.606200 -14.855800 -23.215300
N -20.374900 -13.009200 -20.774100
N -20.269200 -14.238100 -22.688300
H -20.236300 -13.156200 -19.920400
N -19.443200 -12.188900 -21.485500
H -19.133600 -11.514500 -21.029200
N -18.887600 -13.981200 -22.863000
C -18.537900 -12.925400 -22.217700
N -17.236900 -12.444700 -22.309100
H -17.036800 -13.678000 -24.761900
N -16.877500 -11.410300 -21.466100
H -16.473800 -14.719400 -23.796500
C -16.298400 -13.863400 -24.178900
C -16.215700 -12.780600 -23.166200
C -15.635700 -11.118600 -21.792300
H -15.495900 -13.861500 -24.667400
H -15.385800 -9.563300 -20.421300
C -15.194300 -11.948600 -22.846400
C -14.894700 -10.045900 -21.074100
H -14.596600 -9.363200 -21.577300
H -14.344900 -11.927100 -23.187000
H -14.187600 -10.430500 -20.758300
N -30.935100 -14.015500 -18.976700
C -30.335300 -14.388700 -19.888100
N -30.164400 -17.008400 -22.230900
C -29.911600 -16.033800 -21.667300
C -29.573800 -14.823400 -21.008400
C -28.527800 -14.037700 -21.493400
H -28.282200 -14.855800 -23.215300
N -28.050900 -13.009200 -20.774100
N -27.945200 -14.238100 -22.688300
H -27.912300 -13.156200 -19.920400
N -27.119200 -12.188900 -21.485500
H -26.809600 -11.514500 -21.029200
N -26.563600 -13.981200 -22.863000
C -26.213900 -12.925400 -22.217700
N -24.912900 -12.444700 -22.309100
H -24.712800 -13.678000 -24.761900
N -24.553500 -11.410300 -21.466100
H -24.149800 -14.719400 -23.796500
C -23.974400 -13.863400 -24.178900
C -23.891700 -12.780600 -23.166200
C -23.311700 -11.118600 -21.792300
H -23.171900 -13.861500 -24.667400
H -23.061800 -9.563300 -20.421300
C -22.870300 -11.948600 -22.846400
C -22.570700 -10.045900 -21.074100
H -22.272600 -9.363200 -21.577300
H -22.020900 -11.927100 -23.187000
H -21.863600 -10.430500 -20.758300
