28
Fragment
N -23.259100 -14.015500 -18.976700
C -22.659300 -14.388700 -19.888100
N -22.488400 -17.008400 -22.230900
C -22.235600 -16.033800 -21.667300
C -21.897800 -14.823400 -21.008400
C -20.851800 -14.037700 -21.493400
H -20.606200 -14.855800 -23.215300
N -20.374900 -13.009200 -20.774100
N -20.269200 -14.238100 -22.688300
H -20.236300 -13.156200 -19.920400
N -19.443200 -12.188900 -21.485500
H -19.133600 -11.514500 -21.029200
N -18.887600 -13.981200 -22.863000
C -18.537900 -12.925400 -22.217700
N -17.236900 -12.444700 -22.309100
H -17.036800 -13.678000 -24.761900
N -16.877500 -11.410300 -21.466100
H -16.473800 -14.719400 -23.796500
C -16.298400 -13.863400 -24.178900
C -16.215700 -12.780600 -23.166200
C -15.635700 -11.118600 -21.792300
H -15.495900 -13.861500 -24.667400
H -15.385800 -9.563300 -20.421300
C -15.194300 -11.948600 -22.846400
C -14.894700 -10.045900 -21.074100
H -14.596600 -9.363200 -21.577300
H -14.344900 -11.927100 -23.187000
H -14.187600 -10.430500 -20.758300
28
Fragment
H -29.256700 -22.502300 -26.491300
H -29.099300 -21.005700 -24.062600
H -28.847700 -23.569600 -25.672300
C -28.549500 -22.886800 -26.175500
C -28.250000 -20.984100 -24.403200
H -28.058500 -23.369500 -26.828300
H -27.948400 -19.071200 -22.582200
C -27.808600 -21.814100 -25.457300
C -27.228600 -20.152200 -24.083400
C -27.145900 -19.069300 -23.070700
H -26.970400 -18.213400 -23.453100
N -26.566700 -21.522500 -25.783500
H -26.407500 -19.254800 -22.487700
N -26.207400 -20.488100 -24.940500
C -24.906300 -20.007300 -25.031900
N -24.556700 -18.951500 -24.386600
H -24.310700 -21.418200 -26.220400
N -24.001100 -20.743900 -25.764100
H -23.207900 -19.776600 -27.329200
N -23.175000 -18.694600 -24.561300
N -23.069400 -19.923600 -26.475500
H -22.838100 -18.076900 -24.034300
C -22.592500 -18.895000 -25.756200
C -21.546500 -18.109400 -26.241200
C -21.208700 -16.898900 -25.582400
N -20.955800 -15.924300 -25.018700
C -20.785000 -18.544100 -27.361500
N -20.185200 -18.917300 -28.272900
56
Fragment
N -23.259100 -14.015500 -18.976700
C -22.659300 -14.388700 -19.888100
N -22.488400 -17.008400 -22.230900
C -22.235600 -16.033800 -21.667300
C -21.897800 -14.823400 -21.008400
C -20.851800 -14.037700 -21.493400
H -20.606200 -14.855800 -23.215300
N -20.374900 -13.009200 -20.774100
N -20.269200 -14.238100 -22.688300
H -20.236300 -13.156200 -19.920400
N -19.443200 -12.188900 -21.485500
H -19.133600 -11.514500 -21.029200
N -18.887600 -13.981200 -22.863000
C -18.537900 -12.925400 -22.217700
N -17.236900 -12.444700 -22.309100
H -17.036800 -13.678000 -24.761900
N -16.877500 -11.410300 -21.466100
H -16.473800 -14.719400 -23.796500
C -16.298400 -13.863400 -24.178900
C -16.215700 -12.780600 -23.166200
C -15.635700 -11.118600 -21.792300
H -15.495900 -13.861500 -24.667400
H -15.385800 -9.563300 -20.421300
C -15.194300 -11.948600 -22.846400
C -14.894700 -10.045900 -21.074100
H -14.596600 -9.363200 -21.577300
H -14.344900 -11.927100 -23.187000
H -14.187600 -10.430500 -20.758300
H -29.256700 -22.502300 -26.491300
H -29.099300 -21.005700 -24.062600
H -28.847700 -23.569600 -25.672300
C -28.549500 -22.886800 -26.175500
C -28.250000 -20.984100 -24.403200
H -28.058500 -23.369500 -26.828300
H -27.948400 -19.071200 -22.582200
C -27.808600 -21.814100 -25.457300
C -27.228600 -20.152200 -24.083400
C -27.145900 -19.069300 -23.070700
H -26.970400 -18.213400 -23.453100
N -26.566700 -21.522500 -25.783500
H -26.407500 -19.254800 -22.487700
N -26.207400 -20.488100 -24.940500
C -24.906300 -20.007300 -25.031900
N -24.556700 -18.951500 -24.386600
H -24.310700 -21.418200 -26.220400
N -24.001100 -20.743900 -25.764100
H -23.207900 -19.776600 -27.329200
N -23.175000 -18.694600 -24.561300
N -23.069400 -19.923600 -26.475500
H -22.838100 -18.076900 -24.034300
C -22.592500 -18.895000 -25.756200
C -21.546500 -18.109400 -26.241200
C -21.208700 -16.898900 -25.582400
N -20.955800 -15.924300 -25.018700
C -20.785000 -18.544100 -27.361500
N -20.185200 -18.917300 -28.272900
