24
Fragment
H -24.458400 -11.395600 -15.104500
O -24.073100 -11.858200 -14.547700
C -23.198100 -12.585000 -15.129900
O -23.073000 -12.637900 -16.377200
H -22.480400 -13.361100 -13.345100
C -22.333000 -13.375800 -14.263300
H -21.443300 -15.713200 -10.112700
C -21.341100 -14.117300 -14.744300
H -21.210800 -14.072400 -15.664100
H -21.129600 -14.686600 -12.131400
C -20.539900 -15.520900 -9.852600
C -20.507500 -15.169500 -12.626000
C -20.430700 -14.991100 -14.016900
H -20.418100 -15.745400 -8.927200
H -20.361500 -14.586300 -9.981200
C -19.667900 -16.054300 -11.991400
O -19.640200 -16.291000 -10.651300
C -19.471600 -15.705500 -14.726500
H -19.380500 -15.564500 -15.641300
C -18.750400 -16.816700 -12.736300
C -18.652100 -16.620400 -14.095500
H -18.063700 -17.739200 -11.358200
H -18.032700 -17.106400 -14.590400
O -17.948900 -17.738800 -12.170100
24
Fragment
O -27.317200 -12.696300 -9.480700
H -27.233400 -13.328700 -7.060400
H -27.202400 -12.695900 -10.292600
C -26.614000 -13.814700 -7.555300
C -26.515700 -13.618300 -8.914500
H -25.885600 -14.870600 -6.009500
C -25.794500 -14.729600 -6.924200
O -25.626000 -14.144100 -10.999500
C -25.598200 -14.380700 -9.659400
H -24.904600 -15.848800 -11.669600
H -24.848100 -14.689700 -12.723600
C -24.835500 -15.444000 -7.633900
C -24.758600 -15.265600 -9.024800
C -24.726300 -14.914200 -11.798200
H -24.136500 -15.748500 -9.519400
H -24.055300 -16.362700 -5.986700
C -23.925000 -16.317800 -6.906500
H -23.822800 -14.721900 -11.538100
C -22.933100 -17.059300 -7.387500
H -22.785700 -17.074000 -8.305700
O -22.193100 -17.797200 -5.273600
C -22.068100 -17.850100 -6.520900
O -21.193000 -18.576900 -7.103100
H -20.807700 -19.039500 -6.546300
48
Fragment
H -24.458400 -11.395600 -15.104500
O -24.073100 -11.858200 -14.547700
C -23.198100 -12.585000 -15.129900
O -23.073000 -12.637900 -16.377200
H -22.480400 -13.361100 -13.345100
C -22.333000 -13.375800 -14.263300
H -21.443300 -15.713200 -10.112700
C -21.341100 -14.117300 -14.744300
H -21.210800 -14.072400 -15.664100
H -21.129600 -14.686600 -12.131400
C -20.539900 -15.520900 -9.852600
C -20.507500 -15.169500 -12.626000
C -20.430700 -14.991100 -14.016900
H -20.418100 -15.745400 -8.927200
H -20.361500 -14.586300 -9.981200
C -19.667900 -16.054300 -11.991400
O -19.640200 -16.291000 -10.651300
C -19.471600 -15.705500 -14.726500
H -19.380500 -15.564500 -15.641300
C -18.750400 -16.816700 -12.736300
C -18.652100 -16.620400 -14.095500
H -18.063700 -17.739200 -11.358200
H -18.032700 -17.106400 -14.590400
O -17.948900 -17.738800 -12.170100
O -27.317200 -12.696300 -9.480700
H -27.233400 -13.328700 -7.060400
H -27.202400 -12.695900 -10.292600
C -26.614000 -13.814700 -7.555300
C -26.515700 -13.618300 -8.914500
H -25.885600 -14.870600 -6.009500
C -25.794500 -14.729600 -6.924200
O -25.626000 -14.144100 -10.999500
C -25.598200 -14.380700 -9.659400
H -24.904600 -15.848800 -11.669600
H -24.848100 -14.689700 -12.723600
C -24.835500 -15.444000 -7.633900
C -24.758600 -15.265600 -9.024800
C -24.726300 -14.914200 -11.798200
H -24.136500 -15.748500 -9.519400
H -24.055300 -16.362700 -5.986700
C -23.925000 -16.317800 -6.906500
H -23.822800 -14.721900 -11.538100
C -22.933100 -17.059300 -7.387500
H -22.785700 -17.074000 -8.305700
O -22.193100 -17.797200 -5.273600
C -22.068100 -17.850100 -6.520900
O -21.193000 -18.576900 -7.103100
H -20.807700 -19.039500 -6.546300
