24
Fragment
H -24.458400 -11.395600 -15.104500
O -24.073100 -11.858200 -14.547700
C -23.198100 -12.585000 -15.129900
O -23.073000 -12.637900 -16.377200
H -22.480400 -13.361100 -13.345100
C -22.333000 -13.375800 -14.263300
H -21.443300 -15.713200 -10.112700
C -21.341100 -14.117300 -14.744300
H -21.210800 -14.072400 -15.664100
H -21.129600 -14.686600 -12.131400
C -20.539900 -15.520900 -9.852600
C -20.507500 -15.169500 -12.626000
C -20.430700 -14.991100 -14.016900
H -20.418100 -15.745400 -8.927200
H -20.361500 -14.586300 -9.981200
C -19.667900 -16.054300 -11.991400
O -19.640200 -16.291000 -10.651300
C -19.471600 -15.705500 -14.726500
H -19.380500 -15.564500 -15.641300
C -18.750400 -16.816700 -12.736300
C -18.652100 -16.620400 -14.095500
H -18.063700 -17.739200 -11.358200
H -18.032700 -17.106400 -14.590400
O -17.948900 -17.738800 -12.170100
24
Fragment
O -30.703000 -5.262300 -20.306100
H -30.619200 -5.894700 -17.885800
H -30.588100 -5.261900 -21.118000
C -29.999700 -6.380700 -18.380700
C -29.901400 -6.184300 -19.739900
H -29.271400 -7.436500 -16.834900
C -29.180200 -7.295600 -17.749600
O -29.011700 -6.710100 -21.824900
C -28.983900 -6.946700 -20.484800
H -28.290400 -8.414800 -22.495000
H -28.233800 -7.255700 -23.549000
C -28.221200 -8.010000 -18.459200
C -28.144300 -7.831500 -19.850200
C -28.112000 -7.480200 -22.623600
H -27.522200 -8.314500 -20.344800
H -27.441100 -8.928700 -16.812100
C -27.310800 -8.883800 -17.731900
H -27.208600 -7.287900 -22.363500
C -26.318900 -9.625200 -18.212900
H -26.171400 -9.640000 -19.131100
O -25.578900 -10.363200 -16.099000
C -25.453800 -10.416000 -17.346300
O -24.578800 -11.142800 -17.928500
H -24.193500 -11.605500 -17.371700
48
Fragment
H -24.458400 -11.395600 -15.104500
O -24.073100 -11.858200 -14.547700
C -23.198100 -12.585000 -15.129900
O -23.073000 -12.637900 -16.377200
H -22.480400 -13.361100 -13.345100
C -22.333000 -13.375800 -14.263300
H -21.443300 -15.713200 -10.112700
C -21.341100 -14.117300 -14.744300
H -21.210800 -14.072400 -15.664100
H -21.129600 -14.686600 -12.131400
C -20.539900 -15.520900 -9.852600
C -20.507500 -15.169500 -12.626000
C -20.430700 -14.991100 -14.016900
H -20.418100 -15.745400 -8.927200
H -20.361500 -14.586300 -9.981200
C -19.667900 -16.054300 -11.991400
O -19.640200 -16.291000 -10.651300
C -19.471600 -15.705500 -14.726500
H -19.380500 -15.564500 -15.641300
C -18.750400 -16.816700 -12.736300
C -18.652100 -16.620400 -14.095500
H -18.063700 -17.739200 -11.358200
H -18.032700 -17.106400 -14.590400
O -17.948900 -17.738800 -12.170100
O -30.703000 -5.262300 -20.306100
H -30.619200 -5.894700 -17.885800
H -30.588100 -5.261900 -21.118000
C -29.999700 -6.380700 -18.380700
C -29.901400 -6.184300 -19.739900
H -29.271400 -7.436500 -16.834900
C -29.180200 -7.295600 -17.749600
O -29.011700 -6.710100 -21.824900
C -28.983900 -6.946700 -20.484800
H -28.290400 -8.414800 -22.495000
H -28.233800 -7.255700 -23.549000
C -28.221200 -8.010000 -18.459200
C -28.144300 -7.831500 -19.850200
C -28.112000 -7.480200 -22.623600
H -27.522200 -8.314500 -20.344800
H -27.441100 -8.928700 -16.812100
C -27.310800 -8.883800 -17.731900
H -27.208600 -7.287900 -22.363500
C -26.318900 -9.625200 -18.212900
H -26.171400 -9.640000 -19.131100
O -25.578900 -10.363200 -16.099000
C -25.453800 -10.416000 -17.346300
O -24.578800 -11.142800 -17.928500
H -24.193500 -11.605500 -17.371700
