24
Fragment
H -24.458400 -11.395600 -15.104500
O -24.073100 -11.858200 -14.547700
C -23.198100 -12.585000 -15.129900
O -23.073000 -12.637900 -16.377200
H -22.480400 -13.361100 -13.345100
C -22.333000 -13.375800 -14.263300
H -21.443300 -15.713200 -10.112700
C -21.341100 -14.117300 -14.744300
H -21.210800 -14.072400 -15.664100
H -21.129600 -14.686600 -12.131400
C -20.539900 -15.520900 -9.852600
C -20.507500 -15.169500 -12.626000
C -20.430700 -14.991100 -14.016900
H -20.418100 -15.745400 -8.927200
H -20.361500 -14.586300 -9.981200
C -19.667900 -16.054300 -11.991400
O -19.640200 -16.291000 -10.651300
C -19.471600 -15.705500 -14.726500
H -19.380500 -15.564500 -15.641300
C -18.750400 -16.816700 -12.736300
C -18.652100 -16.620400 -14.095500
H -18.063700 -17.739200 -11.358200
H -18.032700 -17.106400 -14.590400
O -17.948900 -17.738800 -12.170100
21
Fragment
H -15.468800 -17.580500 -13.638700
H -14.744500 -17.555200 -15.028800
C -14.638400 -17.404600 -14.086700
H -14.379500 -16.492800 -13.935300
O -14.094300 -17.522600 -11.477200
N -13.603200 -18.298600 -13.563700
C -13.440600 -18.274800 -12.171900
O -13.128900 -19.034000 -15.673100
H -13.127800 -18.815900 -9.767000
C -12.897500 -19.091000 -14.465100
N -12.537700 -19.167400 -11.639400
C -12.370100 -19.223100 -10.193000
H -12.299900 -20.138900 -9.913900
C -11.959400 -19.927700 -13.824900
C -11.820200 -19.982500 -12.469100
H -11.571600 -18.751100 -9.945000
N -11.098300 -20.878100 -14.314900
H -11.007500 -21.137100 -15.163800
N -10.916700 -20.930700 -12.098200
C -10.519000 -21.437300 -13.256300
H -9.892200 -22.121300 -13.322900
45
Fragment
H -24.458400 -11.395600 -15.104500
O -24.073100 -11.858200 -14.547700
C -23.198100 -12.585000 -15.129900
O -23.073000 -12.637900 -16.377200
H -22.480400 -13.361100 -13.345100
C -22.333000 -13.375800 -14.263300
H -21.443300 -15.713200 -10.112700
C -21.341100 -14.117300 -14.744300
H -21.210800 -14.072400 -15.664100
H -21.129600 -14.686600 -12.131400
C -20.539900 -15.520900 -9.852600
C -20.507500 -15.169500 -12.626000
C -20.430700 -14.991100 -14.016900
H -20.418100 -15.745400 -8.927200
H -20.361500 -14.586300 -9.981200
C -19.667900 -16.054300 -11.991400
O -19.640200 -16.291000 -10.651300
C -19.471600 -15.705500 -14.726500
H -19.380500 -15.564500 -15.641300
C -18.750400 -16.816700 -12.736300
C -18.652100 -16.620400 -14.095500
H -18.063700 -17.739200 -11.358200
H -18.032700 -17.106400 -14.590400
O -17.948900 -17.738800 -12.170100
H -15.468800 -17.580500 -13.638700
H -14.744500 -17.555200 -15.028800
C -14.638400 -17.404600 -14.086700
H -14.379500 -16.492800 -13.935300
O -14.094300 -17.522600 -11.477200
N -13.603200 -18.298600 -13.563700
C -13.440600 -18.274800 -12.171900
O -13.128900 -19.034000 -15.673100
H -13.127800 -18.815900 -9.767000
C -12.897500 -19.091000 -14.465100
N -12.537700 -19.167400 -11.639400
C -12.370100 -19.223100 -10.193000
H -12.299900 -20.138900 -9.913900
C -11.959400 -19.927700 -13.824900
C -11.820200 -19.982500 -12.469100
H -11.571600 -18.751100 -9.945000
N -11.098300 -20.878100 -14.314900
H -11.007500 -21.137100 -15.163800
N -10.916700 -20.930700 -12.098200
C -10.519000 -21.437300 -13.256300
H -9.892200 -22.121300 -13.322900
