24
Fragment
H -24.458400 -11.395600 -15.104500
O -24.073100 -11.858200 -14.547700
C -23.198100 -12.585000 -15.129900
O -23.073000 -12.637900 -16.377200
H -22.480400 -13.361100 -13.345100
C -22.333000 -13.375800 -14.263300
H -21.443300 -15.713200 -10.112700
C -21.341100 -14.117300 -14.744300
H -21.210800 -14.072400 -15.664100
H -21.129600 -14.686600 -12.131400
C -20.539900 -15.520900 -9.852600
C -20.507500 -15.169500 -12.626000
C -20.430700 -14.991100 -14.016900
H -20.418100 -15.745400 -8.927200
H -20.361500 -14.586300 -9.981200
C -19.667900 -16.054300 -11.991400
O -19.640200 -16.291000 -10.651300
C -19.471600 -15.705500 -14.726500
H -19.380500 -15.564500 -15.641300
C -18.750400 -16.816700 -12.736300
C -18.652100 -16.620400 -14.095500
H -18.063700 -17.739200 -11.358200
H -18.032700 -17.106400 -14.590400
O -17.948900 -17.738800 -12.170100
24
Fragment
O -22.685500 -14.322900 -20.306100
H -22.601800 -14.955300 -17.885800
H -22.570700 -14.322500 -21.118000
C -21.982300 -15.441300 -18.380700
C -21.884000 -15.244900 -19.739900
H -21.254000 -16.497200 -16.834900
C -21.162800 -16.356200 -17.749600
O -20.994300 -15.770700 -21.824900
C -20.966500 -16.007300 -20.484800
H -20.273000 -17.475400 -22.495000
H -20.216400 -16.316300 -23.549000
C -20.203800 -17.070600 -18.459200
C -20.126900 -16.892200 -19.850200
C -20.094600 -16.540800 -22.623600
H -19.504800 -17.375100 -20.344800
H -19.423700 -17.989300 -16.812100
C -19.293300 -17.944400 -17.731900
H -19.191200 -16.348500 -22.363500
C -18.301500 -18.685900 -18.212900
H -18.154000 -18.700600 -19.131100
O -17.561500 -19.423800 -16.099000
C -17.436400 -19.476700 -17.346300
O -16.561400 -20.203500 -17.928500
H -16.176100 -20.666100 -17.371700
48
Fragment
H -24.458400 -11.395600 -15.104500
O -24.073100 -11.858200 -14.547700
C -23.198100 -12.585000 -15.129900
O -23.073000 -12.637900 -16.377200
H -22.480400 -13.361100 -13.345100
C -22.333000 -13.375800 -14.263300
H -21.443300 -15.713200 -10.112700
C -21.341100 -14.117300 -14.744300
H -21.210800 -14.072400 -15.664100
H -21.129600 -14.686600 -12.131400
C -20.539900 -15.520900 -9.852600
C -20.507500 -15.169500 -12.626000
C -20.430700 -14.991100 -14.016900
H -20.418100 -15.745400 -8.927200
H -20.361500 -14.586300 -9.981200
C -19.667900 -16.054300 -11.991400
O -19.640200 -16.291000 -10.651300
C -19.471600 -15.705500 -14.726500
H -19.380500 -15.564500 -15.641300
C -18.750400 -16.816700 -12.736300
C -18.652100 -16.620400 -14.095500
H -18.063700 -17.739200 -11.358200
H -18.032700 -17.106400 -14.590400
O -17.948900 -17.738800 -12.170100
O -22.685500 -14.322900 -20.306100
H -22.601800 -14.955300 -17.885800
H -22.570700 -14.322500 -21.118000
C -21.982300 -15.441300 -18.380700
C -21.884000 -15.244900 -19.739900
H -21.254000 -16.497200 -16.834900
C -21.162800 -16.356200 -17.749600
O -20.994300 -15.770700 -21.824900
C -20.966500 -16.007300 -20.484800
H -20.273000 -17.475400 -22.495000
H -20.216400 -16.316300 -23.549000
C -20.203800 -17.070600 -18.459200
C -20.126900 -16.892200 -19.850200
C -20.094600 -16.540800 -22.623600
H -19.504800 -17.375100 -20.344800
H -19.423700 -17.989300 -16.812100
C -19.293300 -17.944400 -17.731900
H -19.191200 -16.348500 -22.363500
C -18.301500 -18.685900 -18.212900
H -18.154000 -18.700600 -19.131100
O -17.561500 -19.423800 -16.099000
C -17.436400 -19.476700 -17.346300
O -16.561400 -20.203500 -17.928500
H -16.176100 -20.666100 -17.371700
