24
Fragment
H -24.458400 -11.395600 -15.104500
O -24.073100 -11.858200 -14.547700
C -23.198100 -12.585000 -15.129900
O -23.073000 -12.637900 -16.377200
H -22.480400 -13.361100 -13.345100
C -22.333000 -13.375800 -14.263300
H -21.443300 -15.713200 -10.112700
C -21.341100 -14.117300 -14.744300
H -21.210800 -14.072400 -15.664100
H -21.129600 -14.686600 -12.131400
C -20.539900 -15.520900 -9.852600
C -20.507500 -15.169500 -12.626000
C -20.430700 -14.991100 -14.016900
H -20.418100 -15.745400 -8.927200
H -20.361500 -14.586300 -9.981200
C -19.667900 -16.054300 -11.991400
O -19.640200 -16.291000 -10.651300
C -19.471600 -15.705500 -14.726500
H -19.380500 -15.564500 -15.641300
C -18.750400 -16.816700 -12.736300
C -18.652100 -16.620400 -14.095500
H -18.063700 -17.739200 -11.358200
H -18.032700 -17.106400 -14.590400
O -17.948900 -17.738800 -12.170100
21
Fragment
H -23.486200 -8.519900 -13.638700
H -22.761900 -8.494500 -15.028800
C -22.655800 -8.344000 -14.086700
H -22.396900 -7.432100 -13.935300
O -22.111800 -8.461900 -11.477200
N -21.620600 -9.238000 -13.563700
C -21.458000 -9.214100 -12.171900
O -21.146400 -9.973400 -15.673100
H -21.145200 -9.755200 -9.767000
C -20.914900 -10.030300 -14.465100
N -20.555100 -10.106800 -11.639400
C -20.387500 -10.162500 -10.193000
H -20.317300 -11.078300 -9.913900
C -19.976800 -10.867100 -13.824900
C -19.837600 -10.921900 -12.469100
H -19.589000 -9.690500 -9.945000
N -19.115700 -11.817400 -14.314900
H -19.025000 -12.076500 -15.163800
N -18.934100 -11.870100 -12.098200
C -18.536400 -12.376700 -13.256300
H -17.909600 -13.060600 -13.322900
45
Fragment
H -24.458400 -11.395600 -15.104500
O -24.073100 -11.858200 -14.547700
C -23.198100 -12.585000 -15.129900
O -23.073000 -12.637900 -16.377200
H -22.480400 -13.361100 -13.345100
C -22.333000 -13.375800 -14.263300
H -21.443300 -15.713200 -10.112700
C -21.341100 -14.117300 -14.744300
H -21.210800 -14.072400 -15.664100
H -21.129600 -14.686600 -12.131400
C -20.539900 -15.520900 -9.852600
C -20.507500 -15.169500 -12.626000
C -20.430700 -14.991100 -14.016900
H -20.418100 -15.745400 -8.927200
H -20.361500 -14.586300 -9.981200
C -19.667900 -16.054300 -11.991400
O -19.640200 -16.291000 -10.651300
C -19.471600 -15.705500 -14.726500
H -19.380500 -15.564500 -15.641300
C -18.750400 -16.816700 -12.736300
C -18.652100 -16.620400 -14.095500
H -18.063700 -17.739200 -11.358200
H -18.032700 -17.106400 -14.590400
O -17.948900 -17.738800 -12.170100
H -23.486200 -8.519900 -13.638700
H -22.761900 -8.494500 -15.028800
C -22.655800 -8.344000 -14.086700
H -22.396900 -7.432100 -13.935300
O -22.111800 -8.461900 -11.477200
N -21.620600 -9.238000 -13.563700
C -21.458000 -9.214100 -12.171900
O -21.146400 -9.973400 -15.673100
H -21.145200 -9.755200 -9.767000
C -20.914900 -10.030300 -14.465100
N -20.555100 -10.106800 -11.639400
C -20.387500 -10.162500 -10.193000
H -20.317300 -11.078300 -9.913900
C -19.976800 -10.867100 -13.824900
C -19.837600 -10.921900 -12.469100
H -19.589000 -9.690500 -9.945000
N -19.115700 -11.817400 -14.314900
H -19.025000 -12.076500 -15.163800
N -18.934100 -11.870100 -12.098200
C -18.536400 -12.376700 -13.256300
H -17.909600 -13.060600 -13.322900
