30
Fragment
H -8.731900 -15.749000 -31.004400
H -8.571600 -15.668600 -28.686100
C -8.052100 -15.224200 -30.598200
C -7.951000 -15.186400 -29.219200
H -7.256600 -14.522200 -32.340800
C -7.174100 -14.503300 -31.394300
C -6.938800 -14.441800 -28.609000
H -6.830800 -15.246100 -26.802900
N -6.828200 -14.513000 -27.209100
H -6.699900 -11.927700 -27.619400
O -6.545900 -16.164900 -25.132800
C -6.431800 -13.508500 -26.347300
C -6.429500 -12.157500 -26.738700
C -6.166600 -13.748400 -30.789500
C -6.117600 -15.205000 -24.496700
C -6.070500 -13.815200 -25.006900
H -6.051000 -10.257700 -26.157800
C -6.043900 -11.161900 -25.867600
C -6.037400 -13.723600 -29.398600
C -5.680700 -12.778400 -24.147500
O -5.659100 -15.336000 -23.257500
C -5.641900 -11.462500 -24.565600
H -5.635800 -16.256900 -22.988800
F -5.520900 -12.840000 -32.871800
H -5.436200 -12.986900 -23.252500
H -5.347000 -10.776400 -23.978100
H -5.340700 -13.221100 -28.991600
C -5.151400 -13.012100 -31.597900
F -4.882900 -11.802600 -31.114200
F -3.981100 -13.660100 -31.645000
30
Fragment
F -5.823400 -10.703900 -13.051300
F -4.921600 -12.561400 -13.582200
C -4.653100 -11.351900 -13.098400
H -4.463800 -11.142800 -15.704800
H -4.457500 -13.587500 -20.718300
H -4.368300 -11.377100 -21.443800
F -4.283600 -11.524000 -11.824600
H -4.168700 -8.107100 -21.707500
C -4.162600 -12.901500 -20.130800
O -4.145400 -9.028000 -21.438900
C -4.123700 -11.585600 -20.548900
C -3.767100 -10.640400 -15.297800
C -3.760600 -13.202100 -18.828800
H -3.753500 -14.106300 -18.538600
C -3.734000 -10.548700 -19.689500
C -3.686900 -9.159000 -20.199600
C -3.637900 -10.615600 -13.906800
C -3.375000 -12.206400 -17.957700
C -3.372700 -10.855500 -18.349100
O -3.258600 -8.199100 -19.563600
H -3.104600 -12.436300 -17.077000
N -2.976300 -9.850900 -17.487300
H -2.973700 -9.117900 -17.893400
C -2.865700 -9.922200 -16.087400
C -2.630400 -9.860600 -13.302100
H -2.547900 -9.841700 -12.355600
C -1.853500 -9.177600 -15.477200
C -1.752400 -9.139800 -14.098100
H -1.232900 -8.695400 -16.010200
H -1.072500 -8.615000 -13.692000
60
Fragment
H -8.731900 -15.749000 -31.004400
H -8.571600 -15.668600 -28.686100
C -8.052100 -15.224200 -30.598200
C -7.951000 -15.186400 -29.219200
H -7.256600 -14.522200 -32.340800
C -7.174100 -14.503300 -31.394300
C -6.938800 -14.441800 -28.609000
H -6.830800 -15.246100 -26.802900
N -6.828200 -14.513000 -27.209100
H -6.699900 -11.927700 -27.619400
O -6.545900 -16.164900 -25.132800
C -6.431800 -13.508500 -26.347300
C -6.429500 -12.157500 -26.738700
C -6.166600 -13.748400 -30.789500
C -6.117600 -15.205000 -24.496700
C -6.070500 -13.815200 -25.006900
H -6.051000 -10.257700 -26.157800
C -6.043900 -11.161900 -25.867600
C -6.037400 -13.723600 -29.398600
C -5.680700 -12.778400 -24.147500
O -5.659100 -15.336000 -23.257500
C -5.641900 -11.462500 -24.565600
H -5.635800 -16.256900 -22.988800
F -5.520900 -12.840000 -32.871800
H -5.436200 -12.986900 -23.252500
H -5.347000 -10.776400 -23.978100
H -5.340700 -13.221100 -28.991600
C -5.151400 -13.012100 -31.597900
F -4.882900 -11.802600 -31.114200
F -3.981100 -13.660100 -31.645000
F -5.823400 -10.703900 -13.051300
F -4.921600 -12.561400 -13.582200
C -4.653100 -11.351900 -13.098400
H -4.463800 -11.142800 -15.704800
H -4.457500 -13.587500 -20.718300
H -4.368300 -11.377100 -21.443800
F -4.283600 -11.524000 -11.824600
H -4.168700 -8.107100 -21.707500
C -4.162600 -12.901500 -20.130800
O -4.145400 -9.028000 -21.438900
C -4.123700 -11.585600 -20.548900
C -3.767100 -10.640400 -15.297800
C -3.760600 -13.202100 -18.828800
H -3.753500 -14.106300 -18.538600
C -3.734000 -10.548700 -19.689500
C -3.686900 -9.159000 -20.199600
C -3.637900 -10.615600 -13.906800
C -3.375000 -12.206400 -17.957700
C -3.372700 -10.855500 -18.349100
O -3.258600 -8.199100 -19.563600
H -3.104600 -12.436300 -17.077000
N -2.976300 -9.850900 -17.487300
H -2.973700 -9.117900 -17.893400
C -2.865700 -9.922200 -16.087400
C -2.630400 -9.860600 -13.302100
H -2.547900 -9.841700 -12.355600
C -1.853500 -9.177600 -15.477200
C -1.752400 -9.139800 -14.098100
H -1.232900 -8.695400 -16.010200
H -1.072500 -8.615000 -13.692000
