30
Fragment
H -8.731900 -15.749000 -31.004400
H -8.571600 -15.668600 -28.686100
C -8.052100 -15.224200 -30.598200
C -7.951000 -15.186400 -29.219200
H -7.256600 -14.522200 -32.340800
C -7.174100 -14.503300 -31.394300
C -6.938800 -14.441800 -28.609000
H -6.830800 -15.246100 -26.802900
N -6.828200 -14.513000 -27.209100
H -6.699900 -11.927700 -27.619400
O -6.545900 -16.164900 -25.132800
C -6.431800 -13.508500 -26.347300
C -6.429500 -12.157500 -26.738700
C -6.166600 -13.748400 -30.789500
C -6.117600 -15.205000 -24.496700
C -6.070500 -13.815200 -25.006900
H -6.051000 -10.257700 -26.157800
C -6.043900 -11.161900 -25.867600
C -6.037400 -13.723600 -29.398600
C -5.680700 -12.778400 -24.147500
O -5.659100 -15.336000 -23.257500
C -5.641900 -11.462500 -24.565600
H -5.635800 -16.256900 -22.988800
F -5.520900 -12.840000 -32.871800
H -5.436200 -12.986900 -23.252500
H -5.347000 -10.776400 -23.978100
H -5.340700 -13.221100 -28.991600
C -5.151400 -13.012100 -31.597900
F -4.882900 -11.802600 -31.114200
F -3.981100 -13.660100 -31.645000
30
Fragment
F -4.060300 -8.890000 -27.950100
F -3.158400 -10.747600 -28.481000
C -2.889900 -9.538000 -27.997200
H -2.700700 -9.329000 -30.603600
H -2.694300 -11.773700 -35.617000
H -2.605100 -9.563200 -36.342600
F -2.520500 -9.710200 -26.723400
H -2.405600 -6.293300 -36.606300
C -2.399500 -11.087700 -35.029600
O -2.382300 -7.214200 -36.337700
C -2.360600 -9.771700 -35.447600
C -2.004000 -8.826600 -30.196600
C -1.997500 -11.388300 -33.727600
H -1.990400 -12.292400 -33.437400
C -1.970900 -8.734900 -34.588300
C -1.923700 -7.345200 -35.098400
C -1.874700 -8.801800 -28.805600
C -1.611800 -10.392600 -32.856400
C -1.609600 -9.041700 -33.247800
O -1.495400 -6.385300 -34.462400
H -1.341500 -10.622400 -31.975800
N -1.213100 -8.037100 -32.386100
H -1.210600 -7.304000 -32.792200
C -1.102600 -8.108400 -30.986200
C -0.867200 -8.046800 -28.200900
H -0.784800 -8.027900 -27.254400
C -0.090300 -7.363700 -30.376000
C 0.010800 -7.326000 -28.996900
H 0.530200 -6.881600 -30.909000
H 0.690600 -6.801200 -28.590800
60
Fragment
H -8.731900 -15.749000 -31.004400
H -8.571600 -15.668600 -28.686100
C -8.052100 -15.224200 -30.598200
C -7.951000 -15.186400 -29.219200
H -7.256600 -14.522200 -32.340800
C -7.174100 -14.503300 -31.394300
C -6.938800 -14.441800 -28.609000
H -6.830800 -15.246100 -26.802900
N -6.828200 -14.513000 -27.209100
H -6.699900 -11.927700 -27.619400
O -6.545900 -16.164900 -25.132800
C -6.431800 -13.508500 -26.347300
C -6.429500 -12.157500 -26.738700
C -6.166600 -13.748400 -30.789500
C -6.117600 -15.205000 -24.496700
C -6.070500 -13.815200 -25.006900
H -6.051000 -10.257700 -26.157800
C -6.043900 -11.161900 -25.867600
C -6.037400 -13.723600 -29.398600
C -5.680700 -12.778400 -24.147500
O -5.659100 -15.336000 -23.257500
C -5.641900 -11.462500 -24.565600
H -5.635800 -16.256900 -22.988800
F -5.520900 -12.840000 -32.871800
H -5.436200 -12.986900 -23.252500
H -5.347000 -10.776400 -23.978100
H -5.340700 -13.221100 -28.991600
C -5.151400 -13.012100 -31.597900
F -4.882900 -11.802600 -31.114200
F -3.981100 -13.660100 -31.645000
F -4.060300 -8.890000 -27.950100
F -3.158400 -10.747600 -28.481000
C -2.889900 -9.538000 -27.997200
H -2.700700 -9.329000 -30.603600
H -2.694300 -11.773700 -35.617000
H -2.605100 -9.563200 -36.342600
F -2.520500 -9.710200 -26.723400
H -2.405600 -6.293300 -36.606300
C -2.399500 -11.087700 -35.029600
O -2.382300 -7.214200 -36.337700
C -2.360600 -9.771700 -35.447600
C -2.004000 -8.826600 -30.196600
C -1.997500 -11.388300 -33.727600
H -1.990400 -12.292400 -33.437400
C -1.970900 -8.734900 -34.588300
C -1.923700 -7.345200 -35.098400
C -1.874700 -8.801800 -28.805600
C -1.611800 -10.392600 -32.856400
C -1.609600 -9.041700 -33.247800
O -1.495400 -6.385300 -34.462400
H -1.341500 -10.622400 -31.975800
N -1.213100 -8.037100 -32.386100
H -1.210600 -7.304000 -32.792200
C -1.102600 -8.108400 -30.986200
C -0.867200 -8.046800 -28.200900
H -0.784800 -8.027900 -27.254400
C -0.090300 -7.363700 -30.376000
C 0.010800 -7.326000 -28.996900
H 0.530200 -6.881600 -30.909000
H 0.690600 -6.801200 -28.590800
