30
Fragment
H -8.731900 -15.749000 -31.004400
H -8.571600 -15.668600 -28.686100
C -8.052100 -15.224200 -30.598200
C -7.951000 -15.186400 -29.219200
H -7.256600 -14.522200 -32.340800
C -7.174100 -14.503300 -31.394300
C -6.938800 -14.441800 -28.609000
H -6.830800 -15.246100 -26.802900
N -6.828200 -14.513000 -27.209100
H -6.699900 -11.927700 -27.619400
O -6.545900 -16.164900 -25.132800
C -6.431800 -13.508500 -26.347300
C -6.429500 -12.157500 -26.738700
C -6.166600 -13.748400 -30.789500
C -6.117600 -15.205000 -24.496700
C -6.070500 -13.815200 -25.006900
H -6.051000 -10.257700 -26.157800
C -6.043900 -11.161900 -25.867600
C -6.037400 -13.723600 -29.398600
C -5.680700 -12.778400 -24.147500
O -5.659100 -15.336000 -23.257500
C -5.641900 -11.462500 -24.565600
H -5.635800 -16.256900 -22.988800
F -5.520900 -12.840000 -32.871800
H -5.436200 -12.986900 -23.252500
H -5.347000 -10.776400 -23.978100
H -5.340700 -13.221100 -28.991600
C -5.151400 -13.012100 -31.597900
F -4.882900 -11.802600 -31.114200
F -3.981100 -13.660100 -31.645000
30
Fragment
H -1.738800 -15.749000 -31.004400
H -1.578500 -15.668600 -28.686100
C -1.059000 -15.224200 -30.598200
C -0.957900 -15.186400 -29.219200
H -0.263500 -14.522200 -32.340800
C -0.181000 -14.503300 -31.394300
C 0.054300 -14.441800 -28.609000
H 0.162300 -15.246100 -26.802900
N 0.164900 -14.513000 -27.209100
H 0.293200 -11.927700 -27.619400
O 0.447200 -16.164900 -25.132800
C 0.561300 -13.508500 -26.347300
C 0.563600 -12.157500 -26.738700
C 0.826500 -13.748400 -30.789500
C 0.875500 -15.205000 -24.496700
C 0.922600 -13.815200 -25.006900
H 0.942100 -10.257700 -26.157800
C 0.949200 -11.161900 -25.867600
C 0.955700 -13.723600 -29.398600
C 1.312400 -12.778400 -24.147500
O 1.334000 -15.336000 -23.257500
C 1.351200 -11.462500 -24.565600
H 1.357300 -16.256900 -22.988800
F 1.472200 -12.840000 -32.871800
H 1.556900 -12.986900 -23.252500
H 1.646100 -10.776400 -23.978100
H 1.652400 -13.221100 -28.991600
C 1.841700 -13.012100 -31.597900
F 2.110200 -11.802600 -31.114200
F 3.012000 -13.660100 -31.645000
60
Fragment
H -8.731900 -15.749000 -31.004400
H -8.571600 -15.668600 -28.686100
C -8.052100 -15.224200 -30.598200
C -7.951000 -15.186400 -29.219200
H -7.256600 -14.522200 -32.340800
C -7.174100 -14.503300 -31.394300
C -6.938800 -14.441800 -28.609000
H -6.830800 -15.246100 -26.802900
N -6.828200 -14.513000 -27.209100
H -6.699900 -11.927700 -27.619400
O -6.545900 -16.164900 -25.132800
C -6.431800 -13.508500 -26.347300
C -6.429500 -12.157500 -26.738700
C -6.166600 -13.748400 -30.789500
C -6.117600 -15.205000 -24.496700
C -6.070500 -13.815200 -25.006900
H -6.051000 -10.257700 -26.157800
C -6.043900 -11.161900 -25.867600
C -6.037400 -13.723600 -29.398600
C -5.680700 -12.778400 -24.147500
O -5.659100 -15.336000 -23.257500
C -5.641900 -11.462500 -24.565600
H -5.635800 -16.256900 -22.988800
F -5.520900 -12.840000 -32.871800
H -5.436200 -12.986900 -23.252500
H -5.347000 -10.776400 -23.978100
H -5.340700 -13.221100 -28.991600
C -5.151400 -13.012100 -31.597900
F -4.882900 -11.802600 -31.114200
F -3.981100 -13.660100 -31.645000
H -1.738800 -15.749000 -31.004400
H -1.578500 -15.668600 -28.686100
C -1.059000 -15.224200 -30.598200
C -0.957900 -15.186400 -29.219200
H -0.263500 -14.522200 -32.340800
C -0.181000 -14.503300 -31.394300
C 0.054300 -14.441800 -28.609000
H 0.162300 -15.246100 -26.802900
N 0.164900 -14.513000 -27.209100
H 0.293200 -11.927700 -27.619400
O 0.447200 -16.164900 -25.132800
C 0.561300 -13.508500 -26.347300
C 0.563600 -12.157500 -26.738700
C 0.826500 -13.748400 -30.789500
C 0.875500 -15.205000 -24.496700
C 0.922600 -13.815200 -25.006900
H 0.942100 -10.257700 -26.157800
C 0.949200 -11.161900 -25.867600
C 0.955700 -13.723600 -29.398600
C 1.312400 -12.778400 -24.147500
O 1.334000 -15.336000 -23.257500
C 1.351200 -11.462500 -24.565600
H 1.357300 -16.256900 -22.988800
F 1.472200 -12.840000 -32.871800
H 1.556900 -12.986900 -23.252500
H 1.646100 -10.776400 -23.978100
H 1.652400 -13.221100 -28.991600
C 1.841700 -13.012100 -31.597900
F 2.110200 -11.802600 -31.114200
F 3.012000 -13.660100 -31.645000
