30
Fragment
H -8.731900 -15.749000 -31.004400
H -8.571600 -15.668600 -28.686100
C -8.052100 -15.224200 -30.598200
C -7.951000 -15.186400 -29.219200
H -7.256600 -14.522200 -32.340800
C -7.174100 -14.503300 -31.394300
C -6.938800 -14.441800 -28.609000
H -6.830800 -15.246100 -26.802900
N -6.828200 -14.513000 -27.209100
H -6.699900 -11.927700 -27.619400
O -6.545900 -16.164900 -25.132800
C -6.431800 -13.508500 -26.347300
C -6.429500 -12.157500 -26.738700
C -6.166600 -13.748400 -30.789500
C -6.117600 -15.205000 -24.496700
C -6.070500 -13.815200 -25.006900
H -6.051000 -10.257700 -26.157800
C -6.043900 -11.161900 -25.867600
C -6.037400 -13.723600 -29.398600
C -5.680700 -12.778400 -24.147500
O -5.659100 -15.336000 -23.257500
C -5.641900 -11.462500 -24.565600
H -5.635800 -16.256900 -22.988800
F -5.520900 -12.840000 -32.871800
H -5.436200 -12.986900 -23.252500
H -5.347000 -10.776400 -23.978100
H -5.340700 -13.221100 -28.991600
C -5.151400 -13.012100 -31.597900
F -4.882900 -11.802600 -31.114200
F -3.981100 -13.660100 -31.645000
21
Fragment
H -10.766700 -12.738600 -26.467700
H -10.491600 -17.865400 -25.469500
H -10.338400 -18.069600 -23.890200
O -10.250000 -15.879500 -26.698300
C -9.914100 -17.705000 -24.694000
H -9.912800 -13.723400 -27.395900
C -9.903700 -13.190300 -26.573300
C -9.894100 -15.443700 -25.617900
N -9.710800 -16.272600 -24.528000
N -9.667200 -14.071300 -25.421500
C -9.268700 -15.740400 -23.346400
C -9.254100 -13.458200 -24.236900
H -9.189200 -12.521600 -26.625600
O -9.119900 -12.234300 -24.180900
H -9.049500 -18.143400 -24.834800
C -9.039700 -14.395300 -23.195900
N -8.994900 -16.420900 -22.203800
N -8.586900 -14.243500 -21.900900
C -8.582100 -15.464600 -21.360500
H -8.314300 -13.445700 -21.434900
H -8.313000 -15.638000 -20.466500
51
Fragment
H -8.731900 -15.749000 -31.004400
H -8.571600 -15.668600 -28.686100
C -8.052100 -15.224200 -30.598200
C -7.951000 -15.186400 -29.219200
H -7.256600 -14.522200 -32.340800
C -7.174100 -14.503300 -31.394300
C -6.938800 -14.441800 -28.609000
H -6.830800 -15.246100 -26.802900
N -6.828200 -14.513000 -27.209100
H -6.699900 -11.927700 -27.619400
O -6.545900 -16.164900 -25.132800
C -6.431800 -13.508500 -26.347300
C -6.429500 -12.157500 -26.738700
C -6.166600 -13.748400 -30.789500
C -6.117600 -15.205000 -24.496700
C -6.070500 -13.815200 -25.006900
H -6.051000 -10.257700 -26.157800
C -6.043900 -11.161900 -25.867600
C -6.037400 -13.723600 -29.398600
C -5.680700 -12.778400 -24.147500
O -5.659100 -15.336000 -23.257500
C -5.641900 -11.462500 -24.565600
H -5.635800 -16.256900 -22.988800
F -5.520900 -12.840000 -32.871800
H -5.436200 -12.986900 -23.252500
H -5.347000 -10.776400 -23.978100
H -5.340700 -13.221100 -28.991600
C -5.151400 -13.012100 -31.597900
F -4.882900 -11.802600 -31.114200
F -3.981100 -13.660100 -31.645000
H -10.766700 -12.738600 -26.467700
H -10.491600 -17.865400 -25.469500
H -10.338400 -18.069600 -23.890200
O -10.250000 -15.879500 -26.698300
C -9.914100 -17.705000 -24.694000
H -9.912800 -13.723400 -27.395900
C -9.903700 -13.190300 -26.573300
C -9.894100 -15.443700 -25.617900
N -9.710800 -16.272600 -24.528000
N -9.667200 -14.071300 -25.421500
C -9.268700 -15.740400 -23.346400
C -9.254100 -13.458200 -24.236900
H -9.189200 -12.521600 -26.625600
O -9.119900 -12.234300 -24.180900
H -9.049500 -18.143400 -24.834800
C -9.039700 -14.395300 -23.195900
N -8.994900 -16.420900 -22.203800
N -8.586900 -14.243500 -21.900900
C -8.582100 -15.464600 -21.360500
H -8.314300 -13.445700 -21.434900
H -8.313000 -15.638000 -20.466500
