21
Fragment
O -5.437300 -11.930800 -30.741900
H -5.261500 -14.175800 -29.871200
N -4.698400 -13.655900 -29.480300
C -4.684700 -12.361000 -29.880400
H -4.196100 -10.064800 -30.521000
O -4.027000 -15.451900 -28.279400
H -3.902500 -9.573600 -29.061600
C -3.894500 -14.230600 -28.502700
N -3.740300 -11.556400 -29.267800
C -3.630100 -10.179700 -29.753400
C -2.997000 -13.354200 -27.848700
C -2.931500 -12.018800 -28.256100
H -2.719500 -9.998300 -29.998200
H -2.326800 -14.763100 -26.500200
C -2.199800 -13.878600 -26.757900
N -2.085900 -11.152300 -27.714700
H -2.060900 -10.341400 -27.999000
H -1.562800 -11.401900 -27.079300
N -1.331100 -13.180800 -26.135300
O -0.710700 -13.935200 -25.121000
H -0.156800 -13.470000 -24.734700
21
Fragment
H -0.595500 -17.960000 -26.727300
O -0.041600 -18.425200 -26.340900
N 0.578800 -17.670800 -25.326700
H 0.810500 -15.891900 -24.382700
H 1.308600 -14.831400 -23.462900
N 1.333600 -15.642300 -23.747200
C 1.447500 -18.368600 -24.704000
H 1.574500 -19.253100 -24.961700
H 1.967200 -14.488300 -21.463700
C 2.179200 -16.508800 -23.205800
C 2.244700 -17.844200 -23.613200
C 2.877800 -14.669700 -21.708500
N 2.988100 -16.046400 -22.194100
C 3.142200 -18.720600 -22.959200
H 3.150200 -14.063600 -22.400300
O 3.274700 -19.941900 -23.182600
H 3.443800 -14.554800 -20.940900
C 3.932400 -16.851000 -21.581500
N 3.946100 -18.145900 -21.981700
H 4.509200 -18.665800 -21.590800
O 4.685000 -16.420800 -20.720000
42
Fragment
O -5.437300 -11.930800 -30.741900
H -5.261500 -14.175800 -29.871200
N -4.698400 -13.655900 -29.480300
C -4.684700 -12.361000 -29.880400
H -4.196100 -10.064800 -30.521000
O -4.027000 -15.451900 -28.279400
H -3.902500 -9.573600 -29.061600
C -3.894500 -14.230600 -28.502700
N -3.740300 -11.556400 -29.267800
C -3.630100 -10.179700 -29.753400
C -2.997000 -13.354200 -27.848700
C -2.931500 -12.018800 -28.256100
H -2.719500 -9.998300 -29.998200
H -2.326800 -14.763100 -26.500200
C -2.199800 -13.878600 -26.757900
N -2.085900 -11.152300 -27.714700
H -2.060900 -10.341400 -27.999000
H -1.562800 -11.401900 -27.079300
N -1.331100 -13.180800 -26.135300
O -0.710700 -13.935200 -25.121000
H -0.156800 -13.470000 -24.734700
H -0.595500 -17.960000 -26.727300
O -0.041600 -18.425200 -26.340900
N 0.578800 -17.670800 -25.326700
H 0.810500 -15.891900 -24.382700
H 1.308600 -14.831400 -23.462900
N 1.333600 -15.642300 -23.747200
C 1.447500 -18.368600 -24.704000
H 1.574500 -19.253100 -24.961700
H 1.967200 -14.488300 -21.463700
C 2.179200 -16.508800 -23.205800
C 2.244700 -17.844200 -23.613200
C 2.877800 -14.669700 -21.708500
N 2.988100 -16.046400 -22.194100
C 3.142200 -18.720600 -22.959200
H 3.150200 -14.063600 -22.400300
O 3.274700 -19.941900 -23.182600
H 3.443800 -14.554800 -20.940900
C 3.932400 -16.851000 -21.581500
N 3.946100 -18.145900 -21.981700
H 4.509200 -18.665800 -21.590800
O 4.685000 -16.420800 -20.720000
