21
Fragment
O -5.437300 -11.930800 -30.741900
H -5.261500 -14.175800 -29.871200
N -4.698400 -13.655900 -29.480300
C -4.684700 -12.361000 -29.880400
H -4.196100 -10.064800 -30.521000
O -4.027000 -15.451900 -28.279400
H -3.902500 -9.573600 -29.061600
C -3.894500 -14.230600 -28.502700
N -3.740300 -11.556400 -29.267800
C -3.630100 -10.179700 -29.753400
C -2.997000 -13.354200 -27.848700
C -2.931500 -12.018800 -28.256100
H -2.719500 -9.998300 -29.998200
H -2.326800 -14.763100 -26.500200
C -2.199800 -13.878600 -26.757900
N -2.085900 -11.152300 -27.714700
H -2.060900 -10.341400 -27.999000
H -1.562800 -11.401900 -27.079300
N -1.331100 -13.180800 -26.135300
O -0.710700 -13.935200 -25.121000
H -0.156800 -13.470000 -24.734700
21
Fragment
O -5.437300 -2.950800 -30.741900
H -5.261500 -5.195800 -29.871200
N -4.698400 -4.675900 -29.480300
C -4.684700 -3.381000 -29.880400
H -4.196100 -1.084800 -30.521000
O -4.027000 -6.471900 -28.279400
H -3.902500 -0.593600 -29.061600
C -3.894500 -5.250600 -28.502700
N -3.740300 -2.576400 -29.267800
C -3.630100 -1.199700 -29.753400
C -2.997000 -4.374200 -27.848700
C -2.931500 -3.038800 -28.256100
H -2.719500 -1.018300 -29.998200
H -2.326800 -5.783100 -26.500200
C -2.199800 -4.898600 -26.757900
N -2.085900 -2.172300 -27.714700
H -2.060900 -1.361400 -27.999000
H -1.562800 -2.421900 -27.079300
N -1.331100 -4.200800 -26.135300
O -0.710700 -4.955200 -25.121000
H -0.156800 -4.490000 -24.734700
42
Fragment
O -5.437300 -11.930800 -30.741900
H -5.261500 -14.175800 -29.871200
N -4.698400 -13.655900 -29.480300
C -4.684700 -12.361000 -29.880400
H -4.196100 -10.064800 -30.521000
O -4.027000 -15.451900 -28.279400
H -3.902500 -9.573600 -29.061600
C -3.894500 -14.230600 -28.502700
N -3.740300 -11.556400 -29.267800
C -3.630100 -10.179700 -29.753400
C -2.997000 -13.354200 -27.848700
C -2.931500 -12.018800 -28.256100
H -2.719500 -9.998300 -29.998200
H -2.326800 -14.763100 -26.500200
C -2.199800 -13.878600 -26.757900
N -2.085900 -11.152300 -27.714700
H -2.060900 -10.341400 -27.999000
H -1.562800 -11.401900 -27.079300
N -1.331100 -13.180800 -26.135300
O -0.710700 -13.935200 -25.121000
H -0.156800 -13.470000 -24.734700
O -5.437300 -2.950800 -30.741900
H -5.261500 -5.195800 -29.871200
N -4.698400 -4.675900 -29.480300
C -4.684700 -3.381000 -29.880400
H -4.196100 -1.084800 -30.521000
O -4.027000 -6.471900 -28.279400
H -3.902500 -0.593600 -29.061600
C -3.894500 -5.250600 -28.502700
N -3.740300 -2.576400 -29.267800
C -3.630100 -1.199700 -29.753400
C -2.997000 -4.374200 -27.848700
C -2.931500 -3.038800 -28.256100
H -2.719500 -1.018300 -29.998200
H -2.326800 -5.783100 -26.500200
C -2.199800 -4.898600 -26.757900
N -2.085900 -2.172300 -27.714700
H -2.060900 -1.361400 -27.999000
H -1.562800 -2.421900 -27.079300
N -1.331100 -4.200800 -26.135300
O -0.710700 -4.955200 -25.121000
H -0.156800 -4.490000 -24.734700
