21
Fragment
O -5.437300 -11.930800 -30.741900
H -5.261500 -14.175800 -29.871200
N -4.698400 -13.655900 -29.480300
C -4.684700 -12.361000 -29.880400
H -4.196100 -10.064800 -30.521000
O -4.027000 -15.451900 -28.279400
H -3.902500 -9.573600 -29.061600
C -3.894500 -14.230600 -28.502700
N -3.740300 -11.556400 -29.267800
C -3.630100 -10.179700 -29.753400
C -2.997000 -13.354200 -27.848700
C -2.931500 -12.018800 -28.256100
H -2.719500 -9.998300 -29.998200
H -2.326800 -14.763100 -26.500200
C -2.199800 -13.878600 -26.757900
N -2.085900 -11.152300 -27.714700
H -2.060900 -10.341400 -27.999000
H -1.562800 -11.401900 -27.079300
N -1.331100 -13.180800 -26.135300
O -0.710700 -13.935200 -25.121000
H -0.156800 -13.470000 -24.734700
21
Fragment
O -10.090100 -11.930800 -30.741900
H -9.914300 -14.175800 -29.871200
N -9.351200 -13.655900 -29.480300
C -9.337500 -12.361000 -29.880400
H -8.848900 -10.064800 -30.521000
O -8.679800 -15.451900 -28.279400
H -8.555300 -9.573600 -29.061600
C -8.547300 -14.230600 -28.502700
N -8.393100 -11.556400 -29.267800
C -8.282900 -10.179700 -29.753400
C -7.649800 -13.354200 -27.848700
C -7.584300 -12.018800 -28.256100
H -7.372300 -9.998300 -29.998200
H -6.979600 -14.763100 -26.500200
C -6.852600 -13.878600 -26.757900
N -6.738700 -11.152300 -27.714700
H -6.713700 -10.341400 -27.999000
H -6.215600 -11.401900 -27.079300
N -5.983900 -13.180800 -26.135300
O -5.363500 -13.935200 -25.121000
H -4.809600 -13.470000 -24.734700
42
Fragment
O -5.437300 -11.930800 -30.741900
H -5.261500 -14.175800 -29.871200
N -4.698400 -13.655900 -29.480300
C -4.684700 -12.361000 -29.880400
H -4.196100 -10.064800 -30.521000
O -4.027000 -15.451900 -28.279400
H -3.902500 -9.573600 -29.061600
C -3.894500 -14.230600 -28.502700
N -3.740300 -11.556400 -29.267800
C -3.630100 -10.179700 -29.753400
C -2.997000 -13.354200 -27.848700
C -2.931500 -12.018800 -28.256100
H -2.719500 -9.998300 -29.998200
H -2.326800 -14.763100 -26.500200
C -2.199800 -13.878600 -26.757900
N -2.085900 -11.152300 -27.714700
H -2.060900 -10.341400 -27.999000
H -1.562800 -11.401900 -27.079300
N -1.331100 -13.180800 -26.135300
O -0.710700 -13.935200 -25.121000
H -0.156800 -13.470000 -24.734700
O -10.090100 -11.930800 -30.741900
H -9.914300 -14.175800 -29.871200
N -9.351200 -13.655900 -29.480300
C -9.337500 -12.361000 -29.880400
H -8.848900 -10.064800 -30.521000
O -8.679800 -15.451900 -28.279400
H -8.555300 -9.573600 -29.061600
C -8.547300 -14.230600 -28.502700
N -8.393100 -11.556400 -29.267800
C -8.282900 -10.179700 -29.753400
C -7.649800 -13.354200 -27.848700
C -7.584300 -12.018800 -28.256100
H -7.372300 -9.998300 -29.998200
H -6.979600 -14.763100 -26.500200
C -6.852600 -13.878600 -26.757900
N -6.738700 -11.152300 -27.714700
H -6.713700 -10.341400 -27.999000
H -6.215600 -11.401900 -27.079300
N -5.983900 -13.180800 -26.135300
O -5.363500 -13.935200 -25.121000
H -4.809600 -13.470000 -24.734700
