21
Fragment
O -5.437300 -11.930800 -30.741900
H -5.261500 -14.175800 -29.871200
N -4.698400 -13.655900 -29.480300
C -4.684700 -12.361000 -29.880400
H -4.196100 -10.064800 -30.521000
O -4.027000 -15.451900 -28.279400
H -3.902500 -9.573600 -29.061600
C -3.894500 -14.230600 -28.502700
N -3.740300 -11.556400 -29.267800
C -3.630100 -10.179700 -29.753400
C -2.997000 -13.354200 -27.848700
C -2.931500 -12.018800 -28.256100
H -2.719500 -9.998300 -29.998200
H -2.326800 -14.763100 -26.500200
C -2.199800 -13.878600 -26.757900
N -2.085900 -11.152300 -27.714700
H -2.060900 -10.341400 -27.999000
H -1.562800 -11.401900 -27.079300
N -1.331100 -13.180800 -26.135300
O -0.710700 -13.935200 -25.121000
H -0.156800 -13.470000 -24.734700
21
Fragment
H -5.248300 -8.980000 -26.727300
O -4.694400 -9.445200 -26.340900
N -4.074000 -8.690800 -25.326700
H -3.842300 -6.911900 -24.382700
H -3.344200 -5.851400 -23.462900
N -3.319200 -6.662300 -23.747200
C -3.205300 -9.388600 -24.704000
H -3.078300 -10.273100 -24.961700
H -2.685600 -5.508300 -21.463700
C -2.473600 -7.528800 -23.205800
C -2.408100 -8.864200 -23.613200
C -1.775000 -5.689700 -21.708500
N -1.664700 -7.066400 -22.194100
C -1.510600 -9.740600 -22.959200
H -1.502600 -5.083600 -22.400300
O -1.378100 -10.961900 -23.182600
H -1.209000 -5.574800 -20.940900
C -0.720400 -7.871000 -21.581500
N -0.706700 -9.165900 -21.981700
H -0.143600 -9.685800 -21.590800
O 0.032200 -7.440800 -20.720000
42
Fragment
O -5.437300 -11.930800 -30.741900
H -5.261500 -14.175800 -29.871200
N -4.698400 -13.655900 -29.480300
C -4.684700 -12.361000 -29.880400
H -4.196100 -10.064800 -30.521000
O -4.027000 -15.451900 -28.279400
H -3.902500 -9.573600 -29.061600
C -3.894500 -14.230600 -28.502700
N -3.740300 -11.556400 -29.267800
C -3.630100 -10.179700 -29.753400
C -2.997000 -13.354200 -27.848700
C -2.931500 -12.018800 -28.256100
H -2.719500 -9.998300 -29.998200
H -2.326800 -14.763100 -26.500200
C -2.199800 -13.878600 -26.757900
N -2.085900 -11.152300 -27.714700
H -2.060900 -10.341400 -27.999000
H -1.562800 -11.401900 -27.079300
N -1.331100 -13.180800 -26.135300
O -0.710700 -13.935200 -25.121000
H -0.156800 -13.470000 -24.734700
H -5.248300 -8.980000 -26.727300
O -4.694400 -9.445200 -26.340900
N -4.074000 -8.690800 -25.326700
H -3.842300 -6.911900 -24.382700
H -3.344200 -5.851400 -23.462900
N -3.319200 -6.662300 -23.747200
C -3.205300 -9.388600 -24.704000
H -3.078300 -10.273100 -24.961700
H -2.685600 -5.508300 -21.463700
C -2.473600 -7.528800 -23.205800
C -2.408100 -8.864200 -23.613200
C -1.775000 -5.689700 -21.708500
N -1.664700 -7.066400 -22.194100
C -1.510600 -9.740600 -22.959200
H -1.502600 -5.083600 -22.400300
O -1.378100 -10.961900 -23.182600
H -1.209000 -5.574800 -20.940900
C -0.720400 -7.871000 -21.581500
N -0.706700 -9.165900 -21.981700
H -0.143600 -9.685800 -21.590800
O 0.032200 -7.440800 -20.720000
