20
Fragment
H -27.119000 -8.208400 -26.476300
N -26.214700 -8.293300 -26.335800
H -25.883200 -8.533500 -25.600300
N -25.833700 -7.619800 -28.553400
H -25.490200 -7.033800 -31.002400
C -25.416900 -7.998700 -27.359600
N -24.692100 -7.126700 -30.545900
C -24.675800 -7.513600 -29.265800
N -24.051700 -8.084300 -27.332700
H -23.977800 -7.226300 -31.025300
N -23.691000 -8.745900 -25.142200
N -23.552900 -7.787000 -28.613300
C -23.164900 -8.368300 -26.306700
N -22.845900 -9.033800 -24.168100
N -21.860700 -8.236200 -26.582900
C -21.516300 -8.941600 -24.435100
N -21.013300 -8.527500 -25.627500
H -20.975700 -9.615100 -22.676300
N -20.654000 -9.255500 -23.485800
H -19.812800 -9.163900 -23.677400
20
Fragment
H -28.712200 -4.107500 -29.197600
N -27.871000 -4.015900 -29.389200
H -27.549300 -3.656300 -30.198700
N -27.511700 -4.743900 -27.247500
C -27.008700 -4.329800 -28.439900
N -26.664300 -5.035200 -26.292100
N -25.679100 -4.237600 -28.706900
C -25.360100 -4.903100 -26.568300
N -24.972100 -5.484400 -24.261700
N -24.834000 -4.525500 -27.732800
H -24.547200 -6.045100 -21.849700
N -24.473300 -5.187100 -25.542300
C -23.849200 -5.757800 -23.609200
N -23.832900 -6.144700 -22.329100
C -23.108100 -5.272700 -25.515400
H -23.034800 -6.237600 -21.872600
N -22.691300 -5.651600 -24.321600
H -22.641800 -4.737900 -27.274700
N -22.310300 -4.978100 -26.539200
H -21.406000 -5.063000 -26.398700
40
Fragment
H -27.119000 -8.208400 -26.476300
N -26.214700 -8.293300 -26.335800
H -25.883200 -8.533500 -25.600300
N -25.833700 -7.619800 -28.553400
H -25.490200 -7.033800 -31.002400
C -25.416900 -7.998700 -27.359600
N -24.692100 -7.126700 -30.545900
C -24.675800 -7.513600 -29.265800
N -24.051700 -8.084300 -27.332700
H -23.977800 -7.226300 -31.025300
N -23.691000 -8.745900 -25.142200
N -23.552900 -7.787000 -28.613300
C -23.164900 -8.368300 -26.306700
N -22.845900 -9.033800 -24.168100
N -21.860700 -8.236200 -26.582900
C -21.516300 -8.941600 -24.435100
N -21.013300 -8.527500 -25.627500
H -20.975700 -9.615100 -22.676300
N -20.654000 -9.255500 -23.485800
H -19.812800 -9.163900 -23.677400
H -28.712200 -4.107500 -29.197600
N -27.871000 -4.015900 -29.389200
H -27.549300 -3.656300 -30.198700
N -27.511700 -4.743900 -27.247500
C -27.008700 -4.329800 -28.439900
N -26.664300 -5.035200 -26.292100
N -25.679100 -4.237600 -28.706900
C -25.360100 -4.903100 -26.568300
N -24.972100 -5.484400 -24.261700
N -24.834000 -4.525500 -27.732800
H -24.547200 -6.045100 -21.849700
N -24.473300 -5.187100 -25.542300
C -23.849200 -5.757800 -23.609200
N -23.832900 -6.144700 -22.329100
C -23.108100 -5.272700 -25.515400
H -23.034800 -6.237600 -21.872600
N -22.691300 -5.651600 -24.321600
H -22.641800 -4.737900 -27.274700
N -22.310300 -4.978100 -26.539200
H -21.406000 -5.063000 -26.398700
