20
Fragment
H -27.119000 -8.208400 -26.476300
N -26.214700 -8.293300 -26.335800
H -25.883200 -8.533500 -25.600300
N -25.833700 -7.619800 -28.553400
H -25.490200 -7.033800 -31.002400
C -25.416900 -7.998700 -27.359600
N -24.692100 -7.126700 -30.545900
C -24.675800 -7.513600 -29.265800
N -24.051700 -8.084300 -27.332700
H -23.977800 -7.226300 -31.025300
N -23.691000 -8.745900 -25.142200
N -23.552900 -7.787000 -28.613300
C -23.164900 -8.368300 -26.306700
N -22.845900 -9.033800 -24.168100
N -21.860700 -8.236200 -26.582900
C -21.516300 -8.941600 -24.435100
N -21.013300 -8.527500 -25.627500
H -20.975700 -9.615100 -22.676300
N -20.654000 -9.255500 -23.485800
H -19.812800 -9.163900 -23.677400
20
Fragment
H -28.712200 -5.846100 -38.010100
N -27.871000 -5.937600 -38.201700
H -27.549300 -6.297300 -39.011200
N -27.511700 -5.209700 -36.060000
C -27.008700 -5.623800 -37.252400
N -26.664300 -4.918400 -35.104600
N -25.679100 -5.716000 -37.519400
C -25.360100 -5.050400 -35.380800
N -24.972100 -4.469100 -33.074200
N -24.834000 -5.428000 -36.545300
H -24.547200 -3.908400 -30.662200
N -24.473300 -4.766400 -34.354800
C -23.849200 -4.195800 -32.421700
N -23.832900 -3.808900 -31.141600
C -23.108100 -4.680800 -34.327900
H -23.034800 -3.716000 -30.685100
N -22.691300 -4.301900 -33.134100
H -22.641800 -5.215700 -36.087200
N -22.310300 -4.975400 -35.351700
H -21.406000 -4.890500 -35.211200
40
Fragment
H -27.119000 -8.208400 -26.476300
N -26.214700 -8.293300 -26.335800
H -25.883200 -8.533500 -25.600300
N -25.833700 -7.619800 -28.553400
H -25.490200 -7.033800 -31.002400
C -25.416900 -7.998700 -27.359600
N -24.692100 -7.126700 -30.545900
C -24.675800 -7.513600 -29.265800
N -24.051700 -8.084300 -27.332700
H -23.977800 -7.226300 -31.025300
N -23.691000 -8.745900 -25.142200
N -23.552900 -7.787000 -28.613300
C -23.164900 -8.368300 -26.306700
N -22.845900 -9.033800 -24.168100
N -21.860700 -8.236200 -26.582900
C -21.516300 -8.941600 -24.435100
N -21.013300 -8.527500 -25.627500
H -20.975700 -9.615100 -22.676300
N -20.654000 -9.255500 -23.485800
H -19.812800 -9.163900 -23.677400
H -28.712200 -5.846100 -38.010100
N -27.871000 -5.937600 -38.201700
H -27.549300 -6.297300 -39.011200
N -27.511700 -5.209700 -36.060000
C -27.008700 -5.623800 -37.252400
N -26.664300 -4.918400 -35.104600
N -25.679100 -5.716000 -37.519400
C -25.360100 -5.050400 -35.380800
N -24.972100 -4.469100 -33.074200
N -24.834000 -5.428000 -36.545300
H -24.547200 -3.908400 -30.662200
N -24.473300 -4.766400 -34.354800
C -23.849200 -4.195800 -32.421700
N -23.832900 -3.808900 -31.141600
C -23.108100 -4.680800 -34.327900
H -23.034800 -3.716000 -30.685100
N -22.691300 -4.301900 -33.134100
H -22.641800 -5.215700 -36.087200
N -22.310300 -4.975400 -35.351700
H -21.406000 -4.890500 -35.211200
