20
Fragment
H -27.119000 -8.208400 -26.476300
N -26.214700 -8.293300 -26.335800
H -25.883200 -8.533500 -25.600300
N -25.833700 -7.619800 -28.553400
H -25.490200 -7.033800 -31.002400
C -25.416900 -7.998700 -27.359600
N -24.692100 -7.126700 -30.545900
C -24.675800 -7.513600 -29.265800
N -24.051700 -8.084300 -27.332700
H -23.977800 -7.226300 -31.025300
N -23.691000 -8.745900 -25.142200
N -23.552900 -7.787000 -28.613300
C -23.164900 -8.368300 -26.306700
N -22.845900 -9.033800 -24.168100
N -21.860700 -8.236200 -26.582900
C -21.516300 -8.941600 -24.435100
N -21.013300 -8.527500 -25.627500
H -20.975700 -9.615100 -22.676300
N -20.654000 -9.255500 -23.485800
H -19.812800 -9.163900 -23.677400
20
Fragment
H -35.206500 -8.380900 -26.398700
N -34.302200 -8.296000 -26.539200
H -33.970700 -8.055700 -27.274700
N -33.921200 -8.969500 -24.321600
H -33.577700 -9.555400 -21.872600
C -33.504400 -8.590600 -25.515400
N -32.779600 -9.462500 -22.329100
C -32.763300 -9.075600 -23.609200
N -32.139200 -8.505000 -25.542300
H -32.065300 -9.363000 -21.849700
N -31.778500 -7.843400 -27.732800
N -31.640400 -8.802300 -24.261700
C -31.252400 -8.221000 -26.568300
N -30.933400 -7.555400 -28.706900
N -29.948200 -8.353000 -26.292100
C -29.603800 -7.647600 -28.439900
N -29.100800 -8.061700 -27.247500
H -29.063200 -6.974100 -30.198700
N -28.741500 -7.333800 -29.389200
H -27.900300 -7.425300 -29.197600
40
Fragment
H -27.119000 -8.208400 -26.476300
N -26.214700 -8.293300 -26.335800
H -25.883200 -8.533500 -25.600300
N -25.833700 -7.619800 -28.553400
H -25.490200 -7.033800 -31.002400
C -25.416900 -7.998700 -27.359600
N -24.692100 -7.126700 -30.545900
C -24.675800 -7.513600 -29.265800
N -24.051700 -8.084300 -27.332700
H -23.977800 -7.226300 -31.025300
N -23.691000 -8.745900 -25.142200
N -23.552900 -7.787000 -28.613300
C -23.164900 -8.368300 -26.306700
N -22.845900 -9.033800 -24.168100
N -21.860700 -8.236200 -26.582900
C -21.516300 -8.941600 -24.435100
N -21.013300 -8.527500 -25.627500
H -20.975700 -9.615100 -22.676300
N -20.654000 -9.255500 -23.485800
H -19.812800 -9.163900 -23.677400
H -35.206500 -8.380900 -26.398700
N -34.302200 -8.296000 -26.539200
H -33.970700 -8.055700 -27.274700
N -33.921200 -8.969500 -24.321600
H -33.577700 -9.555400 -21.872600
C -33.504400 -8.590600 -25.515400
N -32.779600 -9.462500 -22.329100
C -32.763300 -9.075600 -23.609200
N -32.139200 -8.505000 -25.542300
H -32.065300 -9.363000 -21.849700
N -31.778500 -7.843400 -27.732800
N -31.640400 -8.802300 -24.261700
C -31.252400 -8.221000 -26.568300
N -30.933400 -7.555400 -28.706900
N -29.948200 -8.353000 -26.292100
C -29.603800 -7.647600 -28.439900
N -29.100800 -8.061700 -27.247500
H -29.063200 -6.974100 -30.198700
N -28.741500 -7.333800 -29.389200
H -27.900300 -7.425300 -29.197600
