20
Fragment
H -27.119000 -8.208400 -26.476300
N -26.214700 -8.293300 -26.335800
H -25.883200 -8.533500 -25.600300
N -25.833700 -7.619800 -28.553400
H -25.490200 -7.033800 -31.002400
C -25.416900 -7.998700 -27.359600
N -24.692100 -7.126700 -30.545900
C -24.675800 -7.513600 -29.265800
N -24.051700 -8.084300 -27.332700
H -23.977800 -7.226300 -31.025300
N -23.691000 -8.745900 -25.142200
N -23.552900 -7.787000 -28.613300
C -23.164900 -8.368300 -26.306700
N -22.845900 -9.033800 -24.168100
N -21.860700 -8.236200 -26.582900
C -21.516300 -8.941600 -24.435100
N -21.013300 -8.527500 -25.627500
H -20.975700 -9.615100 -22.676300
N -20.654000 -9.255500 -23.485800
H -19.812800 -9.163900 -23.677400
20
Fragment
H -20.624700 -5.846100 -23.677400
N -19.783500 -5.937600 -23.485800
H -19.461800 -6.297300 -22.676300
N -19.424200 -5.209700 -25.627500
C -18.921200 -5.623800 -24.435100
N -18.576800 -4.918400 -26.582900
N -17.591600 -5.716000 -24.168100
C -17.272600 -5.050400 -26.306700
N -16.884600 -4.469100 -28.613300
N -16.746500 -5.428000 -25.142200
H -16.459700 -3.908400 -31.025300
N -16.385800 -4.766400 -27.332700
C -15.761700 -4.195800 -29.265800
N -15.745400 -3.808900 -30.545900
C -15.020600 -4.680800 -27.359600
H -14.947300 -3.716000 -31.002400
N -14.603800 -4.301900 -28.553400
H -14.554300 -5.215700 -25.600300
N -14.222800 -4.975400 -26.335800
H -13.318500 -4.890500 -26.476300
40
Fragment
H -27.119000 -8.208400 -26.476300
N -26.214700 -8.293300 -26.335800
H -25.883200 -8.533500 -25.600300
N -25.833700 -7.619800 -28.553400
H -25.490200 -7.033800 -31.002400
C -25.416900 -7.998700 -27.359600
N -24.692100 -7.126700 -30.545900
C -24.675800 -7.513600 -29.265800
N -24.051700 -8.084300 -27.332700
H -23.977800 -7.226300 -31.025300
N -23.691000 -8.745900 -25.142200
N -23.552900 -7.787000 -28.613300
C -23.164900 -8.368300 -26.306700
N -22.845900 -9.033800 -24.168100
N -21.860700 -8.236200 -26.582900
C -21.516300 -8.941600 -24.435100
N -21.013300 -8.527500 -25.627500
H -20.975700 -9.615100 -22.676300
N -20.654000 -9.255500 -23.485800
H -19.812800 -9.163900 -23.677400
H -20.624700 -5.846100 -23.677400
N -19.783500 -5.937600 -23.485800
H -19.461800 -6.297300 -22.676300
N -19.424200 -5.209700 -25.627500
C -18.921200 -5.623800 -24.435100
N -18.576800 -4.918400 -26.582900
N -17.591600 -5.716000 -24.168100
C -17.272600 -5.050400 -26.306700
N -16.884600 -4.469100 -28.613300
N -16.746500 -5.428000 -25.142200
H -16.459700 -3.908400 -31.025300
N -16.385800 -4.766400 -27.332700
C -15.761700 -4.195800 -29.265800
N -15.745400 -3.808900 -30.545900
C -15.020600 -4.680800 -27.359600
H -14.947300 -3.716000 -31.002400
N -14.603800 -4.301900 -28.553400
H -14.554300 -5.215700 -25.600300
N -14.222800 -4.975400 -26.335800
H -13.318500 -4.890500 -26.476300
