20
Fragment
H -27.119000 -8.208400 -26.476300
N -26.214700 -8.293300 -26.335800
H -25.883200 -8.533500 -25.600300
N -25.833700 -7.619800 -28.553400
H -25.490200 -7.033800 -31.002400
C -25.416900 -7.998700 -27.359600
N -24.692100 -7.126700 -30.545900
C -24.675800 -7.513600 -29.265800
N -24.051700 -8.084300 -27.332700
H -23.977800 -7.226300 -31.025300
N -23.691000 -8.745900 -25.142200
N -23.552900 -7.787000 -28.613300
C -23.164900 -8.368300 -26.306700
N -22.845900 -9.033800 -24.168100
N -21.860700 -8.236200 -26.582900
C -21.516300 -8.941600 -24.435100
N -21.013300 -8.527500 -25.627500
H -20.975700 -9.615100 -22.676300
N -20.654000 -9.255500 -23.485800
H -19.812800 -9.163900 -23.677400
20
Fragment
H -20.624700 -12.481800 -23.677400
N -19.783500 -12.573300 -23.485800
H -19.461800 -12.933000 -22.676300
N -19.424200 -11.845400 -25.627500
C -18.921200 -12.259500 -24.435100
N -18.576800 -11.554100 -26.582900
N -17.591600 -12.351700 -24.168100
C -17.272600 -11.686100 -26.306700
N -16.884600 -11.104800 -28.613300
N -16.746500 -12.063700 -25.142200
H -16.459700 -10.544100 -31.025300
N -16.385800 -11.402100 -27.332700
C -15.761700 -10.831500 -29.265800
N -15.745400 -10.444600 -30.545900
C -15.020600 -11.316500 -27.359600
H -14.947300 -10.351700 -31.002400
N -14.603800 -10.937600 -28.553400
H -14.554300 -11.851400 -25.600300
N -14.222800 -11.611100 -26.335800
H -13.318500 -11.526200 -26.476300
40
Fragment
H -27.119000 -8.208400 -26.476300
N -26.214700 -8.293300 -26.335800
H -25.883200 -8.533500 -25.600300
N -25.833700 -7.619800 -28.553400
H -25.490200 -7.033800 -31.002400
C -25.416900 -7.998700 -27.359600
N -24.692100 -7.126700 -30.545900
C -24.675800 -7.513600 -29.265800
N -24.051700 -8.084300 -27.332700
H -23.977800 -7.226300 -31.025300
N -23.691000 -8.745900 -25.142200
N -23.552900 -7.787000 -28.613300
C -23.164900 -8.368300 -26.306700
N -22.845900 -9.033800 -24.168100
N -21.860700 -8.236200 -26.582900
C -21.516300 -8.941600 -24.435100
N -21.013300 -8.527500 -25.627500
H -20.975700 -9.615100 -22.676300
N -20.654000 -9.255500 -23.485800
H -19.812800 -9.163900 -23.677400
H -20.624700 -12.481800 -23.677400
N -19.783500 -12.573300 -23.485800
H -19.461800 -12.933000 -22.676300
N -19.424200 -11.845400 -25.627500
C -18.921200 -12.259500 -24.435100
N -18.576800 -11.554100 -26.582900
N -17.591600 -12.351700 -24.168100
C -17.272600 -11.686100 -26.306700
N -16.884600 -11.104800 -28.613300
N -16.746500 -12.063700 -25.142200
H -16.459700 -10.544100 -31.025300
N -16.385800 -11.402100 -27.332700
C -15.761700 -10.831500 -29.265800
N -15.745400 -10.444600 -30.545900
C -15.020600 -11.316500 -27.359600
H -14.947300 -10.351700 -31.002400
N -14.603800 -10.937600 -28.553400
H -14.554300 -11.851400 -25.600300
N -14.222800 -11.611100 -26.335800
H -13.318500 -11.526200 -26.476300
