20
Fragment
H -27.119000 -8.208400 -26.476300
N -26.214700 -8.293300 -26.335800
H -25.883200 -8.533500 -25.600300
N -25.833700 -7.619800 -28.553400
H -25.490200 -7.033800 -31.002400
C -25.416900 -7.998700 -27.359600
N -24.692100 -7.126700 -30.545900
C -24.675800 -7.513600 -29.265800
N -24.051700 -8.084300 -27.332700
H -23.977800 -7.226300 -31.025300
N -23.691000 -8.745900 -25.142200
N -23.552900 -7.787000 -28.613300
C -23.164900 -8.368300 -26.306700
N -22.845900 -9.033800 -24.168100
N -21.860700 -8.236200 -26.582900
C -21.516300 -8.941600 -24.435100
N -21.013300 -8.527500 -25.627500
H -20.975700 -9.615100 -22.676300
N -20.654000 -9.255500 -23.485800
H -19.812800 -9.163900 -23.677400
20
Fragment
H -27.119000 -8.380900 -35.288800
N -26.214700 -8.296000 -35.148300
H -25.883200 -8.055700 -34.412800
N -25.833700 -8.969500 -37.365900
H -25.490200 -9.555400 -39.814900
C -25.416900 -8.590600 -36.172100
N -24.692100 -9.462500 -39.358400
C -24.675800 -9.075600 -38.078300
N -24.051700 -8.505000 -36.145200
H -23.977800 -9.363000 -39.837800
N -23.691000 -7.843400 -33.954700
N -23.552900 -8.802300 -37.425800
C -23.164900 -8.221000 -35.119200
N -22.845900 -7.555400 -32.980600
N -21.860700 -8.353000 -35.395400
C -21.516300 -7.647600 -33.247600
N -21.013300 -8.061700 -34.440000
H -20.975700 -6.974100 -31.488800
N -20.654000 -7.333800 -32.298300
H -19.812800 -7.425300 -32.489900
40
Fragment
H -27.119000 -8.208400 -26.476300
N -26.214700 -8.293300 -26.335800
H -25.883200 -8.533500 -25.600300
N -25.833700 -7.619800 -28.553400
H -25.490200 -7.033800 -31.002400
C -25.416900 -7.998700 -27.359600
N -24.692100 -7.126700 -30.545900
C -24.675800 -7.513600 -29.265800
N -24.051700 -8.084300 -27.332700
H -23.977800 -7.226300 -31.025300
N -23.691000 -8.745900 -25.142200
N -23.552900 -7.787000 -28.613300
C -23.164900 -8.368300 -26.306700
N -22.845900 -9.033800 -24.168100
N -21.860700 -8.236200 -26.582900
C -21.516300 -8.941600 -24.435100
N -21.013300 -8.527500 -25.627500
H -20.975700 -9.615100 -22.676300
N -20.654000 -9.255500 -23.485800
H -19.812800 -9.163900 -23.677400
H -27.119000 -8.380900 -35.288800
N -26.214700 -8.296000 -35.148300
H -25.883200 -8.055700 -34.412800
N -25.833700 -8.969500 -37.365900
H -25.490200 -9.555400 -39.814900
C -25.416900 -8.590600 -36.172100
N -24.692100 -9.462500 -39.358400
C -24.675800 -9.075600 -38.078300
N -24.051700 -8.505000 -36.145200
H -23.977800 -9.363000 -39.837800
N -23.691000 -7.843400 -33.954700
N -23.552900 -8.802300 -37.425800
C -23.164900 -8.221000 -35.119200
N -22.845900 -7.555400 -32.980600
N -21.860700 -8.353000 -35.395400
C -21.516300 -7.647600 -33.247600
N -21.013300 -8.061700 -34.440000
H -20.975700 -6.974100 -31.488800
N -20.654000 -7.333800 -32.298300
H -19.812800 -7.425300 -32.489900
