20
Fragment
H -27.119000 -8.208400 -26.476300
N -26.214700 -8.293300 -26.335800
H -25.883200 -8.533500 -25.600300
N -25.833700 -7.619800 -28.553400
H -25.490200 -7.033800 -31.002400
C -25.416900 -7.998700 -27.359600
N -24.692100 -7.126700 -30.545900
C -24.675800 -7.513600 -29.265800
N -24.051700 -8.084300 -27.332700
H -23.977800 -7.226300 -31.025300
N -23.691000 -8.745900 -25.142200
N -23.552900 -7.787000 -28.613300
C -23.164900 -8.368300 -26.306700
N -22.845900 -9.033800 -24.168100
N -21.860700 -8.236200 -26.582900
C -21.516300 -8.941600 -24.435100
N -21.013300 -8.527500 -25.627500
H -20.975700 -9.615100 -22.676300
N -20.654000 -9.255500 -23.485800
H -19.812800 -9.163900 -23.677400
20
Fragment
H -28.712200 -10.743200 -29.197600
N -27.871000 -10.651600 -29.389200
H -27.549300 -10.292000 -30.198700
N -27.511700 -11.379600 -27.247500
C -27.008700 -10.965500 -28.439900
N -26.664300 -11.670900 -26.292100
N -25.679100 -10.873300 -28.706900
C -25.360100 -11.538800 -26.568300
N -24.972100 -12.120100 -24.261700
N -24.834000 -11.161200 -27.732800
H -24.547200 -12.680800 -21.849700
N -24.473300 -11.822800 -25.542300
C -23.849200 -12.393500 -23.609200
N -23.832900 -12.780400 -22.329100
C -23.108100 -11.908400 -25.515400
H -23.034800 -12.873300 -21.872600
N -22.691300 -12.287300 -24.321600
H -22.641800 -11.373600 -27.274700
N -22.310300 -11.613800 -26.539200
H -21.406000 -11.698700 -26.398700
40
Fragment
H -27.119000 -8.208400 -26.476300
N -26.214700 -8.293300 -26.335800
H -25.883200 -8.533500 -25.600300
N -25.833700 -7.619800 -28.553400
H -25.490200 -7.033800 -31.002400
C -25.416900 -7.998700 -27.359600
N -24.692100 -7.126700 -30.545900
C -24.675800 -7.513600 -29.265800
N -24.051700 -8.084300 -27.332700
H -23.977800 -7.226300 -31.025300
N -23.691000 -8.745900 -25.142200
N -23.552900 -7.787000 -28.613300
C -23.164900 -8.368300 -26.306700
N -22.845900 -9.033800 -24.168100
N -21.860700 -8.236200 -26.582900
C -21.516300 -8.941600 -24.435100
N -21.013300 -8.527500 -25.627500
H -20.975700 -9.615100 -22.676300
N -20.654000 -9.255500 -23.485800
H -19.812800 -9.163900 -23.677400
H -28.712200 -10.743200 -29.197600
N -27.871000 -10.651600 -29.389200
H -27.549300 -10.292000 -30.198700
N -27.511700 -11.379600 -27.247500
C -27.008700 -10.965500 -28.439900
N -26.664300 -11.670900 -26.292100
N -25.679100 -10.873300 -28.706900
C -25.360100 -11.538800 -26.568300
N -24.972100 -12.120100 -24.261700
N -24.834000 -11.161200 -27.732800
H -24.547200 -12.680800 -21.849700
N -24.473300 -11.822800 -25.542300
C -23.849200 -12.393500 -23.609200
N -23.832900 -12.780400 -22.329100
C -23.108100 -11.908400 -25.515400
H -23.034800 -12.873300 -21.872600
N -22.691300 -12.287300 -24.321600
H -22.641800 -11.373600 -27.274700
N -22.310300 -11.613800 -26.539200
H -21.406000 -11.698700 -26.398700
