20
Fragment
H -27.119000 -8.208400 -26.476300
N -26.214700 -8.293300 -26.335800
H -25.883200 -8.533500 -25.600300
N -25.833700 -7.619800 -28.553400
H -25.490200 -7.033800 -31.002400
C -25.416900 -7.998700 -27.359600
N -24.692100 -7.126700 -30.545900
C -24.675800 -7.513600 -29.265800
N -24.051700 -8.084300 -27.332700
H -23.977800 -7.226300 -31.025300
N -23.691000 -8.745900 -25.142200
N -23.552900 -7.787000 -28.613300
C -23.164900 -8.368300 -26.306700
N -22.845900 -9.033800 -24.168100
N -21.860700 -8.236200 -26.582900
C -21.516300 -8.941600 -24.435100
N -21.013300 -8.527500 -25.627500
H -20.975700 -9.615100 -22.676300
N -20.654000 -9.255500 -23.485800
H -19.812800 -9.163900 -23.677400
20
Fragment
H -27.119000 -8.380900 -17.663800
N -26.214700 -8.296000 -17.523300
H -25.883200 -8.055700 -16.787800
N -25.833700 -8.969500 -19.740900
H -25.490200 -9.555400 -22.189900
C -25.416900 -8.590600 -18.547100
N -24.692100 -9.462500 -21.733400
C -24.675800 -9.075600 -20.453300
N -24.051700 -8.505000 -18.520200
H -23.977800 -9.363000 -22.212800
N -23.691000 -7.843400 -16.329700
N -23.552900 -8.802300 -19.800800
C -23.164900 -8.221000 -17.494200
N -22.845900 -7.555400 -15.355600
N -21.860700 -8.353000 -17.770400
C -21.516300 -7.647600 -15.622600
N -21.013300 -8.061700 -16.815000
H -20.975700 -6.974100 -13.863800
N -20.654000 -7.333800 -14.673300
H -19.812800 -7.425300 -14.864900
40
Fragment
H -27.119000 -8.208400 -26.476300
N -26.214700 -8.293300 -26.335800
H -25.883200 -8.533500 -25.600300
N -25.833700 -7.619800 -28.553400
H -25.490200 -7.033800 -31.002400
C -25.416900 -7.998700 -27.359600
N -24.692100 -7.126700 -30.545900
C -24.675800 -7.513600 -29.265800
N -24.051700 -8.084300 -27.332700
H -23.977800 -7.226300 -31.025300
N -23.691000 -8.745900 -25.142200
N -23.552900 -7.787000 -28.613300
C -23.164900 -8.368300 -26.306700
N -22.845900 -9.033800 -24.168100
N -21.860700 -8.236200 -26.582900
C -21.516300 -8.941600 -24.435100
N -21.013300 -8.527500 -25.627500
H -20.975700 -9.615100 -22.676300
N -20.654000 -9.255500 -23.485800
H -19.812800 -9.163900 -23.677400
H -27.119000 -8.380900 -17.663800
N -26.214700 -8.296000 -17.523300
H -25.883200 -8.055700 -16.787800
N -25.833700 -8.969500 -19.740900
H -25.490200 -9.555400 -22.189900
C -25.416900 -8.590600 -18.547100
N -24.692100 -9.462500 -21.733400
C -24.675800 -9.075600 -20.453300
N -24.051700 -8.505000 -18.520200
H -23.977800 -9.363000 -22.212800
N -23.691000 -7.843400 -16.329700
N -23.552900 -8.802300 -19.800800
C -23.164900 -8.221000 -17.494200
N -22.845900 -7.555400 -15.355600
N -21.860700 -8.353000 -17.770400
C -21.516300 -7.647600 -15.622600
N -21.013300 -8.061700 -16.815000
H -20.975700 -6.974100 -13.863800
N -20.654000 -7.333800 -14.673300
H -19.812800 -7.425300 -14.864900
