21
Fragment
H -2.765800 -31.669900 -15.859700
O -2.577900 -33.234500 -13.826100
N -1.966700 -31.532400 -15.388400
C -1.769300 -32.334400 -14.214500
O -1.542000 -29.959100 -16.983300
H -1.529400 -33.816800 -11.707200
C -1.133100 -30.556000 -15.956500
C -0.537100 -33.726500 -11.483500
C -0.487900 -32.082000 -13.574400
H -0.406900 -33.442200 -10.410200
H -0.115200 -34.596600 -11.593200
N 0.110700 -32.667800 -12.393000
N 0.173100 -30.310900 -15.307700
C 0.439900 -31.104800 -14.101600
H 0.836000 -28.440900 -15.844400
C 1.218300 -29.305600 -15.827800
C 1.350100 -32.033400 -12.286400
N 1.547200 -31.070600 -13.253000
H 1.564100 -29.523100 -16.696500
H 1.962900 -29.284300 -15.240700
H 2.031000 -32.232900 -11.612500
17
Fragment
H -7.951500 -25.124300 -18.289700
O -7.082400 -24.137000 -16.277100
O -7.079800 -25.423600 -18.165300
C -6.603600 -25.106800 -16.934600
H -6.242300 -24.184600 -14.718500
N -5.377900 -24.473700 -14.463900
C -5.321000 -25.740800 -16.585800
H -5.106300 -26.872500 -18.319200
H -5.075100 -24.276600 -13.612900
C -4.711300 -25.385000 -15.319100
C -4.683400 -26.647500 -17.486700
C -3.453500 -27.192300 -17.202300
C -3.416400 -25.967500 -15.030500
H -3.040300 -27.764000 -17.851900
H -2.954100 -25.759600 -14.213500
C -2.829200 -26.867200 -15.926000
H -1.948900 -27.227300 -15.686600
38
Fragment
H -2.765800 -31.669900 -15.859700
O -2.577900 -33.234500 -13.826100
N -1.966700 -31.532400 -15.388400
C -1.769300 -32.334400 -14.214500
O -1.542000 -29.959100 -16.983300
H -1.529400 -33.816800 -11.707200
C -1.133100 -30.556000 -15.956500
C -0.537100 -33.726500 -11.483500
C -0.487900 -32.082000 -13.574400
H -0.406900 -33.442200 -10.410200
H -0.115200 -34.596600 -11.593200
N 0.110700 -32.667800 -12.393000
N 0.173100 -30.310900 -15.307700
C 0.439900 -31.104800 -14.101600
H 0.836000 -28.440900 -15.844400
C 1.218300 -29.305600 -15.827800
C 1.350100 -32.033400 -12.286400
N 1.547200 -31.070600 -13.253000
H 1.564100 -29.523100 -16.696500
H 1.962900 -29.284300 -15.240700
H 2.031000 -32.232900 -11.612500
H -7.951500 -25.124300 -18.289700
O -7.082400 -24.137000 -16.277100
O -7.079800 -25.423600 -18.165300
C -6.603600 -25.106800 -16.934600
H -6.242300 -24.184600 -14.718500
N -5.377900 -24.473700 -14.463900
C -5.321000 -25.740800 -16.585800
H -5.106300 -26.872500 -18.319200
H -5.075100 -24.276600 -13.612900
C -4.711300 -25.385000 -15.319100
C -4.683400 -26.647500 -17.486700
C -3.453500 -27.192300 -17.202300
C -3.416400 -25.967500 -15.030500
H -3.040300 -27.764000 -17.851900
H -2.954100 -25.759600 -14.213500
C -2.829200 -26.867200 -15.926000
H -1.948900 -27.227300 -15.686600
