21
Fragment
H -2.765800 -31.669900 -15.859700
O -2.577900 -33.234500 -13.826100
N -1.966700 -31.532400 -15.388400
C -1.769300 -32.334400 -14.214500
O -1.542000 -29.959100 -16.983300
H -1.529400 -33.816800 -11.707200
C -1.133100 -30.556000 -15.956500
C -0.537100 -33.726500 -11.483500
C -0.487900 -32.082000 -13.574400
H -0.406900 -33.442200 -10.410200
H -0.115200 -34.596600 -11.593200
N 0.110700 -32.667800 -12.393000
N 0.173100 -30.310900 -15.307700
C 0.439900 -31.104800 -14.101600
H 0.836000 -28.440900 -15.844400
C 1.218300 -29.305600 -15.827800
C 1.350100 -32.033400 -12.286400
N 1.547200 -31.070600 -13.253000
H 1.564100 -29.523100 -16.696500
H 1.962900 -29.284300 -15.240700
H 2.031000 -32.232900 -11.612500
21
Fragment
H 0.001100 -33.486000 -8.747800
H 0.069200 -36.434600 -5.119600
H 0.468000 -36.195800 -3.663800
N 0.484900 -34.648300 -7.107300
C 0.682000 -33.685500 -8.073900
C 0.813800 -36.413300 -4.532500
H 1.196100 -37.278000 -4.515900
C 1.592200 -34.614100 -6.258800
N 1.859000 -35.408000 -5.052600
N 1.921400 -33.051100 -7.967300
H 2.147300 -31.122300 -8.767200
H 2.439000 -32.276700 -9.950100
C 2.520000 -33.636900 -6.785900
C 2.569200 -31.992400 -8.876800
C 3.165200 -35.162900 -4.403800
H 3.561500 -31.902100 -8.653100
O 3.574100 -35.759800 -3.377100
C 3.801400 -33.384500 -6.145900
N 3.998800 -34.186500 -4.971900
O 4.610000 -32.484400 -6.534200
H 4.797900 -34.049000 -4.500600
42
Fragment
H -2.765800 -31.669900 -15.859700
O -2.577900 -33.234500 -13.826100
N -1.966700 -31.532400 -15.388400
C -1.769300 -32.334400 -14.214500
O -1.542000 -29.959100 -16.983300
H -1.529400 -33.816800 -11.707200
C -1.133100 -30.556000 -15.956500
C -0.537100 -33.726500 -11.483500
C -0.487900 -32.082000 -13.574400
H -0.406900 -33.442200 -10.410200
H -0.115200 -34.596600 -11.593200
N 0.110700 -32.667800 -12.393000
N 0.173100 -30.310900 -15.307700
C 0.439900 -31.104800 -14.101600
H 0.836000 -28.440900 -15.844400
C 1.218300 -29.305600 -15.827800
C 1.350100 -32.033400 -12.286400
N 1.547200 -31.070600 -13.253000
H 1.564100 -29.523100 -16.696500
H 1.962900 -29.284300 -15.240700
H 2.031000 -32.232900 -11.612500
H 0.001100 -33.486000 -8.747800
H 0.069200 -36.434600 -5.119600
H 0.468000 -36.195800 -3.663800
N 0.484900 -34.648300 -7.107300
C 0.682000 -33.685500 -8.073900
C 0.813800 -36.413300 -4.532500
H 1.196100 -37.278000 -4.515900
C 1.592200 -34.614100 -6.258800
N 1.859000 -35.408000 -5.052600
N 1.921400 -33.051100 -7.967300
H 2.147300 -31.122300 -8.767200
H 2.439000 -32.276700 -9.950100
C 2.520000 -33.636900 -6.785900
C 2.569200 -31.992400 -8.876800
C 3.165200 -35.162900 -4.403800
H 3.561500 -31.902100 -8.653100
O 3.574100 -35.759800 -3.377100
C 3.801400 -33.384500 -6.145900
N 3.998800 -34.186500 -4.971900
O 4.610000 -32.484400 -6.534200
H 4.797900 -34.049000 -4.500600
