21
Fragment
H -2.765800 -31.669900 -15.859700
O -2.577900 -33.234500 -13.826100
N -1.966700 -31.532400 -15.388400
C -1.769300 -32.334400 -14.214500
O -1.542000 -29.959100 -16.983300
H -1.529400 -33.816800 -11.707200
C -1.133100 -30.556000 -15.956500
C -0.537100 -33.726500 -11.483500
C -0.487900 -32.082000 -13.574400
H -0.406900 -33.442200 -10.410200
H -0.115200 -34.596600 -11.593200
N 0.110700 -32.667800 -12.393000
N 0.173100 -30.310900 -15.307700
C 0.439900 -31.104800 -14.101600
H 0.836000 -28.440900 -15.844400
C 1.218300 -29.305600 -15.827800
C 1.350100 -32.033400 -12.286400
N 1.547200 -31.070600 -13.253000
H 1.564100 -29.523100 -16.696500
H 1.962900 -29.284300 -15.240700
H 2.031000 -32.232900 -11.612500
21
Fragment
H 3.812700 -31.669900 -15.859700
O 4.000600 -33.234500 -13.826100
N 4.611800 -31.532400 -15.388400
C 4.809100 -32.334400 -14.214500
O 5.036500 -29.959100 -16.983300
H 5.049100 -33.816800 -11.707200
C 5.445400 -30.556000 -15.956500
C 6.041300 -33.726500 -11.483500
C 6.090500 -32.082000 -13.574400
H 6.171500 -33.442200 -10.410200
H 6.463300 -34.596600 -11.593200
N 6.689200 -32.667800 -12.393000
N 6.751600 -30.310900 -15.307700
C 7.018300 -31.104800 -14.101600
H 7.414500 -28.440900 -15.844400
C 7.796700 -29.305600 -15.827800
C 7.928500 -32.033400 -12.286400
N 8.125700 -31.070600 -13.253000
H 8.142600 -29.523100 -16.696500
H 8.541300 -29.284300 -15.240700
H 8.609400 -32.232900 -11.612500
42
Fragment
H -2.765800 -31.669900 -15.859700
O -2.577900 -33.234500 -13.826100
N -1.966700 -31.532400 -15.388400
C -1.769300 -32.334400 -14.214500
O -1.542000 -29.959100 -16.983300
H -1.529400 -33.816800 -11.707200
C -1.133100 -30.556000 -15.956500
C -0.537100 -33.726500 -11.483500
C -0.487900 -32.082000 -13.574400
H -0.406900 -33.442200 -10.410200
H -0.115200 -34.596600 -11.593200
N 0.110700 -32.667800 -12.393000
N 0.173100 -30.310900 -15.307700
C 0.439900 -31.104800 -14.101600
H 0.836000 -28.440900 -15.844400
C 1.218300 -29.305600 -15.827800
C 1.350100 -32.033400 -12.286400
N 1.547200 -31.070600 -13.253000
H 1.564100 -29.523100 -16.696500
H 1.962900 -29.284300 -15.240700
H 2.031000 -32.232900 -11.612500
H 3.812700 -31.669900 -15.859700
O 4.000600 -33.234500 -13.826100
N 4.611800 -31.532400 -15.388400
C 4.809100 -32.334400 -14.214500
O 5.036500 -29.959100 -16.983300
H 5.049100 -33.816800 -11.707200
C 5.445400 -30.556000 -15.956500
C 6.041300 -33.726500 -11.483500
C 6.090500 -32.082000 -13.574400
H 6.171500 -33.442200 -10.410200
H 6.463300 -34.596600 -11.593200
N 6.689200 -32.667800 -12.393000
N 6.751600 -30.310900 -15.307700
C 7.018300 -31.104800 -14.101600
H 7.414500 -28.440900 -15.844400
C 7.796700 -29.305600 -15.827800
C 7.928500 -32.033400 -12.286400
N 8.125700 -31.070600 -13.253000
H 8.142600 -29.523100 -16.696500
H 8.541300 -29.284300 -15.240700
H 8.609400 -32.232900 -11.612500
