17
Fragment
O -9.680500 -10.714500 -22.242400
H -9.354200 -12.715200 -22.287900
H -8.913800 -8.498400 -22.454700
H -8.620200 -14.193200 -22.370600
N -8.588700 -13.252200 -22.365100
C -8.500700 -10.345200 -22.493300
O -8.161400 -9.049600 -22.526400
C -7.421100 -12.613300 -22.596700
C -7.307100 -11.213800 -22.661500
H -6.370700 -14.296000 -22.733200
C -6.273100 -13.372100 -22.821400
C -6.031500 -10.654500 -22.898600
H -5.967200 -9.709600 -22.935800
C -5.040800 -12.798900 -23.069600
C -4.865800 -11.429200 -23.024100
H -4.288000 -13.348400 -23.201900
H -3.983900 -11.029700 -23.167400
24
Fragment
H -2.792700 -13.400700 -25.671000
H -2.486200 -12.074000 -26.401600
H -2.339300 -12.169900 -24.846600
C -2.249600 -12.630300 -25.671000
O -1.186400 -15.216000 -25.824000
N -0.857700 -12.954300 -25.830900
C -0.410200 -14.253100 -25.853000
N -0.244800 -10.624500 -25.956400
C 0.040100 -11.947300 -25.985300
H 0.902300 -16.191400 -27.095100
N 0.950300 -14.456400 -26.085900
C 0.953500 -10.019800 -26.163100
H 1.031900 -16.376600 -25.574500
H 1.063400 -9.072800 -26.199000
C 1.321400 -15.867700 -26.310700
C 1.398200 -12.158200 -26.203100
C 1.959600 -13.460100 -26.247200
N 1.982300 -10.897700 -26.321700
H 2.264900 -15.906700 -26.409900
O 3.167500 -13.745700 -26.396100
C 3.405800 -10.560300 -26.593300
H 3.506300 -9.623900 -26.619500
H 3.667500 -10.925500 -27.434200
H 3.976200 -10.888500 -25.883300
41
Fragment
O -9.680500 -10.714500 -22.242400
H -9.354200 -12.715200 -22.287900
H -8.913800 -8.498400 -22.454700
H -8.620200 -14.193200 -22.370600
N -8.588700 -13.252200 -22.365100
C -8.500700 -10.345200 -22.493300
O -8.161400 -9.049600 -22.526400
C -7.421100 -12.613300 -22.596700
C -7.307100 -11.213800 -22.661500
H -6.370700 -14.296000 -22.733200
C -6.273100 -13.372100 -22.821400
C -6.031500 -10.654500 -22.898600
H -5.967200 -9.709600 -22.935800
C -5.040800 -12.798900 -23.069600
C -4.865800 -11.429200 -23.024100
H -4.288000 -13.348400 -23.201900
H -3.983900 -11.029700 -23.167400
H -2.792700 -13.400700 -25.671000
H -2.486200 -12.074000 -26.401600
H -2.339300 -12.169900 -24.846600
C -2.249600 -12.630300 -25.671000
O -1.186400 -15.216000 -25.824000
N -0.857700 -12.954300 -25.830900
C -0.410200 -14.253100 -25.853000
N -0.244800 -10.624500 -25.956400
C 0.040100 -11.947300 -25.985300
H 0.902300 -16.191400 -27.095100
N 0.950300 -14.456400 -26.085900
C 0.953500 -10.019800 -26.163100
H 1.031900 -16.376600 -25.574500
H 1.063400 -9.072800 -26.199000
C 1.321400 -15.867700 -26.310700
C 1.398200 -12.158200 -26.203100
C 1.959600 -13.460100 -26.247200
N 1.982300 -10.897700 -26.321700
H 2.264900 -15.906700 -26.409900
O 3.167500 -13.745700 -26.396100
C 3.405800 -10.560300 -26.593300
H 3.506300 -9.623900 -26.619500
H 3.667500 -10.925500 -27.434200
H 3.976200 -10.888500 -25.883300
