17
Fragment
O -9.680500 -10.714500 -22.242400
H -9.354200 -12.715200 -22.287900
H -8.913800 -8.498400 -22.454700
H -8.620200 -14.193200 -22.370600
N -8.588700 -13.252200 -22.365100
C -8.500700 -10.345200 -22.493300
O -8.161400 -9.049600 -22.526400
C -7.421100 -12.613300 -22.596700
C -7.307100 -11.213800 -22.661500
H -6.370700 -14.296000 -22.733200
C -6.273100 -13.372100 -22.821400
C -6.031500 -10.654500 -22.898600
H -5.967200 -9.709600 -22.935800
C -5.040800 -12.798900 -23.069600
C -4.865800 -11.429200 -23.024100
H -4.288000 -13.348400 -23.201900
H -3.983900 -11.029700 -23.167400
17
Fragment
O -18.165800 -10.714500 -22.242400
H -17.839500 -12.715200 -22.287900
H -17.399100 -8.498400 -22.454700
H -17.105500 -14.193200 -22.370600
N -17.074000 -13.252200 -22.365100
C -16.986000 -10.345200 -22.493300
O -16.646700 -9.049600 -22.526400
C -15.906400 -12.613300 -22.596700
C -15.792400 -11.213800 -22.661500
H -14.856000 -14.296000 -22.733200
C -14.758400 -13.372100 -22.821400
C -14.516800 -10.654500 -22.898600
H -14.452500 -9.709600 -22.935800
C -13.526100 -12.798900 -23.069600
C -13.351100 -11.429200 -23.024100
H -12.773300 -13.348400 -23.201900
H -12.469200 -11.029700 -23.167400
34
Fragment
O -9.680500 -10.714500 -22.242400
H -9.354200 -12.715200 -22.287900
H -8.913800 -8.498400 -22.454700
H -8.620200 -14.193200 -22.370600
N -8.588700 -13.252200 -22.365100
C -8.500700 -10.345200 -22.493300
O -8.161400 -9.049600 -22.526400
C -7.421100 -12.613300 -22.596700
C -7.307100 -11.213800 -22.661500
H -6.370700 -14.296000 -22.733200
C -6.273100 -13.372100 -22.821400
C -6.031500 -10.654500 -22.898600
H -5.967200 -9.709600 -22.935800
C -5.040800 -12.798900 -23.069600
C -4.865800 -11.429200 -23.024100
H -4.288000 -13.348400 -23.201900
H -3.983900 -11.029700 -23.167400
O -18.165800 -10.714500 -22.242400
H -17.839500 -12.715200 -22.287900
H -17.399100 -8.498400 -22.454700
H -17.105500 -14.193200 -22.370600
N -17.074000 -13.252200 -22.365100
C -16.986000 -10.345200 -22.493300
O -16.646700 -9.049600 -22.526400
C -15.906400 -12.613300 -22.596700
C -15.792400 -11.213800 -22.661500
H -14.856000 -14.296000 -22.733200
C -14.758400 -13.372100 -22.821400
C -14.516800 -10.654500 -22.898600
H -14.452500 -9.709600 -22.935800
C -13.526100 -12.798900 -23.069600
C -13.351100 -11.429200 -23.024100
H -12.773300 -13.348400 -23.201900
H -12.469200 -11.029700 -23.167400
