17
Fragment
O -9.680500 -10.714500 -22.242400
H -9.354200 -12.715200 -22.287900
H -8.913800 -8.498400 -22.454700
H -8.620200 -14.193200 -22.370600
N -8.588700 -13.252200 -22.365100
C -8.500700 -10.345200 -22.493300
O -8.161400 -9.049600 -22.526400
C -7.421100 -12.613300 -22.596700
C -7.307100 -11.213800 -22.661500
H -6.370700 -14.296000 -22.733200
C -6.273100 -13.372100 -22.821400
C -6.031500 -10.654500 -22.898600
H -5.967200 -9.709600 -22.935800
C -5.040800 -12.798900 -23.069600
C -4.865800 -11.429200 -23.024100
H -4.288000 -13.348400 -23.201900
H -3.983900 -11.029700 -23.167400
24
Fragment
H -14.535300 -7.213500 -22.112800
H -14.230000 -6.639700 -20.723200
H -14.056800 -8.150600 -20.986500
C -13.975100 -7.284600 -21.356000
O -13.782000 -4.314900 -21.911500
H -13.091000 -2.249400 -22.358200
C -12.591400 -4.586200 -22.099000
N -12.571900 -7.074900 -21.722700
C -12.150300 -2.211300 -22.482300
C -12.005000 -5.865500 -22.046600
H -11.937100 -1.845000 -23.323200
H -11.744600 -1.685200 -21.794400
H -11.728200 -8.927700 -21.719900
N -11.649900 -3.594700 -22.440900
C -11.599500 -7.993800 -21.866000
C -10.680200 -6.086800 -22.351300
N -10.412700 -7.424100 -22.254800
C -10.309700 -3.758100 -22.749700
N -9.812500 -5.046500 -22.678000
O -9.565600 -2.757000 -22.886200
C -8.394900 -5.266000 -22.944100
H -8.328300 -5.752700 -23.746500
H -8.017500 -5.727700 -22.212100
H -7.956100 -4.445600 -23.028200
41
Fragment
O -9.680500 -10.714500 -22.242400
H -9.354200 -12.715200 -22.287900
H -8.913800 -8.498400 -22.454700
H -8.620200 -14.193200 -22.370600
N -8.588700 -13.252200 -22.365100
C -8.500700 -10.345200 -22.493300
O -8.161400 -9.049600 -22.526400
C -7.421100 -12.613300 -22.596700
C -7.307100 -11.213800 -22.661500
H -6.370700 -14.296000 -22.733200
C -6.273100 -13.372100 -22.821400
C -6.031500 -10.654500 -22.898600
H -5.967200 -9.709600 -22.935800
C -5.040800 -12.798900 -23.069600
C -4.865800 -11.429200 -23.024100
H -4.288000 -13.348400 -23.201900
H -3.983900 -11.029700 -23.167400
H -14.535300 -7.213500 -22.112800
H -14.230000 -6.639700 -20.723200
H -14.056800 -8.150600 -20.986500
C -13.975100 -7.284600 -21.356000
O -13.782000 -4.314900 -21.911500
H -13.091000 -2.249400 -22.358200
C -12.591400 -4.586200 -22.099000
N -12.571900 -7.074900 -21.722700
C -12.150300 -2.211300 -22.482300
C -12.005000 -5.865500 -22.046600
H -11.937100 -1.845000 -23.323200
H -11.744600 -1.685200 -21.794400
H -11.728200 -8.927700 -21.719900
N -11.649900 -3.594700 -22.440900
C -11.599500 -7.993800 -21.866000
C -10.680200 -6.086800 -22.351300
N -10.412700 -7.424100 -22.254800
C -10.309700 -3.758100 -22.749700
N -9.812500 -5.046500 -22.678000
O -9.565600 -2.757000 -22.886200
C -8.394900 -5.266000 -22.944100
H -8.328300 -5.752700 -23.746500
H -8.017500 -5.727700 -22.212100
H -7.956100 -4.445600 -23.028200
