9
Fragment
H -16.047000 -16.707300 -22.092200
H -15.676800 -15.133500 -22.624100
C -15.280400 -15.875000 -22.289700
H -15.033200 -15.298400 -20.213100
H -14.867000 -16.246200 -22.913300
C -14.470000 -15.618400 -21.056700
H -14.061400 -16.413700 -20.640600
C -13.391200 -14.646800 -21.282500
N -12.574300 -13.880600 -21.474300
9
Fragment
H -15.710300 -15.174900 -16.824500
H -15.274000 -16.457800 -15.742500
C -14.994900 -15.650200 -16.246100
C -14.456400 -14.693500 -15.264200
H -14.355200 -16.967400 -17.963000
C -14.016400 -16.021400 -17.299900
N -14.016100 -13.963500 -14.519400
H -13.588600 -15.404200 -17.645600
H -13.317700 -16.522200 -16.943000
18
Fragment
H -16.047000 -16.707300 -22.092200
H -15.676800 -15.133500 -22.624100
C -15.280400 -15.875000 -22.289700
H -15.033200 -15.298400 -20.213100
H -14.867000 -16.246200 -22.913300
C -14.470000 -15.618400 -21.056700
H -14.061400 -16.413700 -20.640600
C -13.391200 -14.646800 -21.282500
N -12.574300 -13.880600 -21.474300
H -15.710300 -15.174900 -16.824500
H -15.274000 -16.457800 -15.742500
C -14.994900 -15.650200 -16.246100
C -14.456400 -14.693500 -15.264200
H -14.355200 -16.967400 -17.963000
C -14.016400 -16.021400 -17.299900
N -14.016100 -13.963500 -14.519400
H -13.588600 -15.404200 -17.645600
H -13.317700 -16.522200 -16.943000
