9
Fragment
H -16.047000 -16.707300 -22.092200
H -15.676800 -15.133500 -22.624100
C -15.280400 -15.875000 -22.289700
H -15.033200 -15.298400 -20.213100
H -14.867000 -16.246200 -22.913300
C -14.470000 -15.618400 -21.056700
H -14.061400 -16.413700 -20.640600
C -13.391200 -14.646800 -21.282500
N -12.574300 -13.880600 -21.474300
9
Fragment
H -10.788100 -14.601800 -19.953500
H -10.714100 -16.198600 -19.023900
C -10.242300 -15.288700 -19.196000
H -10.171300 -14.629200 -18.511800
H -8.944000 -15.767400 -20.650500
C -8.819900 -15.368900 -19.719400
H -8.427900 -14.556900 -19.740500
C -7.958200 -16.207400 -18.878600
N -7.308300 -16.871300 -18.218300
18
Fragment
H -16.047000 -16.707300 -22.092200
H -15.676800 -15.133500 -22.624100
C -15.280400 -15.875000 -22.289700
H -15.033200 -15.298400 -20.213100
H -14.867000 -16.246200 -22.913300
C -14.470000 -15.618400 -21.056700
H -14.061400 -16.413700 -20.640600
C -13.391200 -14.646800 -21.282500
N -12.574300 -13.880600 -21.474300
H -10.788100 -14.601800 -19.953500
H -10.714100 -16.198600 -19.023900
C -10.242300 -15.288700 -19.196000
H -10.171300 -14.629200 -18.511800
H -8.944000 -15.767400 -20.650500
C -8.819900 -15.368900 -19.719400
H -8.427900 -14.556900 -19.740500
C -7.958200 -16.207400 -18.878600
N -7.308300 -16.871300 -18.218300
