9
Fragment
H -16.047000 -16.707300 -22.092200
H -15.676800 -15.133500 -22.624100
C -15.280400 -15.875000 -22.289700
H -15.033200 -15.298400 -20.213100
H -14.867000 -16.246200 -22.913300
C -14.470000 -15.618400 -21.056700
H -14.061400 -16.413700 -20.640600
C -13.391200 -14.646800 -21.282500
N -12.574300 -13.880600 -21.474300
7
Fragment
O -11.135800 -11.557300 -23.288500
Br -10.460100 -13.003300 -23.064200
O -10.153500 -11.548500 -26.409100
Br -9.476900 -12.997100 -26.198900
O -9.448400 -12.946900 -21.818500
O -9.082000 -13.020900 -24.364900
O -7.942600 -12.933700 -26.667300
16
Fragment
H -16.047000 -16.707300 -22.092200
H -15.676800 -15.133500 -22.624100
C -15.280400 -15.875000 -22.289700
H -15.033200 -15.298400 -20.213100
H -14.867000 -16.246200 -22.913300
C -14.470000 -15.618400 -21.056700
H -14.061400 -16.413700 -20.640600
C -13.391200 -14.646800 -21.282500
N -12.574300 -13.880600 -21.474300
O -11.135800 -11.557300 -23.288500
Br -10.460100 -13.003300 -23.064200
O -10.153500 -11.548500 -26.409100
Br -9.476900 -12.997100 -26.198900
O -9.448400 -12.946900 -21.818500
O -9.082000 -13.020900 -24.364900
O -7.942600 -12.933700 -26.667300
