9
Fragment
H -16.047000 -16.707300 -22.092200
H -15.676800 -15.133500 -22.624100
C -15.280400 -15.875000 -22.289700
H -15.033200 -15.298400 -20.213100
H -14.867000 -16.246200 -22.913300
C -14.470000 -15.618400 -21.056700
H -14.061400 -16.413700 -20.640600
C -13.391200 -14.646800 -21.282500
N -12.574300 -13.880600 -21.474300
9
Fragment
N -15.822700 -21.387400 -20.848000
C -15.005800 -20.621200 -21.039800
H -14.335600 -18.854300 -21.681700
C -13.927000 -19.649600 -21.265500
H -13.529900 -19.021800 -19.409000
H -13.363800 -19.969600 -22.109200
C -13.116500 -19.393000 -20.032500
H -12.720200 -20.134500 -19.698200
H -12.350000 -18.560700 -20.230100
18
Fragment
H -16.047000 -16.707300 -22.092200
H -15.676800 -15.133500 -22.624100
C -15.280400 -15.875000 -22.289700
H -15.033200 -15.298400 -20.213100
H -14.867000 -16.246200 -22.913300
C -14.470000 -15.618400 -21.056700
H -14.061400 -16.413700 -20.640600
C -13.391200 -14.646800 -21.282500
N -12.574300 -13.880600 -21.474300
N -15.822700 -21.387400 -20.848000
C -15.005800 -20.621200 -21.039800
H -14.335600 -18.854300 -21.681700
C -13.927000 -19.649600 -21.265500
H -13.529900 -19.021800 -19.409000
H -13.363800 -19.969600 -22.109200
C -13.116500 -19.393000 -20.032500
H -12.720200 -20.134500 -19.698200
H -12.350000 -18.560700 -20.230100
