9
Fragment
H -16.047000 -16.707300 -22.092200
H -15.676800 -15.133500 -22.624100
C -15.280400 -15.875000 -22.289700
H -15.033200 -15.298400 -20.213100
H -14.867000 -16.246200 -22.913300
C -14.470000 -15.618400 -21.056700
H -14.061400 -16.413700 -20.640600
C -13.391200 -14.646800 -21.282500
N -12.574300 -13.880600 -21.474300
7
Fragment
O -12.251200 -17.342200 -22.708700
O -11.111800 -17.429400 -25.011100
O -10.745400 -17.355400 -27.557500
Br -10.717000 -17.405600 -23.177100
O -10.040400 -15.957000 -22.966900
Br -9.733700 -17.411800 -26.311800
O -9.058000 -15.965800 -26.087500
16
Fragment
H -16.047000 -16.707300 -22.092200
H -15.676800 -15.133500 -22.624100
C -15.280400 -15.875000 -22.289700
H -15.033200 -15.298400 -20.213100
H -14.867000 -16.246200 -22.913300
C -14.470000 -15.618400 -21.056700
H -14.061400 -16.413700 -20.640600
C -13.391200 -14.646800 -21.282500
N -12.574300 -13.880600 -21.474300
O -12.251200 -17.342200 -22.708700
O -11.111800 -17.429400 -25.011100
O -10.745400 -17.355400 -27.557500
Br -10.717000 -17.405600 -23.177100
O -10.040400 -15.957000 -22.966900
Br -9.733700 -17.411800 -26.311800
O -9.058000 -15.965800 -26.087500
