31
Fragment
H -16.559200 -22.854200 -16.982600
H -15.916100 -21.538300 -17.541800
C -15.732200 -22.398300 -17.156500
H -15.251300 -22.283400 -16.333500
C -14.912400 -23.200200 -18.101100
N -14.697300 -24.487000 -17.760900
H -14.579200 -21.722700 -19.444100
C -14.409000 -22.619300 -19.267300
Cl -14.118100 -19.327700 -24.809900
C -13.977100 -25.205500 -18.634200
H -13.958600 -21.799700 -23.484700
C -13.657500 -23.363100 -20.168500
N -13.627000 -26.498600 -18.560300
C -13.565200 -21.179700 -22.915400
N -13.491300 -24.677600 -19.815800
C -13.472000 -19.829700 -23.271800
F -13.294600 -28.758400 -20.721500
N -13.102700 -22.951400 -21.320200
C -13.050500 -21.567400 -21.679500
C -12.949300 -26.674100 -19.713500
C -12.873100 -18.900300 -22.451700
H -12.814400 -18.008800 -22.711100
N -12.811200 -25.637400 -20.527300
H -12.798400 -23.601700 -21.847600
C -12.433900 -20.653100 -20.840700
C -12.396100 -28.002600 -20.091700
C -12.356800 -19.318300 -21.226100
H -12.075000 -20.929600 -20.027900
F -11.996300 -28.695900 -19.037400
H -11.956100 -18.698300 -20.661100
F -11.361200 -27.900400 -20.922300
31
Fragment
H -20.573800 -33.971800 -26.480800
H -19.930600 -35.287700 -25.921600
C -19.746800 -34.427700 -26.306900
H -19.265800 -34.542600 -27.129900
C -18.927000 -33.625800 -25.362300
N -18.711800 -32.339000 -25.702500
H -18.593800 -35.103300 -24.019300
C -18.423600 -34.206700 -24.196100
Cl -18.132700 -37.498300 -18.653500
C -17.991600 -31.620500 -24.829200
H -17.973100 -35.026300 -19.978700
C -17.672000 -33.462900 -23.294900
N -17.641500 -30.327400 -24.903100
C -17.579700 -35.646300 -20.548000
N -17.505800 -32.148400 -23.647600
C -17.486600 -36.996300 -20.191600
F -17.309100 -28.067600 -22.741900
N -17.117200 -33.874600 -22.143200
C -17.065000 -35.258600 -21.783900
C -16.963900 -30.151900 -23.749900
C -16.887600 -37.925700 -21.011700
H -16.829000 -38.817200 -20.752300
N -16.825800 -31.188600 -22.936100
H -16.812900 -33.224300 -21.615800
C -16.448400 -36.172900 -22.622700
C -16.410700 -28.823400 -23.371700
C -16.371300 -37.507700 -22.237300
H -16.089500 -35.896400 -23.435500
F -16.010800 -28.130100 -24.426000
H -15.970700 -38.127700 -22.802300
F -15.375700 -28.925600 -22.541100
62
Fragment
H -16.559200 -22.854200 -16.982600
H -15.916100 -21.538300 -17.541800
C -15.732200 -22.398300 -17.156500
H -15.251300 -22.283400 -16.333500
C -14.912400 -23.200200 -18.101100
N -14.697300 -24.487000 -17.760900
H -14.579200 -21.722700 -19.444100
C -14.409000 -22.619300 -19.267300
Cl -14.118100 -19.327700 -24.809900
C -13.977100 -25.205500 -18.634200
H -13.958600 -21.799700 -23.484700
C -13.657500 -23.363100 -20.168500
N -13.627000 -26.498600 -18.560300
C -13.565200 -21.179700 -22.915400
N -13.491300 -24.677600 -19.815800
C -13.472000 -19.829700 -23.271800
F -13.294600 -28.758400 -20.721500
N -13.102700 -22.951400 -21.320200
C -13.050500 -21.567400 -21.679500
C -12.949300 -26.674100 -19.713500
C -12.873100 -18.900300 -22.451700
H -12.814400 -18.008800 -22.711100
N -12.811200 -25.637400 -20.527300
H -12.798400 -23.601700 -21.847600
C -12.433900 -20.653100 -20.840700
C -12.396100 -28.002600 -20.091700
C -12.356800 -19.318300 -21.226100
H -12.075000 -20.929600 -20.027900
F -11.996300 -28.695900 -19.037400
H -11.956100 -18.698300 -20.661100
F -11.361200 -27.900400 -20.922300
H -20.573800 -33.971800 -26.480800
H -19.930600 -35.287700 -25.921600
C -19.746800 -34.427700 -26.306900
H -19.265800 -34.542600 -27.129900
C -18.927000 -33.625800 -25.362300
N -18.711800 -32.339000 -25.702500
H -18.593800 -35.103300 -24.019300
C -18.423600 -34.206700 -24.196100
Cl -18.132700 -37.498300 -18.653500
C -17.991600 -31.620500 -24.829200
H -17.973100 -35.026300 -19.978700
C -17.672000 -33.462900 -23.294900
N -17.641500 -30.327400 -24.903100
C -17.579700 -35.646300 -20.548000
N -17.505800 -32.148400 -23.647600
C -17.486600 -36.996300 -20.191600
F -17.309100 -28.067600 -22.741900
N -17.117200 -33.874600 -22.143200
C -17.065000 -35.258600 -21.783900
C -16.963900 -30.151900 -23.749900
C -16.887600 -37.925700 -21.011700
H -16.829000 -38.817200 -20.752300
N -16.825800 -31.188600 -22.936100
H -16.812900 -33.224300 -21.615800
C -16.448400 -36.172900 -22.622700
C -16.410700 -28.823400 -23.371700
C -16.371300 -37.507700 -22.237300
H -16.089500 -35.896400 -23.435500
F -16.010800 -28.130100 -24.426000
H -15.970700 -38.127700 -22.802300
F -15.375700 -28.925600 -22.541100
