31
Fragment
H -16.559200 -22.854200 -16.982600
H -15.916100 -21.538300 -17.541800
C -15.732200 -22.398300 -17.156500
H -15.251300 -22.283400 -16.333500
C -14.912400 -23.200200 -18.101100
N -14.697300 -24.487000 -17.760900
H -14.579200 -21.722700 -19.444100
C -14.409000 -22.619300 -19.267300
Cl -14.118100 -19.327700 -24.809900
C -13.977100 -25.205500 -18.634200
H -13.958600 -21.799700 -23.484700
C -13.657500 -23.363100 -20.168500
N -13.627000 -26.498600 -18.560300
C -13.565200 -21.179700 -22.915400
N -13.491300 -24.677600 -19.815800
C -13.472000 -19.829700 -23.271800
F -13.294600 -28.758400 -20.721500
N -13.102700 -22.951400 -21.320200
C -13.050500 -21.567400 -21.679500
C -12.949300 -26.674100 -19.713500
C -12.873100 -18.900300 -22.451700
H -12.814400 -18.008800 -22.711100
N -12.811200 -25.637400 -20.527300
H -12.798400 -23.601700 -21.847600
C -12.433900 -20.653100 -20.840700
C -12.396100 -28.002600 -20.091700
C -12.356800 -19.318300 -21.226100
H -12.075000 -20.929600 -20.027900
F -11.996300 -28.695900 -19.037400
H -11.956100 -18.698300 -20.661100
F -11.361200 -27.900400 -20.922300
31
Fragment
F -16.740700 -9.983600 -28.166200
H -16.145700 -19.185700 -27.905000
F -16.105600 -9.188100 -26.281300
H -16.026900 -16.954400 -27.271800
C -15.745100 -18.565700 -28.470000
C -15.705700 -9.881400 -27.335600
C -15.668000 -17.230900 -28.084600
H -15.303500 -14.282300 -29.091500
N -15.290600 -12.246600 -27.771200
H -15.287400 -19.875200 -29.955000
C -15.228800 -18.983700 -29.695600
C -15.152500 -11.209900 -26.957400
C -15.051400 -16.316600 -28.923400
N -14.999200 -14.932600 -28.564100
F -14.807300 -9.125600 -27.965400
C -14.629800 -18.054300 -30.515700
N -14.610600 -13.206400 -27.059700
C -14.536700 -16.704300 -30.159300
N -14.474900 -11.385400 -25.804200
C -14.444400 -14.520900 -27.412400
H -14.143300 -16.084300 -30.728600
C -14.124800 -12.678500 -25.878100
Cl -13.983700 -18.556300 -32.053800
C -13.692800 -15.264700 -26.511200
H -13.522600 -16.161300 -26.688000
N -13.404600 -13.397000 -25.004800
C -13.189400 -14.683800 -25.345000
H -12.850600 -15.600600 -23.577400
C -12.369600 -15.485700 -24.400400
H -12.185800 -16.345700 -24.785700
H -11.542600 -15.029800 -24.226500
62
Fragment
H -16.559200 -22.854200 -16.982600
H -15.916100 -21.538300 -17.541800
C -15.732200 -22.398300 -17.156500
H -15.251300 -22.283400 -16.333500
C -14.912400 -23.200200 -18.101100
N -14.697300 -24.487000 -17.760900
H -14.579200 -21.722700 -19.444100
C -14.409000 -22.619300 -19.267300
Cl -14.118100 -19.327700 -24.809900
C -13.977100 -25.205500 -18.634200
H -13.958600 -21.799700 -23.484700
C -13.657500 -23.363100 -20.168500
N -13.627000 -26.498600 -18.560300
C -13.565200 -21.179700 -22.915400
N -13.491300 -24.677600 -19.815800
C -13.472000 -19.829700 -23.271800
F -13.294600 -28.758400 -20.721500
N -13.102700 -22.951400 -21.320200
C -13.050500 -21.567400 -21.679500
C -12.949300 -26.674100 -19.713500
C -12.873100 -18.900300 -22.451700
H -12.814400 -18.008800 -22.711100
N -12.811200 -25.637400 -20.527300
H -12.798400 -23.601700 -21.847600
C -12.433900 -20.653100 -20.840700
C -12.396100 -28.002600 -20.091700
C -12.356800 -19.318300 -21.226100
H -12.075000 -20.929600 -20.027900
F -11.996300 -28.695900 -19.037400
H -11.956100 -18.698300 -20.661100
F -11.361200 -27.900400 -20.922300
F -16.740700 -9.983600 -28.166200
H -16.145700 -19.185700 -27.905000
F -16.105600 -9.188100 -26.281300
H -16.026900 -16.954400 -27.271800
C -15.745100 -18.565700 -28.470000
C -15.705700 -9.881400 -27.335600
C -15.668000 -17.230900 -28.084600
H -15.303500 -14.282300 -29.091500
N -15.290600 -12.246600 -27.771200
H -15.287400 -19.875200 -29.955000
C -15.228800 -18.983700 -29.695600
C -15.152500 -11.209900 -26.957400
C -15.051400 -16.316600 -28.923400
N -14.999200 -14.932600 -28.564100
F -14.807300 -9.125600 -27.965400
C -14.629800 -18.054300 -30.515700
N -14.610600 -13.206400 -27.059700
C -14.536700 -16.704300 -30.159300
N -14.474900 -11.385400 -25.804200
C -14.444400 -14.520900 -27.412400
H -14.143300 -16.084300 -30.728600
C -14.124800 -12.678500 -25.878100
Cl -13.983700 -18.556300 -32.053800
C -13.692800 -15.264700 -26.511200
H -13.522600 -16.161300 -26.688000
N -13.404600 -13.397000 -25.004800
C -13.189400 -14.683800 -25.345000
H -12.850600 -15.600600 -23.577400
C -12.369600 -15.485700 -24.400400
H -12.185800 -16.345700 -24.785700
H -11.542600 -15.029800 -24.226500
