31
Fragment
H -16.559200 -22.854200 -16.982600
H -15.916100 -21.538300 -17.541800
C -15.732200 -22.398300 -17.156500
H -15.251300 -22.283400 -16.333500
C -14.912400 -23.200200 -18.101100
N -14.697300 -24.487000 -17.760900
H -14.579200 -21.722700 -19.444100
C -14.409000 -22.619300 -19.267300
Cl -14.118100 -19.327700 -24.809900
C -13.977100 -25.205500 -18.634200
H -13.958600 -21.799700 -23.484700
C -13.657500 -23.363100 -20.168500
N -13.627000 -26.498600 -18.560300
C -13.565200 -21.179700 -22.915400
N -13.491300 -24.677600 -19.815800
C -13.472000 -19.829700 -23.271800
F -13.294600 -28.758400 -20.721500
N -13.102700 -22.951400 -21.320200
C -13.050500 -21.567400 -21.679500
C -12.949300 -26.674100 -19.713500
C -12.873100 -18.900300 -22.451700
H -12.814400 -18.008800 -22.711100
N -12.811200 -25.637400 -20.527300
H -12.798400 -23.601700 -21.847600
C -12.433900 -20.653100 -20.840700
C -12.396100 -28.002600 -20.091700
C -12.356800 -19.318300 -21.226100
H -12.075000 -20.929600 -20.027900
F -11.996300 -28.695900 -19.037400
H -11.956100 -18.698300 -20.661100
F -11.361200 -27.900400 -20.922300
31
Fragment
F -20.755200 -34.214400 -15.297200
H -20.160300 -25.012300 -15.558400
F -20.120100 -35.009900 -17.182100
H -20.041400 -27.243600 -16.191600
C -19.759600 -25.632300 -14.993400
C -19.720300 -34.316600 -16.127800
C -19.682500 -26.967100 -15.378800
H -19.318000 -29.915700 -14.371900
N -19.305200 -31.951400 -15.692200
H -19.302000 -24.322800 -13.508400
C -19.243300 -25.214300 -13.767800
C -19.167100 -32.988100 -16.506000
C -19.065900 -27.881400 -14.540000
N -19.013700 -29.265400 -14.899300
F -18.821800 -35.072400 -15.498000
C -18.644400 -26.143700 -12.947700
N -18.625100 -30.991600 -16.403700
C -18.551200 -27.493700 -13.304100
N -18.489400 -32.812600 -17.659200
C -18.458900 -29.677100 -16.051000
H -18.157800 -28.113700 -12.734800
C -18.139300 -31.519500 -17.585300
Cl -17.998300 -25.641700 -11.409600
C -17.707400 -28.933300 -16.952200
H -17.537200 -28.036700 -16.775400
N -17.419100 -30.801000 -18.458600
C -17.204000 -29.514200 -18.118400
H -16.865100 -28.597400 -19.886000
C -16.384200 -28.712300 -19.063000
H -16.200300 -27.852300 -18.677700
H -15.557200 -29.168200 -19.236900
62
Fragment
H -16.559200 -22.854200 -16.982600
H -15.916100 -21.538300 -17.541800
C -15.732200 -22.398300 -17.156500
H -15.251300 -22.283400 -16.333500
C -14.912400 -23.200200 -18.101100
N -14.697300 -24.487000 -17.760900
H -14.579200 -21.722700 -19.444100
C -14.409000 -22.619300 -19.267300
Cl -14.118100 -19.327700 -24.809900
C -13.977100 -25.205500 -18.634200
H -13.958600 -21.799700 -23.484700
C -13.657500 -23.363100 -20.168500
N -13.627000 -26.498600 -18.560300
C -13.565200 -21.179700 -22.915400
N -13.491300 -24.677600 -19.815800
C -13.472000 -19.829700 -23.271800
F -13.294600 -28.758400 -20.721500
N -13.102700 -22.951400 -21.320200
C -13.050500 -21.567400 -21.679500
C -12.949300 -26.674100 -19.713500
C -12.873100 -18.900300 -22.451700
H -12.814400 -18.008800 -22.711100
N -12.811200 -25.637400 -20.527300
H -12.798400 -23.601700 -21.847600
C -12.433900 -20.653100 -20.840700
C -12.396100 -28.002600 -20.091700
C -12.356800 -19.318300 -21.226100
H -12.075000 -20.929600 -20.027900
F -11.996300 -28.695900 -19.037400
H -11.956100 -18.698300 -20.661100
F -11.361200 -27.900400 -20.922300
F -20.755200 -34.214400 -15.297200
H -20.160300 -25.012300 -15.558400
F -20.120100 -35.009900 -17.182100
H -20.041400 -27.243600 -16.191600
C -19.759600 -25.632300 -14.993400
C -19.720300 -34.316600 -16.127800
C -19.682500 -26.967100 -15.378800
H -19.318000 -29.915700 -14.371900
N -19.305200 -31.951400 -15.692200
H -19.302000 -24.322800 -13.508400
C -19.243300 -25.214300 -13.767800
C -19.167100 -32.988100 -16.506000
C -19.065900 -27.881400 -14.540000
N -19.013700 -29.265400 -14.899300
F -18.821800 -35.072400 -15.498000
C -18.644400 -26.143700 -12.947700
N -18.625100 -30.991600 -16.403700
C -18.551200 -27.493700 -13.304100
N -18.489400 -32.812600 -17.659200
C -18.458900 -29.677100 -16.051000
H -18.157800 -28.113700 -12.734800
C -18.139300 -31.519500 -17.585300
Cl -17.998300 -25.641700 -11.409600
C -17.707400 -28.933300 -16.952200
H -17.537200 -28.036700 -16.775400
N -17.419100 -30.801000 -18.458600
C -17.204000 -29.514200 -18.118400
H -16.865100 -28.597400 -19.886000
C -16.384200 -28.712300 -19.063000
H -16.200300 -27.852300 -18.677700
H -15.557200 -29.168200 -19.236900
