31
Fragment
H -16.559200 -22.854200 -16.982600
H -15.916100 -21.538300 -17.541800
C -15.732200 -22.398300 -17.156500
H -15.251300 -22.283400 -16.333500
C -14.912400 -23.200200 -18.101100
N -14.697300 -24.487000 -17.760900
H -14.579200 -21.722700 -19.444100
C -14.409000 -22.619300 -19.267300
Cl -14.118100 -19.327700 -24.809900
C -13.977100 -25.205500 -18.634200
H -13.958600 -21.799700 -23.484700
C -13.657500 -23.363100 -20.168500
N -13.627000 -26.498600 -18.560300
C -13.565200 -21.179700 -22.915400
N -13.491300 -24.677600 -19.815800
C -13.472000 -19.829700 -23.271800
F -13.294600 -28.758400 -20.721500
N -13.102700 -22.951400 -21.320200
C -13.050500 -21.567400 -21.679500
C -12.949300 -26.674100 -19.713500
C -12.873100 -18.900300 -22.451700
H -12.814400 -18.008800 -22.711100
N -12.811200 -25.637400 -20.527300
H -12.798400 -23.601700 -21.847600
C -12.433900 -20.653100 -20.840700
C -12.396100 -28.002600 -20.091700
C -12.356800 -19.318300 -21.226100
H -12.075000 -20.929600 -20.027900
F -11.996300 -28.695900 -19.037400
H -11.956100 -18.698300 -20.661100
F -11.361200 -27.900400 -20.922300
31
Fragment
F -12.726100 -21.586400 -15.297200
H -12.131200 -12.384300 -15.558400
F -12.091000 -22.381900 -17.182100
H -12.012300 -14.615600 -16.191600
C -11.730500 -13.004300 -14.993400
C -11.691200 -21.688600 -16.127800
C -11.653400 -14.339100 -15.378800
H -11.288900 -17.287700 -14.371900
N -11.276100 -19.323400 -15.692200
H -11.272900 -11.694800 -13.508400
C -11.214200 -12.586300 -13.767800
C -11.138000 -20.360100 -16.506000
C -11.036800 -15.253400 -14.540000
N -10.984600 -16.637400 -14.899300
F -10.792700 -22.444400 -15.498000
C -10.615300 -13.515700 -12.947700
N -10.596000 -18.363600 -16.403700
C -10.522100 -14.865700 -13.304100
N -10.460300 -20.184600 -17.659200
C -10.429800 -17.049100 -16.051000
H -10.128700 -15.485700 -12.734800
C -10.110200 -18.891500 -17.585300
Cl -9.969200 -13.013700 -11.409600
C -9.678300 -16.305300 -16.952200
H -9.508100 -15.408700 -16.775400
N -9.390000 -18.173000 -18.458600
C -9.174900 -16.886200 -18.118400
H -8.836000 -15.969400 -19.886000
C -8.355100 -16.084300 -19.063000
H -8.171200 -15.224300 -18.677700
H -7.528100 -16.540200 -19.236900
62
Fragment
H -16.559200 -22.854200 -16.982600
H -15.916100 -21.538300 -17.541800
C -15.732200 -22.398300 -17.156500
H -15.251300 -22.283400 -16.333500
C -14.912400 -23.200200 -18.101100
N -14.697300 -24.487000 -17.760900
H -14.579200 -21.722700 -19.444100
C -14.409000 -22.619300 -19.267300
Cl -14.118100 -19.327700 -24.809900
C -13.977100 -25.205500 -18.634200
H -13.958600 -21.799700 -23.484700
C -13.657500 -23.363100 -20.168500
N -13.627000 -26.498600 -18.560300
C -13.565200 -21.179700 -22.915400
N -13.491300 -24.677600 -19.815800
C -13.472000 -19.829700 -23.271800
F -13.294600 -28.758400 -20.721500
N -13.102700 -22.951400 -21.320200
C -13.050500 -21.567400 -21.679500
C -12.949300 -26.674100 -19.713500
C -12.873100 -18.900300 -22.451700
H -12.814400 -18.008800 -22.711100
N -12.811200 -25.637400 -20.527300
H -12.798400 -23.601700 -21.847600
C -12.433900 -20.653100 -20.840700
C -12.396100 -28.002600 -20.091700
C -12.356800 -19.318300 -21.226100
H -12.075000 -20.929600 -20.027900
F -11.996300 -28.695900 -19.037400
H -11.956100 -18.698300 -20.661100
F -11.361200 -27.900400 -20.922300
F -12.726100 -21.586400 -15.297200
H -12.131200 -12.384300 -15.558400
F -12.091000 -22.381900 -17.182100
H -12.012300 -14.615600 -16.191600
C -11.730500 -13.004300 -14.993400
C -11.691200 -21.688600 -16.127800
C -11.653400 -14.339100 -15.378800
H -11.288900 -17.287700 -14.371900
N -11.276100 -19.323400 -15.692200
H -11.272900 -11.694800 -13.508400
C -11.214200 -12.586300 -13.767800
C -11.138000 -20.360100 -16.506000
C -11.036800 -15.253400 -14.540000
N -10.984600 -16.637400 -14.899300
F -10.792700 -22.444400 -15.498000
C -10.615300 -13.515700 -12.947700
N -10.596000 -18.363600 -16.403700
C -10.522100 -14.865700 -13.304100
N -10.460300 -20.184600 -17.659200
C -10.429800 -17.049100 -16.051000
H -10.128700 -15.485700 -12.734800
C -10.110200 -18.891500 -17.585300
Cl -9.969200 -13.013700 -11.409600
C -9.678300 -16.305300 -16.952200
H -9.508100 -15.408700 -16.775400
N -9.390000 -18.173000 -18.458600
C -9.174900 -16.886200 -18.118400
H -8.836000 -15.969400 -19.886000
C -8.355100 -16.084300 -19.063000
H -8.171200 -15.224300 -18.677700
H -7.528100 -16.540200 -19.236900
