18
Fragment
N -5.923600 -25.964800 -17.550900
N -5.728600 -24.877800 -18.270300
H -5.633700 -22.285400 -23.166200
H -5.371300 -26.331000 -15.723700
N -5.371300 -25.738800 -16.374600
N -5.328600 -21.751600 -21.233400
C -5.293500 -22.525600 -22.312400
C -5.047100 -24.032500 -17.466400
N -4.819600 -24.547300 -16.260200
C -4.731500 -22.537600 -20.318500
N -4.713400 -23.685300 -22.022800
C -4.603000 -22.685200 -17.785700
H -4.600000 -24.344000 -22.595200
N -4.512900 -22.086300 -18.993500
N -4.318200 -23.716300 -20.721400
N -4.216100 -21.829100 -16.866200
N -4.050800 -20.817000 -18.800600
N -3.885900 -20.687900 -17.528800
18
Fragment
N -6.473100 -15.683900 -10.420300
N -6.278000 -16.771000 -11.139700
H -6.183200 -19.363300 -16.035600
N -5.920800 -15.910000 -9.244000
H -5.920700 -15.317700 -8.593100
N -5.878000 -19.897100 -14.102800
C -5.842900 -19.123100 -15.181800
C -5.596500 -17.616300 -10.335800
N -5.369100 -17.101500 -9.129600
C -5.280900 -19.111100 -13.187900
N -5.262800 -17.963400 -14.892100
C -5.152400 -18.963500 -10.655100
H -5.149400 -17.304700 -15.464600
N -5.062300 -19.562400 -11.862900
N -4.867700 -17.932500 -13.590800
N -4.765500 -19.819600 -9.735600
N -4.600200 -20.831700 -11.670000
N -4.435300 -20.960800 -10.398100
36
Fragment
N -5.923600 -25.964800 -17.550900
N -5.728600 -24.877800 -18.270300
H -5.633700 -22.285400 -23.166200
H -5.371300 -26.331000 -15.723700
N -5.371300 -25.738800 -16.374600
N -5.328600 -21.751600 -21.233400
C -5.293500 -22.525600 -22.312400
C -5.047100 -24.032500 -17.466400
N -4.819600 -24.547300 -16.260200
C -4.731500 -22.537600 -20.318500
N -4.713400 -23.685300 -22.022800
C -4.603000 -22.685200 -17.785700
H -4.600000 -24.344000 -22.595200
N -4.512900 -22.086300 -18.993500
N -4.318200 -23.716300 -20.721400
N -4.216100 -21.829100 -16.866200
N -4.050800 -20.817000 -18.800600
N -3.885900 -20.687900 -17.528800
N -6.473100 -15.683900 -10.420300
N -6.278000 -16.771000 -11.139700
H -6.183200 -19.363300 -16.035600
N -5.920800 -15.910000 -9.244000
H -5.920700 -15.317700 -8.593100
N -5.878000 -19.897100 -14.102800
C -5.842900 -19.123100 -15.181800
C -5.596500 -17.616300 -10.335800
N -5.369100 -17.101500 -9.129600
C -5.280900 -19.111100 -13.187900
N -5.262800 -17.963400 -14.892100
C -5.152400 -18.963500 -10.655100
H -5.149400 -17.304700 -15.464600
N -5.062300 -19.562400 -11.862900
N -4.867700 -17.932500 -13.590800
N -4.765500 -19.819600 -9.735600
N -4.600200 -20.831700 -11.670000
N -4.435300 -20.960800 -10.398100
