18
Fragment
N -5.923600 -25.964800 -17.550900
N -5.728600 -24.877800 -18.270300
H -5.633700 -22.285400 -23.166200
H -5.371300 -26.331000 -15.723700
N -5.371300 -25.738800 -16.374600
N -5.328600 -21.751600 -21.233400
C -5.293500 -22.525600 -22.312400
C -5.047100 -24.032500 -17.466400
N -4.819600 -24.547300 -16.260200
C -4.731500 -22.537600 -20.318500
N -4.713400 -23.685300 -22.022800
C -4.603000 -22.685200 -17.785700
H -4.600000 -24.344000 -22.595200
N -4.512900 -22.086300 -18.993500
N -4.318200 -23.716300 -20.721400
N -4.216100 -21.829100 -16.866200
N -4.050800 -20.817000 -18.800600
N -3.885900 -20.687900 -17.528800
3
Fragment
H -6.700100 -18.883500 -21.876700
O -6.138400 -18.998800 -21.291300
H -5.905800 -19.851500 -21.156500
21
Fragment
N -5.923600 -25.964800 -17.550900
N -5.728600 -24.877800 -18.270300
H -5.633700 -22.285400 -23.166200
H -5.371300 -26.331000 -15.723700
N -5.371300 -25.738800 -16.374600
N -5.328600 -21.751600 -21.233400
C -5.293500 -22.525600 -22.312400
C -5.047100 -24.032500 -17.466400
N -4.819600 -24.547300 -16.260200
C -4.731500 -22.537600 -20.318500
N -4.713400 -23.685300 -22.022800
C -4.603000 -22.685200 -17.785700
H -4.600000 -24.344000 -22.595200
N -4.512900 -22.086300 -18.993500
N -4.318200 -23.716300 -20.721400
N -4.216100 -21.829100 -16.866200
N -4.050800 -20.817000 -18.800600
N -3.885900 -20.687900 -17.528800
H -6.700100 -18.883500 -21.876700
O -6.138400 -18.998800 -21.291300
H -5.905800 -19.851500 -21.156500
