18
Fragment
N -5.923600 -25.964800 -17.550900
N -5.728600 -24.877800 -18.270300
H -5.633700 -22.285400 -23.166200
H -5.371300 -26.331000 -15.723700
N -5.371300 -25.738800 -16.374600
N -5.328600 -21.751600 -21.233400
C -5.293500 -22.525600 -22.312400
C -5.047100 -24.032500 -17.466400
N -4.819600 -24.547300 -16.260200
C -4.731500 -22.537600 -20.318500
N -4.713400 -23.685300 -22.022800
C -4.603000 -22.685200 -17.785700
H -4.600000 -24.344000 -22.595200
N -4.512900 -22.086300 -18.993500
N -4.318200 -23.716300 -20.721400
N -4.216100 -21.829100 -16.866200
N -4.050800 -20.817000 -18.800600
N -3.885900 -20.687900 -17.528800
18
Fragment
N -3.665900 -29.290600 -25.254900
N -3.501000 -29.161500 -23.983100
N -3.335700 -28.149400 -25.917500
N -3.233500 -26.262200 -22.062300
N -3.038900 -27.892200 -23.790200
H -2.951700 -25.634500 -20.188500
C -2.948700 -27.293300 -24.997900
N -2.838400 -26.293200 -20.760900
C -2.820300 -27.440900 -22.465100
N -2.732100 -25.431200 -26.523500
C -2.504700 -25.946000 -25.317200
C -2.258300 -27.452900 -20.471300
N -2.223200 -28.226900 -21.550300
N -2.180400 -24.239700 -26.409100
H -2.180400 -23.647500 -27.060000
H -1.918000 -27.693100 -19.617500
N -1.823100 -25.100700 -24.513300
N -1.628100 -24.013700 -25.232800
36
Fragment
N -5.923600 -25.964800 -17.550900
N -5.728600 -24.877800 -18.270300
H -5.633700 -22.285400 -23.166200
H -5.371300 -26.331000 -15.723700
N -5.371300 -25.738800 -16.374600
N -5.328600 -21.751600 -21.233400
C -5.293500 -22.525600 -22.312400
C -5.047100 -24.032500 -17.466400
N -4.819600 -24.547300 -16.260200
C -4.731500 -22.537600 -20.318500
N -4.713400 -23.685300 -22.022800
C -4.603000 -22.685200 -17.785700
H -4.600000 -24.344000 -22.595200
N -4.512900 -22.086300 -18.993500
N -4.318200 -23.716300 -20.721400
N -4.216100 -21.829100 -16.866200
N -4.050800 -20.817000 -18.800600
N -3.885900 -20.687900 -17.528800
N -3.665900 -29.290600 -25.254900
N -3.501000 -29.161500 -23.983100
N -3.335700 -28.149400 -25.917500
N -3.233500 -26.262200 -22.062300
N -3.038900 -27.892200 -23.790200
H -2.951700 -25.634500 -20.188500
C -2.948700 -27.293300 -24.997900
N -2.838400 -26.293200 -20.760900
C -2.820300 -27.440900 -22.465100
N -2.732100 -25.431200 -26.523500
C -2.504700 -25.946000 -25.317200
C -2.258300 -27.452900 -20.471300
N -2.223200 -28.226900 -21.550300
N -2.180400 -24.239700 -26.409100
H -2.180400 -23.647500 -27.060000
H -1.918000 -27.693100 -19.617500
N -1.823100 -25.100700 -24.513300
N -1.628100 -24.013700 -25.232800
