18
Fragment
N -5.923600 -25.964800 -17.550900
N -5.728600 -24.877800 -18.270300
H -5.633700 -22.285400 -23.166200
H -5.371300 -26.331000 -15.723700
N -5.371300 -25.738800 -16.374600
N -5.328600 -21.751600 -21.233400
C -5.293500 -22.525600 -22.312400
C -5.047100 -24.032500 -17.466400
N -4.819600 -24.547300 -16.260200
C -4.731500 -22.537600 -20.318500
N -4.713400 -23.685300 -22.022800
C -4.603000 -22.685200 -17.785700
H -4.600000 -24.344000 -22.595200
N -4.512900 -22.086300 -18.993500
N -4.318200 -23.716300 -20.721400
N -4.216100 -21.829100 -16.866200
N -4.050800 -20.817000 -18.800600
N -3.885900 -20.687900 -17.528800
18
Fragment
N -5.374200 -15.683900 -24.681500
N -5.179200 -16.771000 -25.401000
H -5.084300 -19.363300 -30.296800
N -4.821900 -15.910000 -23.505200
H -4.821900 -15.317700 -22.854300
N -4.779100 -19.897100 -28.364000
C -4.744100 -19.123100 -29.443000
C -4.497700 -17.616300 -24.597100
N -4.270200 -17.101500 -23.390800
C -4.182100 -19.111100 -27.449200
N -4.164000 -17.963400 -29.153400
C -4.053600 -18.963500 -24.916400
H -4.050600 -17.304700 -29.725800
N -3.963400 -19.562400 -26.124100
N -3.768800 -17.932500 -27.852000
N -3.666700 -19.819600 -23.996800
N -3.501300 -20.831700 -25.931200
N -3.336400 -20.960800 -24.659400
36
Fragment
N -5.923600 -25.964800 -17.550900
N -5.728600 -24.877800 -18.270300
H -5.633700 -22.285400 -23.166200
H -5.371300 -26.331000 -15.723700
N -5.371300 -25.738800 -16.374600
N -5.328600 -21.751600 -21.233400
C -5.293500 -22.525600 -22.312400
C -5.047100 -24.032500 -17.466400
N -4.819600 -24.547300 -16.260200
C -4.731500 -22.537600 -20.318500
N -4.713400 -23.685300 -22.022800
C -4.603000 -22.685200 -17.785700
H -4.600000 -24.344000 -22.595200
N -4.512900 -22.086300 -18.993500
N -4.318200 -23.716300 -20.721400
N -4.216100 -21.829100 -16.866200
N -4.050800 -20.817000 -18.800600
N -3.885900 -20.687900 -17.528800
N -5.374200 -15.683900 -24.681500
N -5.179200 -16.771000 -25.401000
H -5.084300 -19.363300 -30.296800
N -4.821900 -15.910000 -23.505200
H -4.821900 -15.317700 -22.854300
N -4.779100 -19.897100 -28.364000
C -4.744100 -19.123100 -29.443000
C -4.497700 -17.616300 -24.597100
N -4.270200 -17.101500 -23.390800
C -4.182100 -19.111100 -27.449200
N -4.164000 -17.963400 -29.153400
C -4.053600 -18.963500 -24.916400
H -4.050600 -17.304700 -29.725800
N -3.963400 -19.562400 -26.124100
N -3.768800 -17.932500 -27.852000
N -3.666700 -19.819600 -23.996800
N -3.501300 -20.831700 -25.931200
N -3.336400 -20.960800 -24.659400
