21
Fragment
H -8.263800 -22.820100 -31.598900
O -8.051800 -23.671100 -31.418400
O -7.899900 -27.866200 -28.801100
H -7.775900 -25.913600 -30.363600
C -7.250900 -24.151600 -32.350800
C -7.220700 -26.307800 -31.026500
C -7.173100 -28.354400 -29.631700
H -6.874100 -29.923400 -28.722600
C -6.850200 -25.576800 -32.149400
O -6.845400 -23.516200 -33.292400
C -6.775800 -27.620500 -30.875200
O -6.635600 -29.559800 -29.524000
C -6.054300 -26.162300 -33.133100
C -5.972200 -28.206800 -31.844600
H -5.809400 -25.665900 -33.905300
H -5.663600 -29.098600 -31.735700
C -5.620800 -27.473200 -32.981700
C -4.752200 -28.107800 -34.008000
O -4.612500 -27.412900 -35.105300
O -4.216400 -29.195100 -33.819100
H -4.072900 -27.846500 -35.667100
25
Fragment
H -3.984700 -16.745700 -36.943900
H -3.649100 -18.019100 -36.084100
N -3.575100 -17.543700 -36.823500
H -3.053200 -26.550700 -39.143800
C -2.855000 -18.030100 -37.807500
O -2.698000 -17.439200 -38.908300
C -2.533400 -25.786100 -38.925500
H -2.518500 -24.987700 -40.811400
N -2.485400 -20.049900 -36.421400
H -2.301900 -26.248600 -36.959700
C -2.227200 -19.342300 -37.558200
C -2.225700 -24.862900 -39.916500
C -2.097000 -25.610200 -37.632700
N -1.790000 -21.157300 -36.441700
C -1.481700 -23.759700 -39.558200
C -1.356200 -24.487400 -37.335900
C -1.329300 -20.051700 -38.312800
F -1.161300 -22.842500 -40.500000
N -1.087800 -21.156000 -37.594800
C -1.030800 -23.520400 -38.273700
H -0.961200 -19.813500 -39.155600
F -0.912500 -24.313200 -36.076100
C -0.226900 -22.303800 -37.918400
H 0.349900 -22.509200 -37.140300
H 0.360800 -22.067000 -38.679300
46
Fragment
H -8.263800 -22.820100 -31.598900
O -8.051800 -23.671100 -31.418400
O -7.899900 -27.866200 -28.801100
H -7.775900 -25.913600 -30.363600
C -7.250900 -24.151600 -32.350800
C -7.220700 -26.307800 -31.026500
C -7.173100 -28.354400 -29.631700
H -6.874100 -29.923400 -28.722600
C -6.850200 -25.576800 -32.149400
O -6.845400 -23.516200 -33.292400
C -6.775800 -27.620500 -30.875200
O -6.635600 -29.559800 -29.524000
C -6.054300 -26.162300 -33.133100
C -5.972200 -28.206800 -31.844600
H -5.809400 -25.665900 -33.905300
H -5.663600 -29.098600 -31.735700
C -5.620800 -27.473200 -32.981700
C -4.752200 -28.107800 -34.008000
O -4.612500 -27.412900 -35.105300
O -4.216400 -29.195100 -33.819100
H -4.072900 -27.846500 -35.667100
H -3.984700 -16.745700 -36.943900
H -3.649100 -18.019100 -36.084100
N -3.575100 -17.543700 -36.823500
H -3.053200 -26.550700 -39.143800
C -2.855000 -18.030100 -37.807500
O -2.698000 -17.439200 -38.908300
C -2.533400 -25.786100 -38.925500
H -2.518500 -24.987700 -40.811400
N -2.485400 -20.049900 -36.421400
H -2.301900 -26.248600 -36.959700
C -2.227200 -19.342300 -37.558200
C -2.225700 -24.862900 -39.916500
C -2.097000 -25.610200 -37.632700
N -1.790000 -21.157300 -36.441700
C -1.481700 -23.759700 -39.558200
C -1.356200 -24.487400 -37.335900
C -1.329300 -20.051700 -38.312800
F -1.161300 -22.842500 -40.500000
N -1.087800 -21.156000 -37.594800
C -1.030800 -23.520400 -38.273700
H -0.961200 -19.813500 -39.155600
F -0.912500 -24.313200 -36.076100
C -0.226900 -22.303800 -37.918400
H 0.349900 -22.509200 -37.140300
H 0.360800 -22.067000 -38.679300
