21
Fragment
H -8.263800 -22.820100 -31.598900
O -8.051800 -23.671100 -31.418400
O -7.899900 -27.866200 -28.801100
H -7.775900 -25.913600 -30.363600
C -7.250900 -24.151600 -32.350800
C -7.220700 -26.307800 -31.026500
C -7.173100 -28.354400 -29.631700
H -6.874100 -29.923400 -28.722600
C -6.850200 -25.576800 -32.149400
O -6.845400 -23.516200 -33.292400
C -6.775800 -27.620500 -30.875200
O -6.635600 -29.559800 -29.524000
C -6.054300 -26.162300 -33.133100
C -5.972200 -28.206800 -31.844600
H -5.809400 -25.665900 -33.905300
H -5.663600 -29.098600 -31.735700
C -5.620800 -27.473200 -32.981700
C -4.752200 -28.107800 -34.008000
O -4.612500 -27.412900 -35.105300
O -4.216400 -29.195100 -33.819100
H -4.072900 -27.846500 -35.667100
25
Fragment
H -7.632800 -35.729800 -31.990600
H -7.622000 -35.287700 -33.529600
C -7.045100 -35.493100 -32.751500
F -6.359500 -33.483600 -34.593900
H -6.310800 -37.983300 -31.514300
C -6.241200 -34.276400 -32.396300
N -6.184200 -36.640900 -33.075200
F -6.110700 -34.954400 -30.169900
C -5.942700 -37.745200 -32.357200
C -5.915800 -33.309500 -33.334100
C -5.790300 -34.037100 -31.111700
N -5.482000 -36.639500 -34.228300
C -5.175000 -32.186700 -33.037200
C -5.046300 -32.934000 -30.753400
C -5.044900 -38.454600 -33.111700
H -4.970100 -31.548200 -33.710300
N -4.786600 -37.746900 -34.248500
H -4.753500 -32.809200 -29.858500
C -4.738600 -32.010800 -31.744500
O -4.574000 -40.357600 -31.761700
C -4.417000 -39.766700 -32.862500
H -4.218900 -31.246100 -31.526100
N -3.697000 -40.253200 -33.846400
H -3.623000 -39.777700 -34.585900
H -3.287300 -41.051200 -33.726000
46
Fragment
H -8.263800 -22.820100 -31.598900
O -8.051800 -23.671100 -31.418400
O -7.899900 -27.866200 -28.801100
H -7.775900 -25.913600 -30.363600
C -7.250900 -24.151600 -32.350800
C -7.220700 -26.307800 -31.026500
C -7.173100 -28.354400 -29.631700
H -6.874100 -29.923400 -28.722600
C -6.850200 -25.576800 -32.149400
O -6.845400 -23.516200 -33.292400
C -6.775800 -27.620500 -30.875200
O -6.635600 -29.559800 -29.524000
C -6.054300 -26.162300 -33.133100
C -5.972200 -28.206800 -31.844600
H -5.809400 -25.665900 -33.905300
H -5.663600 -29.098600 -31.735700
C -5.620800 -27.473200 -32.981700
C -4.752200 -28.107800 -34.008000
O -4.612500 -27.412900 -35.105300
O -4.216400 -29.195100 -33.819100
H -4.072900 -27.846500 -35.667100
H -7.632800 -35.729800 -31.990600
H -7.622000 -35.287700 -33.529600
C -7.045100 -35.493100 -32.751500
F -6.359500 -33.483600 -34.593900
H -6.310800 -37.983300 -31.514300
C -6.241200 -34.276400 -32.396300
N -6.184200 -36.640900 -33.075200
F -6.110700 -34.954400 -30.169900
C -5.942700 -37.745200 -32.357200
C -5.915800 -33.309500 -33.334100
C -5.790300 -34.037100 -31.111700
N -5.482000 -36.639500 -34.228300
C -5.175000 -32.186700 -33.037200
C -5.046300 -32.934000 -30.753400
C -5.044900 -38.454600 -33.111700
H -4.970100 -31.548200 -33.710300
N -4.786600 -37.746900 -34.248500
H -4.753500 -32.809200 -29.858500
C -4.738600 -32.010800 -31.744500
O -4.574000 -40.357600 -31.761700
C -4.417000 -39.766700 -32.862500
H -4.218900 -31.246100 -31.526100
N -3.697000 -40.253200 -33.846400
H -3.623000 -39.777700 -34.585900
H -3.287300 -41.051200 -33.726000
