21
Fragment
H -8.263800 -22.820100 -31.598900
O -8.051800 -23.671100 -31.418400
O -7.899900 -27.866200 -28.801100
H -7.775900 -25.913600 -30.363600
C -7.250900 -24.151600 -32.350800
C -7.220700 -26.307800 -31.026500
C -7.173100 -28.354400 -29.631700
H -6.874100 -29.923400 -28.722600
C -6.850200 -25.576800 -32.149400
O -6.845400 -23.516200 -33.292400
C -6.775800 -27.620500 -30.875200
O -6.635600 -29.559800 -29.524000
C -6.054300 -26.162300 -33.133100
C -5.972200 -28.206800 -31.844600
H -5.809400 -25.665900 -33.905300
H -5.663600 -29.098600 -31.735700
C -5.620800 -27.473200 -32.981700
C -4.752200 -28.107800 -34.008000
O -4.612500 -27.412900 -35.105300
O -4.216400 -29.195100 -33.819100
H -4.072900 -27.846500 -35.667100
21
Fragment
H -12.476600 -22.820100 -31.598900
O -12.264700 -23.671100 -31.418400
O -12.112800 -27.866200 -28.801100
H -11.988800 -25.913600 -30.363600
C -11.463800 -24.151600 -32.350800
C -11.433600 -26.307800 -31.026500
C -11.386000 -28.354400 -29.631700
H -11.087000 -29.923400 -28.722600
C -11.063100 -25.576800 -32.149400
O -11.058300 -23.516200 -33.292400
C -10.988700 -27.620500 -30.875200
O -10.848500 -29.559800 -29.524000
C -10.267200 -26.162300 -33.133100
C -10.185000 -28.206800 -31.844600
H -10.022300 -25.665900 -33.905300
H -9.876500 -29.098600 -31.735700
C -9.833600 -27.473200 -32.981700
C -8.965000 -28.107800 -34.008000
O -8.825400 -27.412900 -35.105300
O -8.429300 -29.195100 -33.819100
H -8.285800 -27.846500 -35.667100
42
Fragment
H -8.263800 -22.820100 -31.598900
O -8.051800 -23.671100 -31.418400
O -7.899900 -27.866200 -28.801100
H -7.775900 -25.913600 -30.363600
C -7.250900 -24.151600 -32.350800
C -7.220700 -26.307800 -31.026500
C -7.173100 -28.354400 -29.631700
H -6.874100 -29.923400 -28.722600
C -6.850200 -25.576800 -32.149400
O -6.845400 -23.516200 -33.292400
C -6.775800 -27.620500 -30.875200
O -6.635600 -29.559800 -29.524000
C -6.054300 -26.162300 -33.133100
C -5.972200 -28.206800 -31.844600
H -5.809400 -25.665900 -33.905300
H -5.663600 -29.098600 -31.735700
C -5.620800 -27.473200 -32.981700
C -4.752200 -28.107800 -34.008000
O -4.612500 -27.412900 -35.105300
O -4.216400 -29.195100 -33.819100
H -4.072900 -27.846500 -35.667100
H -12.476600 -22.820100 -31.598900
O -12.264700 -23.671100 -31.418400
O -12.112800 -27.866200 -28.801100
H -11.988800 -25.913600 -30.363600
C -11.463800 -24.151600 -32.350800
C -11.433600 -26.307800 -31.026500
C -11.386000 -28.354400 -29.631700
H -11.087000 -29.923400 -28.722600
C -11.063100 -25.576800 -32.149400
O -11.058300 -23.516200 -33.292400
C -10.988700 -27.620500 -30.875200
O -10.848500 -29.559800 -29.524000
C -10.267200 -26.162300 -33.133100
C -10.185000 -28.206800 -31.844600
H -10.022300 -25.665900 -33.905300
H -9.876500 -29.098600 -31.735700
C -9.833600 -27.473200 -32.981700
C -8.965000 -28.107800 -34.008000
O -8.825400 -27.412900 -35.105300
O -8.429300 -29.195100 -33.819100
H -8.285800 -27.846500 -35.667100
