22
Fragment
H -14.574600 -29.550300 -8.347400
N -13.719500 -29.750600 -8.293800
N -13.255100 -30.986400 -7.983600
H -12.845500 -27.958600 -8.737500
C -12.742500 -28.874800 -8.508600
C -11.927400 -30.867000 -8.009600
C -11.550900 -29.548900 -8.335200
N -11.501600 -26.204300 -9.066300
O -11.429100 -24.852800 -9.357900
H -11.318600 -31.574300 -7.833200
C -10.266600 -26.582600 -9.018300
C -10.173800 -29.101900 -8.436600
N -10.100100 -24.422900 -9.488600
N -9.720800 -27.830900 -8.738800
C -9.396500 -25.498600 -9.282500
N -9.135500 -29.892300 -8.253800
C -8.336900 -27.929700 -8.723400
N -8.034600 -25.604400 -9.321200
N -7.979600 -29.153900 -8.433200
H -7.520900 -24.801000 -9.393200
C -7.424600 -26.797200 -9.022300
O -6.223200 -26.937100 -9.013600
6
Fragment
H -7.308600 -22.599200 -9.256500
O -6.830200 -23.233600 -9.528700
H -5.594100 -23.071200 -7.991300
C -5.526400 -23.119400 -8.967600
H -5.095200 -22.307000 -9.305900
H -4.992600 -23.901800 -9.219900
28
Fragment
H -14.574600 -29.550300 -8.347400
N -13.719500 -29.750600 -8.293800
N -13.255100 -30.986400 -7.983600
H -12.845500 -27.958600 -8.737500
C -12.742500 -28.874800 -8.508600
C -11.927400 -30.867000 -8.009600
C -11.550900 -29.548900 -8.335200
N -11.501600 -26.204300 -9.066300
O -11.429100 -24.852800 -9.357900
H -11.318600 -31.574300 -7.833200
C -10.266600 -26.582600 -9.018300
C -10.173800 -29.101900 -8.436600
N -10.100100 -24.422900 -9.488600
N -9.720800 -27.830900 -8.738800
C -9.396500 -25.498600 -9.282500
N -9.135500 -29.892300 -8.253800
C -8.336900 -27.929700 -8.723400
N -8.034600 -25.604400 -9.321200
N -7.979600 -29.153900 -8.433200
H -7.520900 -24.801000 -9.393200
C -7.424600 -26.797200 -9.022300
O -6.223200 -26.937100 -9.013600
H -7.308600 -22.599200 -9.256500
O -6.830200 -23.233600 -9.528700
H -5.594100 -23.071200 -7.991300
C -5.526400 -23.119400 -8.967600
H -5.095200 -22.307000 -9.305900
H -4.992600 -23.901800 -9.219900
