22
Fragment
H -14.574600 -29.550300 -8.347400
N -13.719500 -29.750600 -8.293800
N -13.255100 -30.986400 -7.983600
H -12.845500 -27.958600 -8.737500
C -12.742500 -28.874800 -8.508600
C -11.927400 -30.867000 -8.009600
C -11.550900 -29.548900 -8.335200
N -11.501600 -26.204300 -9.066300
O -11.429100 -24.852800 -9.357900
H -11.318600 -31.574300 -7.833200
C -10.266600 -26.582600 -9.018300
C -10.173800 -29.101900 -8.436600
N -10.100100 -24.422900 -9.488600
N -9.720800 -27.830900 -8.738800
C -9.396500 -25.498600 -9.282500
N -9.135500 -29.892300 -8.253800
C -8.336900 -27.929700 -8.723400
N -8.034600 -25.604400 -9.321200
N -7.979600 -29.153900 -8.433200
H -7.520900 -24.801000 -9.393200
C -7.424600 -26.797200 -9.022300
O -6.223200 -26.937100 -9.013600
22
Fragment
O -14.563700 -32.108300 -11.000400
C -13.362300 -32.248200 -10.991700
H -13.266000 -34.244400 -10.620800
N -12.807300 -29.891500 -11.580800
N -12.752300 -33.441000 -10.692800
C -12.450000 -31.115700 -11.290600
N -11.651400 -29.153100 -11.760200
C -11.390400 -33.546800 -10.731500
N -11.066100 -31.214500 -11.275200
N -10.686700 -34.622500 -10.525400
C -10.613100 -29.943500 -11.577400
C -10.520200 -32.462800 -10.995700
H -9.468200 -27.471100 -12.180800
O -9.357800 -34.192600 -10.656100
N -9.285300 -32.841100 -10.947700
C -9.236000 -29.496500 -11.678800
C -8.859500 -28.178400 -12.004400
C -8.044400 -30.170600 -11.505400
H -7.941400 -31.086800 -11.276500
N -7.531800 -28.059000 -12.030400
N -7.067400 -29.294800 -11.720200
H -6.212300 -29.495100 -11.666600
44
Fragment
H -14.574600 -29.550300 -8.347400
N -13.719500 -29.750600 -8.293800
N -13.255100 -30.986400 -7.983600
H -12.845500 -27.958600 -8.737500
C -12.742500 -28.874800 -8.508600
C -11.927400 -30.867000 -8.009600
C -11.550900 -29.548900 -8.335200
N -11.501600 -26.204300 -9.066300
O -11.429100 -24.852800 -9.357900
H -11.318600 -31.574300 -7.833200
C -10.266600 -26.582600 -9.018300
C -10.173800 -29.101900 -8.436600
N -10.100100 -24.422900 -9.488600
N -9.720800 -27.830900 -8.738800
C -9.396500 -25.498600 -9.282500
N -9.135500 -29.892300 -8.253800
C -8.336900 -27.929700 -8.723400
N -8.034600 -25.604400 -9.321200
N -7.979600 -29.153900 -8.433200
H -7.520900 -24.801000 -9.393200
C -7.424600 -26.797200 -9.022300
O -6.223200 -26.937100 -9.013600
O -14.563700 -32.108300 -11.000400
C -13.362300 -32.248200 -10.991700
H -13.266000 -34.244400 -10.620800
N -12.807300 -29.891500 -11.580800
N -12.752300 -33.441000 -10.692800
C -12.450000 -31.115700 -11.290600
N -11.651400 -29.153100 -11.760200
C -11.390400 -33.546800 -10.731500
N -11.066100 -31.214500 -11.275200
N -10.686700 -34.622500 -10.525400
C -10.613100 -29.943500 -11.577400
C -10.520200 -32.462800 -10.995700
H -9.468200 -27.471100 -12.180800
O -9.357800 -34.192600 -10.656100
N -9.285300 -32.841100 -10.947700
C -9.236000 -29.496500 -11.678800
C -8.859500 -28.178400 -12.004400
C -8.044400 -30.170600 -11.505400
H -7.941400 -31.086800 -11.276500
N -7.531800 -28.059000 -12.030400
N -7.067400 -29.294800 -11.720200
H -6.212300 -29.495100 -11.666600
