20
Fragment
H -21.288300 -16.994200 -18.871500
O -20.451000 -17.247400 -18.937800
O -20.194500 -16.230800 -20.922600
C -19.758300 -16.924100 -20.024900
H -18.400300 -18.242100 -18.123200
C -18.380400 -17.483100 -20.011500
H -17.938500 -16.906800 -21.926300
C -17.851800 -18.104800 -18.886400
C -17.581100 -17.322700 -21.150100
H -16.621500 -17.415900 -23.746200
C -16.530800 -18.527200 -18.869000
C -16.272600 -17.769600 -21.146600
H -16.171600 -18.930000 -18.086400
H -16.104400 -16.052100 -23.086700
C -15.848300 -16.959800 -23.353100
C -15.731600 -18.362600 -19.995000
O -15.399400 -17.685600 -22.203900
H -15.125300 -16.914500 -24.013800
O -14.436100 -18.775400 -19.939600
H -13.985700 -18.577800 -20.646400
24
Fragment
H -18.352900 -14.715200 -19.362900
H -18.037500 -13.677300 -18.187100
C -17.717600 -14.044000 -19.037200
H -17.638500 -13.322900 -19.695600
O -16.939600 -15.093600 -16.636500
N -16.400700 -14.672000 -18.836800
C -16.123300 -15.172400 -17.542800
O -15.906800 -14.262400 -21.033000
C -15.553000 -14.710800 -19.954800
H -15.154800 -17.273600 -15.009100
H -15.046000 -15.699700 -14.747400
C -14.810900 -15.730600 -17.476100
C -14.560600 -16.496100 -15.047000
N -14.303600 -15.263900 -19.774900
N -14.100800 -16.297900 -16.427100
C -13.951300 -15.765200 -18.544800
H -13.787600 -16.646700 -14.463200
H -13.762700 -14.930100 -21.690700
C -13.345700 -15.305500 -20.886900
H -13.083700 -16.233500 -21.057200
C -12.899800 -16.627600 -16.919900
N -12.756500 -16.323900 -18.219800
H -12.553100 -14.778500 -20.654700
H -12.217000 -17.035600 -16.401500
44
Fragment
H -21.288300 -16.994200 -18.871500
O -20.451000 -17.247400 -18.937800
O -20.194500 -16.230800 -20.922600
C -19.758300 -16.924100 -20.024900
H -18.400300 -18.242100 -18.123200
C -18.380400 -17.483100 -20.011500
H -17.938500 -16.906800 -21.926300
C -17.851800 -18.104800 -18.886400
C -17.581100 -17.322700 -21.150100
H -16.621500 -17.415900 -23.746200
C -16.530800 -18.527200 -18.869000
C -16.272600 -17.769600 -21.146600
H -16.171600 -18.930000 -18.086400
H -16.104400 -16.052100 -23.086700
C -15.848300 -16.959800 -23.353100
C -15.731600 -18.362600 -19.995000
O -15.399400 -17.685600 -22.203900
H -15.125300 -16.914500 -24.013800
O -14.436100 -18.775400 -19.939600
H -13.985700 -18.577800 -20.646400
H -18.352900 -14.715200 -19.362900
H -18.037500 -13.677300 -18.187100
C -17.717600 -14.044000 -19.037200
H -17.638500 -13.322900 -19.695600
O -16.939600 -15.093600 -16.636500
N -16.400700 -14.672000 -18.836800
C -16.123300 -15.172400 -17.542800
O -15.906800 -14.262400 -21.033000
C -15.553000 -14.710800 -19.954800
H -15.154800 -17.273600 -15.009100
H -15.046000 -15.699700 -14.747400
C -14.810900 -15.730600 -17.476100
C -14.560600 -16.496100 -15.047000
N -14.303600 -15.263900 -19.774900
N -14.100800 -16.297900 -16.427100
C -13.951300 -15.765200 -18.544800
H -13.787600 -16.646700 -14.463200
H -13.762700 -14.930100 -21.690700
C -13.345700 -15.305500 -20.886900
H -13.083700 -16.233500 -21.057200
C -12.899800 -16.627600 -16.919900
N -12.756500 -16.323900 -18.219800
H -12.553100 -14.778500 -20.654700
H -12.217000 -17.035600 -16.401500
