20
Fragment
H -21.288300 -16.994200 -18.871500
O -20.451000 -17.247400 -18.937800
O -20.194500 -16.230800 -20.922600
C -19.758300 -16.924100 -20.024900
H -18.400300 -18.242100 -18.123200
C -18.380400 -17.483100 -20.011500
H -17.938500 -16.906800 -21.926300
C -17.851800 -18.104800 -18.886400
C -17.581100 -17.322700 -21.150100
H -16.621500 -17.415900 -23.746200
C -16.530800 -18.527200 -18.869000
C -16.272600 -17.769600 -21.146600
H -16.171600 -18.930000 -18.086400
H -16.104400 -16.052100 -23.086700
C -15.848300 -16.959800 -23.353100
C -15.731600 -18.362600 -19.995000
O -15.399400 -17.685600 -22.203900
H -15.125300 -16.914500 -24.013800
O -14.436100 -18.775400 -19.939600
H -13.985700 -18.577800 -20.646400
24
Fragment
H -14.846500 -20.830800 -24.579800
H -14.281900 -20.454900 -23.130500
H -14.189200 -19.395100 -24.325200
C -14.146500 -20.346600 -24.094300
N -12.831900 -20.881700 -24.467300
N -12.796900 -22.487900 -22.646200
O -12.733500 -19.560700 -26.309500
C -12.252600 -21.889500 -23.726600
C -12.217400 -20.415200 -25.609100
H -11.933000 -24.004800 -21.580600
C -11.845800 -23.409900 -22.315900
C -11.025800 -22.392400 -24.060500
H -11.012200 -20.200500 -27.794500
N -10.959800 -20.957400 -25.923200
N -10.755900 -23.395200 -23.139900
C -10.321600 -20.468800 -27.153100
C -10.275600 -21.935400 -25.181000
H -9.792700 -24.958100 -22.352600
H -9.773600 -21.182000 -27.542300
H -9.753500 -19.698800 -26.943200
C -9.620400 -24.282900 -23.041700
H -9.474400 -24.724000 -23.903700
O -9.144500 -22.329500 -25.500100
H -8.822900 -23.766500 -22.800200
44
Fragment
H -21.288300 -16.994200 -18.871500
O -20.451000 -17.247400 -18.937800
O -20.194500 -16.230800 -20.922600
C -19.758300 -16.924100 -20.024900
H -18.400300 -18.242100 -18.123200
C -18.380400 -17.483100 -20.011500
H -17.938500 -16.906800 -21.926300
C -17.851800 -18.104800 -18.886400
C -17.581100 -17.322700 -21.150100
H -16.621500 -17.415900 -23.746200
C -16.530800 -18.527200 -18.869000
C -16.272600 -17.769600 -21.146600
H -16.171600 -18.930000 -18.086400
H -16.104400 -16.052100 -23.086700
C -15.848300 -16.959800 -23.353100
C -15.731600 -18.362600 -19.995000
O -15.399400 -17.685600 -22.203900
H -15.125300 -16.914500 -24.013800
O -14.436100 -18.775400 -19.939600
H -13.985700 -18.577800 -20.646400
H -14.846500 -20.830800 -24.579800
H -14.281900 -20.454900 -23.130500
H -14.189200 -19.395100 -24.325200
C -14.146500 -20.346600 -24.094300
N -12.831900 -20.881700 -24.467300
N -12.796900 -22.487900 -22.646200
O -12.733500 -19.560700 -26.309500
C -12.252600 -21.889500 -23.726600
C -12.217400 -20.415200 -25.609100
H -11.933000 -24.004800 -21.580600
C -11.845800 -23.409900 -22.315900
C -11.025800 -22.392400 -24.060500
H -11.012200 -20.200500 -27.794500
N -10.959800 -20.957400 -25.923200
N -10.755900 -23.395200 -23.139900
C -10.321600 -20.468800 -27.153100
C -10.275600 -21.935400 -25.181000
H -9.792700 -24.958100 -22.352600
H -9.773600 -21.182000 -27.542300
H -9.753500 -19.698800 -26.943200
C -9.620400 -24.282900 -23.041700
H -9.474400 -24.724000 -23.903700
O -9.144500 -22.329500 -25.500100
H -8.822900 -23.766500 -22.800200
