16
Fragment
O -19.464000 -4.925000 -15.678600
N -18.519000 -5.470600 -16.243700
O -18.228600 -5.316400 -17.430300
N -17.932200 -6.637800 -14.226400
C -17.677000 -6.355700 -15.504200
N -16.978000 -7.500200 -13.833300
H -16.913800 -7.846400 -13.026400
C -16.545900 -7.041900 -15.963600
C -16.127600 -7.759900 -14.860900
H -15.759700 -6.955400 -17.798100
N -15.695500 -7.301600 -16.991200
C -14.996500 -8.446100 -15.320300
N -14.741300 -8.164000 -16.598100
O -14.445000 -9.485400 -13.394200
N -14.154500 -9.331200 -14.580800
O -13.209500 -9.876800 -15.145900
16
Fragment
O -14.043300 -4.925000 -15.678600
N -13.098300 -5.470600 -16.243700
O -12.807900 -5.316400 -17.430300
N -12.511500 -6.637800 -14.226400
C -12.256300 -6.355700 -15.504200
N -11.557300 -7.500200 -13.833300
H -11.493100 -7.846400 -13.026400
C -11.125200 -7.041900 -15.963600
C -10.706900 -7.759900 -14.860900
H -10.339000 -6.955400 -17.798100
N -10.274800 -7.301600 -16.991200
C -9.575800 -8.446100 -15.320300
N -9.320600 -8.164000 -16.598100
O -9.024300 -9.485400 -13.394200
N -8.733800 -9.331200 -14.580800
O -7.788800 -9.876800 -15.145900
32
Fragment
O -19.464000 -4.925000 -15.678600
N -18.519000 -5.470600 -16.243700
O -18.228600 -5.316400 -17.430300
N -17.932200 -6.637800 -14.226400
C -17.677000 -6.355700 -15.504200
N -16.978000 -7.500200 -13.833300
H -16.913800 -7.846400 -13.026400
C -16.545900 -7.041900 -15.963600
C -16.127600 -7.759900 -14.860900
H -15.759700 -6.955400 -17.798100
N -15.695500 -7.301600 -16.991200
C -14.996500 -8.446100 -15.320300
N -14.741300 -8.164000 -16.598100
O -14.445000 -9.485400 -13.394200
N -14.154500 -9.331200 -14.580800
O -13.209500 -9.876800 -15.145900
O -14.043300 -4.925000 -15.678600
N -13.098300 -5.470600 -16.243700
O -12.807900 -5.316400 -17.430300
N -12.511500 -6.637800 -14.226400
C -12.256300 -6.355700 -15.504200
N -11.557300 -7.500200 -13.833300
H -11.493100 -7.846400 -13.026400
C -11.125200 -7.041900 -15.963600
C -10.706900 -7.759900 -14.860900
H -10.339000 -6.955400 -17.798100
N -10.274800 -7.301600 -16.991200
C -9.575800 -8.446100 -15.320300
N -9.320600 -8.164000 -16.598100
O -9.024300 -9.485400 -13.394200
N -8.733800 -9.331200 -14.580800
O -7.788800 -9.876800 -15.145900
