16
Fragment
O -19.464000 -4.925000 -15.678600
N -18.519000 -5.470600 -16.243700
O -18.228600 -5.316400 -17.430300
N -17.932200 -6.637800 -14.226400
C -17.677000 -6.355700 -15.504200
N -16.978000 -7.500200 -13.833300
H -16.913800 -7.846400 -13.026400
C -16.545900 -7.041900 -15.963600
C -16.127600 -7.759900 -14.860900
H -15.759700 -6.955400 -17.798100
N -15.695500 -7.301600 -16.991200
C -14.996500 -8.446100 -15.320300
N -14.741300 -8.164000 -16.598100
O -14.445000 -9.485400 -13.394200
N -14.154500 -9.331200 -14.580800
O -13.209500 -9.876800 -15.145900
10
Fragment
H -15.201300 -9.723600 -18.942700
N -14.919800 -9.329500 -20.885600
C -14.587000 -9.549800 -19.645700
N -13.730800 -9.135200 -21.581800
N -13.235100 -9.495700 -19.500200
H -12.889800 -9.305200 -17.655300
C -12.744300 -9.237300 -20.726500
N -12.439900 -9.660300 -18.340800
H -12.403200 -10.529400 -18.183400
H -11.823200 -9.143700 -20.939100
26
Fragment
O -19.464000 -4.925000 -15.678600
N -18.519000 -5.470600 -16.243700
O -18.228600 -5.316400 -17.430300
N -17.932200 -6.637800 -14.226400
C -17.677000 -6.355700 -15.504200
N -16.978000 -7.500200 -13.833300
H -16.913800 -7.846400 -13.026400
C -16.545900 -7.041900 -15.963600
C -16.127600 -7.759900 -14.860900
H -15.759700 -6.955400 -17.798100
N -15.695500 -7.301600 -16.991200
C -14.996500 -8.446100 -15.320300
N -14.741300 -8.164000 -16.598100
O -14.445000 -9.485400 -13.394200
N -14.154500 -9.331200 -14.580800
O -13.209500 -9.876800 -15.145900
H -15.201300 -9.723600 -18.942700
N -14.919800 -9.329500 -20.885600
C -14.587000 -9.549800 -19.645700
N -13.730800 -9.135200 -21.581800
N -13.235100 -9.495700 -19.500200
H -12.889800 -9.305200 -17.655300
C -12.744300 -9.237300 -20.726500
N -12.439900 -9.660300 -18.340800
H -12.403200 -10.529400 -18.183400
H -11.823200 -9.143700 -20.939100
