16
Fragment
O -11.962500 -8.801200 -24.019500
N -10.986300 -9.372100 -24.490300
O -10.728500 -9.458000 -25.690800
N -10.305800 -10.066600 -22.301700
C -10.055500 -9.998200 -23.608300
N -9.273200 -10.726400 -21.752600
H -9.272000 -10.890600 -20.867000
C -8.842200 -10.622400 -23.931200
C -8.369900 -11.072100 -22.705900
H -7.940200 -10.803900 -25.770100
N -7.939000 -10.968100 -24.884400
C -7.156700 -11.696300 -23.028700
N -6.906400 -11.627900 -24.335300
O -6.483600 -12.236500 -20.946200
N -6.225900 -12.322400 -22.146700
O -5.249700 -12.893300 -22.617600
16
Fragment
O -18.252800 -8.801200 -24.019500
N -17.276600 -9.372100 -24.490300
O -17.018800 -9.458000 -25.690800
N -16.596100 -10.066600 -22.301700
C -16.345800 -9.998200 -23.608300
N -15.563500 -10.726400 -21.752600
H -15.562300 -10.890600 -20.867000
C -15.132500 -10.622400 -23.931200
C -14.660200 -11.072100 -22.705900
H -14.230500 -10.803900 -25.770100
N -14.229300 -10.968100 -24.884400
C -13.447000 -11.696300 -23.028700
N -13.196700 -11.627900 -24.335300
O -12.773900 -12.236500 -20.946200
N -12.516200 -12.322400 -22.146700
O -11.540000 -12.893300 -22.617600
32
Fragment
O -11.962500 -8.801200 -24.019500
N -10.986300 -9.372100 -24.490300
O -10.728500 -9.458000 -25.690800
N -10.305800 -10.066600 -22.301700
C -10.055500 -9.998200 -23.608300
N -9.273200 -10.726400 -21.752600
H -9.272000 -10.890600 -20.867000
C -8.842200 -10.622400 -23.931200
C -8.369900 -11.072100 -22.705900
H -7.940200 -10.803900 -25.770100
N -7.939000 -10.968100 -24.884400
C -7.156700 -11.696300 -23.028700
N -6.906400 -11.627900 -24.335300
O -6.483600 -12.236500 -20.946200
N -6.225900 -12.322400 -22.146700
O -5.249700 -12.893300 -22.617600
O -18.252800 -8.801200 -24.019500
N -17.276600 -9.372100 -24.490300
O -17.018800 -9.458000 -25.690800
N -16.596100 -10.066600 -22.301700
C -16.345800 -9.998200 -23.608300
N -15.563500 -10.726400 -21.752600
H -15.562300 -10.890600 -20.867000
C -15.132500 -10.622400 -23.931200
C -14.660200 -11.072100 -22.705900
H -14.230500 -10.803900 -25.770100
N -14.229300 -10.968100 -24.884400
C -13.447000 -11.696300 -23.028700
N -13.196700 -11.627900 -24.335300
O -12.773900 -12.236500 -20.946200
N -12.516200 -12.322400 -22.146700
O -11.540000 -12.893300 -22.617600
