16
Fragment
O -19.464000 -4.925000 -15.678600
N -18.519000 -5.470600 -16.243700
O -18.228600 -5.316400 -17.430300
N -17.932200 -6.637800 -14.226400
C -17.677000 -6.355700 -15.504200
N -16.978000 -7.500200 -13.833300
H -16.913800 -7.846400 -13.026400
C -16.545900 -7.041900 -15.963600
C -16.127600 -7.759900 -14.860900
H -15.759700 -6.955400 -17.798100
N -15.695500 -7.301600 -16.991200
C -14.996500 -8.446100 -15.320300
N -14.741300 -8.164000 -16.598100
O -14.445000 -9.485400 -13.394200
N -14.154500 -9.331200 -14.580800
O -13.209500 -9.876800 -15.145900
16
Fragment
O -16.219200 -11.364300 -15.678600
N -15.274200 -11.909900 -16.243700
O -14.983700 -11.755700 -17.430300
N -14.687400 -13.077100 -14.226400
C -14.432200 -12.795100 -15.504200
N -13.733200 -13.939500 -13.833300
H -13.669000 -14.285700 -13.026400
C -13.301100 -13.481200 -15.963600
C -12.882800 -14.199300 -14.860900
H -12.514900 -13.394700 -17.798100
N -12.450700 -13.740900 -16.991200
C -11.751700 -14.885400 -15.320300
N -11.496500 -14.603400 -16.598100
O -11.200100 -15.924800 -13.394200
N -10.909700 -15.770600 -14.580800
O -9.964700 -16.316200 -15.145900
32
Fragment
O -19.464000 -4.925000 -15.678600
N -18.519000 -5.470600 -16.243700
O -18.228600 -5.316400 -17.430300
N -17.932200 -6.637800 -14.226400
C -17.677000 -6.355700 -15.504200
N -16.978000 -7.500200 -13.833300
H -16.913800 -7.846400 -13.026400
C -16.545900 -7.041900 -15.963600
C -16.127600 -7.759900 -14.860900
H -15.759700 -6.955400 -17.798100
N -15.695500 -7.301600 -16.991200
C -14.996500 -8.446100 -15.320300
N -14.741300 -8.164000 -16.598100
O -14.445000 -9.485400 -13.394200
N -14.154500 -9.331200 -14.580800
O -13.209500 -9.876800 -15.145900
O -16.219200 -11.364300 -15.678600
N -15.274200 -11.909900 -16.243700
O -14.983700 -11.755700 -17.430300
N -14.687400 -13.077100 -14.226400
C -14.432200 -12.795100 -15.504200
N -13.733200 -13.939500 -13.833300
H -13.669000 -14.285700 -13.026400
C -13.301100 -13.481200 -15.963600
C -12.882800 -14.199300 -14.860900
H -12.514900 -13.394700 -17.798100
N -12.450700 -13.740900 -16.991200
C -11.751700 -14.885400 -15.320300
N -11.496500 -14.603400 -16.598100
O -11.200100 -15.924800 -13.394200
N -10.909700 -15.770600 -14.580800
O -9.964700 -16.316200 -15.145900
