16
Fragment
O -11.962500 -8.801200 -24.019500
N -10.986300 -9.372100 -24.490300
O -10.728500 -9.458000 -25.690800
N -10.305800 -10.066600 -22.301700
C -10.055500 -9.998200 -23.608300
N -9.273200 -10.726400 -21.752600
H -9.272000 -10.890600 -20.867000
C -8.842200 -10.622400 -23.931200
C -8.369900 -11.072100 -22.705900
H -7.940200 -10.803900 -25.770100
N -7.939000 -10.968100 -24.884400
C -7.156700 -11.696300 -23.028700
N -6.906400 -11.627900 -24.335300
O -6.483600 -12.236500 -20.946200
N -6.225900 -12.322400 -22.146700
O -5.249700 -12.893300 -22.617600
16
Fragment
O -5.672200 -16.032700 -24.019500
N -4.696000 -16.603600 -24.490300
O -4.438200 -16.689500 -25.690800
N -4.015500 -17.298100 -22.301700
C -3.765200 -17.229700 -23.608300
N -2.982900 -17.957900 -21.752600
H -2.981700 -18.122100 -20.867000
C -2.551900 -17.853900 -23.931200
C -2.079600 -18.303600 -22.705900
H -1.649900 -18.035400 -25.770100
N -1.648700 -18.199600 -24.884400
C -0.866400 -18.927800 -23.028700
N -0.616100 -18.859400 -24.335300
O -0.193300 -19.468000 -20.946200
N 0.064400 -19.553900 -22.146700
O 1.040600 -20.124800 -22.617600
32
Fragment
O -11.962500 -8.801200 -24.019500
N -10.986300 -9.372100 -24.490300
O -10.728500 -9.458000 -25.690800
N -10.305800 -10.066600 -22.301700
C -10.055500 -9.998200 -23.608300
N -9.273200 -10.726400 -21.752600
H -9.272000 -10.890600 -20.867000
C -8.842200 -10.622400 -23.931200
C -8.369900 -11.072100 -22.705900
H -7.940200 -10.803900 -25.770100
N -7.939000 -10.968100 -24.884400
C -7.156700 -11.696300 -23.028700
N -6.906400 -11.627900 -24.335300
O -6.483600 -12.236500 -20.946200
N -6.225900 -12.322400 -22.146700
O -5.249700 -12.893300 -22.617600
O -5.672200 -16.032700 -24.019500
N -4.696000 -16.603600 -24.490300
O -4.438200 -16.689500 -25.690800
N -4.015500 -17.298100 -22.301700
C -3.765200 -17.229700 -23.608300
N -2.982900 -17.957900 -21.752600
H -2.981700 -18.122100 -20.867000
C -2.551900 -17.853900 -23.931200
C -2.079600 -18.303600 -22.705900
H -1.649900 -18.035400 -25.770100
N -1.648700 -18.199600 -24.884400
C -0.866400 -18.927800 -23.028700
N -0.616100 -18.859400 -24.335300
O -0.193300 -19.468000 -20.946200
N 0.064400 -19.553900 -22.146700
O 1.040600 -20.124800 -22.617600
