16
Fragment
O -11.962500 -8.801200 -24.019500
N -10.986300 -9.372100 -24.490300
O -10.728500 -9.458000 -25.690800
N -10.305800 -10.066600 -22.301700
C -10.055500 -9.998200 -23.608300
N -9.273200 -10.726400 -21.752600
H -9.272000 -10.890600 -20.867000
C -8.842200 -10.622400 -23.931200
C -8.369900 -11.072100 -22.705900
H -7.940200 -10.803900 -25.770100
N -7.939000 -10.968100 -24.884400
C -7.156700 -11.696300 -23.028700
N -6.906400 -11.627900 -24.335300
O -6.483600 -12.236500 -20.946200
N -6.225900 -12.322400 -22.146700
O -5.249700 -12.893300 -22.617600
10
Fragment
H -11.709600 -12.452600 -17.591500
H -11.593800 -12.141700 -19.077600
N -11.207300 -12.301600 -18.299100
C -10.066400 -11.603800 -18.048200
N -9.616900 -11.353800 -16.826000
N -9.245600 -11.162300 -19.045200
N -8.417500 -10.719000 -17.079100
C -8.225900 -10.616800 -18.376200
H -7.933600 -10.435100 -16.403800
H -7.453800 -10.210900 -18.751200
26
Fragment
O -11.962500 -8.801200 -24.019500
N -10.986300 -9.372100 -24.490300
O -10.728500 -9.458000 -25.690800
N -10.305800 -10.066600 -22.301700
C -10.055500 -9.998200 -23.608300
N -9.273200 -10.726400 -21.752600
H -9.272000 -10.890600 -20.867000
C -8.842200 -10.622400 -23.931200
C -8.369900 -11.072100 -22.705900
H -7.940200 -10.803900 -25.770100
N -7.939000 -10.968100 -24.884400
C -7.156700 -11.696300 -23.028700
N -6.906400 -11.627900 -24.335300
O -6.483600 -12.236500 -20.946200
N -6.225900 -12.322400 -22.146700
O -5.249700 -12.893300 -22.617600
H -11.709600 -12.452600 -17.591500
H -11.593800 -12.141700 -19.077600
N -11.207300 -12.301600 -18.299100
C -10.066400 -11.603800 -18.048200
N -9.616900 -11.353800 -16.826000
N -9.245600 -11.162300 -19.045200
N -8.417500 -10.719000 -17.079100
C -8.225900 -10.616800 -18.376200
H -7.933600 -10.435100 -16.403800
H -7.453800 -10.210900 -18.751200
