16
Fragment
O -19.464000 -4.925000 -15.678600
N -18.519000 -5.470600 -16.243700
O -18.228600 -5.316400 -17.430300
N -17.932200 -6.637800 -14.226400
C -17.677000 -6.355700 -15.504200
N -16.978000 -7.500200 -13.833300
H -16.913800 -7.846400 -13.026400
C -16.545900 -7.041900 -15.963600
C -16.127600 -7.759900 -14.860900
H -15.759700 -6.955400 -17.798100
N -15.695500 -7.301600 -16.991200
C -14.996500 -8.446100 -15.320300
N -14.741300 -8.164000 -16.598100
O -14.445000 -9.485400 -13.394200
N -14.154500 -9.331200 -14.580800
O -13.209500 -9.876800 -15.145900
10
Fragment
H -17.642700 -6.299200 -20.160300
H -17.062700 -4.913400 -22.916000
N -17.026000 -5.782600 -22.758600
C -16.721600 -6.205500 -20.372900
H -16.576100 -6.137600 -23.444100
N -16.230800 -5.947100 -21.599200
N -15.735100 -6.307700 -19.517600
C -14.878900 -5.893000 -21.453700
N -14.546100 -6.113400 -20.213800
H -14.264600 -5.719300 -22.156700
26
Fragment
O -19.464000 -4.925000 -15.678600
N -18.519000 -5.470600 -16.243700
O -18.228600 -5.316400 -17.430300
N -17.932200 -6.637800 -14.226400
C -17.677000 -6.355700 -15.504200
N -16.978000 -7.500200 -13.833300
H -16.913800 -7.846400 -13.026400
C -16.545900 -7.041900 -15.963600
C -16.127600 -7.759900 -14.860900
H -15.759700 -6.955400 -17.798100
N -15.695500 -7.301600 -16.991200
C -14.996500 -8.446100 -15.320300
N -14.741300 -8.164000 -16.598100
O -14.445000 -9.485400 -13.394200
N -14.154500 -9.331200 -14.580800
O -13.209500 -9.876800 -15.145900
H -17.642700 -6.299200 -20.160300
H -17.062700 -4.913400 -22.916000
N -17.026000 -5.782600 -22.758600
C -16.721600 -6.205500 -20.372900
H -16.576100 -6.137600 -23.444100
N -16.230800 -5.947100 -21.599200
N -15.735100 -6.307700 -19.517600
C -14.878900 -5.893000 -21.453700
N -14.546100 -6.113400 -20.213800
H -14.264600 -5.719300 -22.156700
