16
Fragment
O -11.962500 -8.801200 -24.019500
N -10.986300 -9.372100 -24.490300
O -10.728500 -9.458000 -25.690800
N -10.305800 -10.066600 -22.301700
C -10.055500 -9.998200 -23.608300
N -9.273200 -10.726400 -21.752600
H -9.272000 -10.890600 -20.867000
C -8.842200 -10.622400 -23.931200
C -8.369900 -11.072100 -22.705900
H -7.940200 -10.803900 -25.770100
N -7.939000 -10.968100 -24.884400
C -7.156700 -11.696300 -23.028700
N -6.906400 -11.627900 -24.335300
O -6.483600 -12.236500 -20.946200
N -6.225900 -12.322400 -22.146700
O -5.249700 -12.893300 -22.617600
10
Fragment
H -16.325100 -6.595100 -20.113000
H -15.845300 -6.819300 -22.460400
C -15.553000 -7.001000 -20.487900
N -15.361400 -7.103300 -21.785100
N -14.533300 -7.546500 -19.819000
N -14.162000 -7.738100 -22.038200
C -13.712500 -7.988100 -20.816000
N -12.571600 -8.685800 -20.565100
H -12.185100 -8.525900 -19.786500
H -12.069300 -8.836900 -21.272700
26
Fragment
O -11.962500 -8.801200 -24.019500
N -10.986300 -9.372100 -24.490300
O -10.728500 -9.458000 -25.690800
N -10.305800 -10.066600 -22.301700
C -10.055500 -9.998200 -23.608300
N -9.273200 -10.726400 -21.752600
H -9.272000 -10.890600 -20.867000
C -8.842200 -10.622400 -23.931200
C -8.369900 -11.072100 -22.705900
H -7.940200 -10.803900 -25.770100
N -7.939000 -10.968100 -24.884400
C -7.156700 -11.696300 -23.028700
N -6.906400 -11.627900 -24.335300
O -6.483600 -12.236500 -20.946200
N -6.225900 -12.322400 -22.146700
O -5.249700 -12.893300 -22.617600
H -16.325100 -6.595100 -20.113000
H -15.845300 -6.819300 -22.460400
C -15.553000 -7.001000 -20.487900
N -15.361400 -7.103300 -21.785100
N -14.533300 -7.546500 -19.819000
N -14.162000 -7.738100 -22.038200
C -13.712500 -7.988100 -20.816000
N -12.571600 -8.685800 -20.565100
H -12.185100 -8.525900 -19.786500
H -12.069300 -8.836900 -21.272700
