16
Fragment
O -19.464000 -4.925000 -15.678600
N -18.519000 -5.470600 -16.243700
O -18.228600 -5.316400 -17.430300
N -17.932200 -6.637800 -14.226400
C -17.677000 -6.355700 -15.504200
N -16.978000 -7.500200 -13.833300
H -16.913800 -7.846400 -13.026400
C -16.545900 -7.041900 -15.963600
C -16.127600 -7.759900 -14.860900
H -15.759700 -6.955400 -17.798100
N -15.695500 -7.301600 -16.991200
C -14.996500 -8.446100 -15.320300
N -14.741300 -8.164000 -16.598100
O -14.445000 -9.485400 -13.394200
N -14.154500 -9.331200 -14.580800
O -13.209500 -9.876800 -15.145900
10
Fragment
H -17.605500 -12.097400 -9.885400
H -17.025500 -10.711700 -12.641100
N -16.988800 -11.580800 -12.483700
C -16.684400 -12.003800 -10.098000
H -16.538900 -11.935900 -13.169300
N -16.193600 -11.745400 -11.324300
N -15.697900 -12.106000 -9.242700
C -14.841700 -11.691300 -11.178800
N -14.508900 -11.911700 -9.939000
H -14.227400 -11.517500 -11.881800
26
Fragment
O -19.464000 -4.925000 -15.678600
N -18.519000 -5.470600 -16.243700
O -18.228600 -5.316400 -17.430300
N -17.932200 -6.637800 -14.226400
C -17.677000 -6.355700 -15.504200
N -16.978000 -7.500200 -13.833300
H -16.913800 -7.846400 -13.026400
C -16.545900 -7.041900 -15.963600
C -16.127600 -7.759900 -14.860900
H -15.759700 -6.955400 -17.798100
N -15.695500 -7.301600 -16.991200
C -14.996500 -8.446100 -15.320300
N -14.741300 -8.164000 -16.598100
O -14.445000 -9.485400 -13.394200
N -14.154500 -9.331200 -14.580800
O -13.209500 -9.876800 -15.145900
H -17.605500 -12.097400 -9.885400
H -17.025500 -10.711700 -12.641100
N -16.988800 -11.580800 -12.483700
C -16.684400 -12.003800 -10.098000
H -16.538900 -11.935900 -13.169300
N -16.193600 -11.745400 -11.324300
N -15.697900 -12.106000 -9.242700
C -14.841700 -11.691300 -11.178800
N -14.508900 -11.911700 -9.939000
H -14.227400 -11.517500 -11.881800
