26
Fragment
H -16.220200 -2.280200 -20.247800
H -15.998400 -3.041500 -18.857400
C -15.566600 -2.501400 -19.552000
H -15.220300 -1.675000 -19.154200
H -15.146200 -5.042900 -25.971600
H -14.666800 -6.395200 -27.771100
H -14.614400 -4.534700 -23.760700
N -14.503500 -3.755600 -21.388000
C -14.452800 -3.265600 -20.148100
C -14.347500 -5.386300 -25.588800
C -14.028800 -5.081800 -24.270700
N -13.822200 -6.475200 -27.685000
C -13.511700 -6.183200 -26.347000
H -13.456400 -7.190500 -28.045400
N -13.319300 -3.550100 -19.423800
N -13.291500 -4.419100 -21.461700
C -12.857500 -5.570200 -23.685800
C -12.628600 -4.271600 -20.285900
C -12.521900 -5.211900 -22.302900
C -12.324800 -6.653300 -25.777100
C -12.006100 -6.355500 -24.454000
H -11.731200 -7.181400 -26.295900
N -11.477800 -4.946800 -20.416200
N -11.415100 -5.556500 -21.661300
H -11.202300 -6.690600 -24.076200
H -10.905300 -5.032500 -19.852500
26
Fragment
H -16.220200 -6.422200 -20.247800
H -15.998400 -7.183500 -18.857400
C -15.566600 -6.643400 -19.552000
H -15.220300 -5.817000 -19.154200
H -15.146200 -9.184900 -25.971600
H -14.666800 -10.537200 -27.771100
H -14.614400 -8.676700 -23.760700
N -14.503500 -7.897600 -21.388000
C -14.452800 -7.407600 -20.148100
C -14.347500 -9.528300 -25.588800
C -14.028800 -9.223800 -24.270700
N -13.822200 -10.617200 -27.685000
C -13.511700 -10.325200 -26.347000
H -13.456400 -11.332500 -28.045400
N -13.319300 -7.692100 -19.423800
N -13.291500 -8.561100 -21.461700
C -12.857500 -9.712200 -23.685800
C -12.628600 -8.413600 -20.285900
C -12.521900 -9.353900 -22.302900
C -12.324800 -10.795300 -25.777100
C -12.006100 -10.497500 -24.454000
H -11.731200 -11.323400 -26.295900
N -11.477800 -9.088800 -20.416200
N -11.415100 -9.698500 -21.661300
H -11.202300 -10.832600 -24.076200
H -10.905300 -9.174500 -19.852500
52
Fragment
H -16.220200 -2.280200 -20.247800
H -15.998400 -3.041500 -18.857400
C -15.566600 -2.501400 -19.552000
H -15.220300 -1.675000 -19.154200
H -15.146200 -5.042900 -25.971600
H -14.666800 -6.395200 -27.771100
H -14.614400 -4.534700 -23.760700
N -14.503500 -3.755600 -21.388000
C -14.452800 -3.265600 -20.148100
C -14.347500 -5.386300 -25.588800
C -14.028800 -5.081800 -24.270700
N -13.822200 -6.475200 -27.685000
C -13.511700 -6.183200 -26.347000
H -13.456400 -7.190500 -28.045400
N -13.319300 -3.550100 -19.423800
N -13.291500 -4.419100 -21.461700
C -12.857500 -5.570200 -23.685800
C -12.628600 -4.271600 -20.285900
C -12.521900 -5.211900 -22.302900
C -12.324800 -6.653300 -25.777100
C -12.006100 -6.355500 -24.454000
H -11.731200 -7.181400 -26.295900
N -11.477800 -4.946800 -20.416200
N -11.415100 -5.556500 -21.661300
H -11.202300 -6.690600 -24.076200
H -10.905300 -5.032500 -19.852500
H -16.220200 -6.422200 -20.247800
H -15.998400 -7.183500 -18.857400
C -15.566600 -6.643400 -19.552000
H -15.220300 -5.817000 -19.154200
H -15.146200 -9.184900 -25.971600
H -14.666800 -10.537200 -27.771100
H -14.614400 -8.676700 -23.760700
N -14.503500 -7.897600 -21.388000
C -14.452800 -7.407600 -20.148100
C -14.347500 -9.528300 -25.588800
C -14.028800 -9.223800 -24.270700
N -13.822200 -10.617200 -27.685000
C -13.511700 -10.325200 -26.347000
H -13.456400 -11.332500 -28.045400
N -13.319300 -7.692100 -19.423800
N -13.291500 -8.561100 -21.461700
C -12.857500 -9.712200 -23.685800
C -12.628600 -8.413600 -20.285900
C -12.521900 -9.353900 -22.302900
C -12.324800 -10.795300 -25.777100
C -12.006100 -10.497500 -24.454000
H -11.731200 -11.323400 -26.295900
N -11.477800 -9.088800 -20.416200
N -11.415100 -9.698500 -21.661300
H -11.202300 -10.832600 -24.076200
H -10.905300 -9.174500 -19.852500
