26
Fragment
H -16.220200 -2.280200 -20.247800
H -15.998400 -3.041500 -18.857400
C -15.566600 -2.501400 -19.552000
H -15.220300 -1.675000 -19.154200
H -15.146200 -5.042900 -25.971600
H -14.666800 -6.395200 -27.771100
H -14.614400 -4.534700 -23.760700
N -14.503500 -3.755600 -21.388000
C -14.452800 -3.265600 -20.148100
C -14.347500 -5.386300 -25.588800
C -14.028800 -5.081800 -24.270700
N -13.822200 -6.475200 -27.685000
C -13.511700 -6.183200 -26.347000
H -13.456400 -7.190500 -28.045400
N -13.319300 -3.550100 -19.423800
N -13.291500 -4.419100 -21.461700
C -12.857500 -5.570200 -23.685800
C -12.628600 -4.271600 -20.285900
C -12.521900 -5.211900 -22.302900
C -12.324800 -6.653300 -25.777100
C -12.006100 -6.355500 -24.454000
H -11.731200 -7.181400 -26.295900
N -11.477800 -4.946800 -20.416200
N -11.415100 -5.556500 -21.661300
H -11.202300 -6.690600 -24.076200
H -10.905300 -5.032500 -19.852500
26
Fragment
H -12.663000 -2.961500 -17.558000
H -12.366100 -4.619600 -13.334400
N -12.153200 -3.485500 -15.749200
N -12.090600 -2.875800 -16.994300
H -11.837100 -5.110400 -11.114700
C -11.562300 -4.284500 -12.956500
C -11.243500 -4.582300 -11.633400
C -11.046500 -3.140900 -15.107600
C -10.939700 -2.200600 -17.124700
C -10.710800 -3.499200 -13.724700
N -10.276900 -2.348100 -15.948900
N -10.249100 -1.479100 -17.986700
H -10.111900 -5.119500 -9.365100
C -10.056700 -4.112200 -11.063500
N -9.746200 -4.404200 -9.725500
C -9.539500 -3.010800 -13.139800
C -9.220800 -3.315300 -11.821700
C -9.115500 -1.194600 -17.262500
N -9.064800 -1.684600 -16.022500
H -8.953900 -2.463700 -13.649800
H -8.901600 -4.324200 -9.639400
H -8.422200 -2.971900 -11.438900
H -8.348100 0.396000 -18.256300
C -8.001800 -0.430400 -17.858500
H -7.569900 -0.970500 -18.553100
H -7.348100 -0.209200 -17.162700
52
Fragment
H -16.220200 -2.280200 -20.247800
H -15.998400 -3.041500 -18.857400
C -15.566600 -2.501400 -19.552000
H -15.220300 -1.675000 -19.154200
H -15.146200 -5.042900 -25.971600
H -14.666800 -6.395200 -27.771100
H -14.614400 -4.534700 -23.760700
N -14.503500 -3.755600 -21.388000
C -14.452800 -3.265600 -20.148100
C -14.347500 -5.386300 -25.588800
C -14.028800 -5.081800 -24.270700
N -13.822200 -6.475200 -27.685000
C -13.511700 -6.183200 -26.347000
H -13.456400 -7.190500 -28.045400
N -13.319300 -3.550100 -19.423800
N -13.291500 -4.419100 -21.461700
C -12.857500 -5.570200 -23.685800
C -12.628600 -4.271600 -20.285900
C -12.521900 -5.211900 -22.302900
C -12.324800 -6.653300 -25.777100
C -12.006100 -6.355500 -24.454000
H -11.731200 -7.181400 -26.295900
N -11.477800 -4.946800 -20.416200
N -11.415100 -5.556500 -21.661300
H -11.202300 -6.690600 -24.076200
H -10.905300 -5.032500 -19.852500
H -12.663000 -2.961500 -17.558000
H -12.366100 -4.619600 -13.334400
N -12.153200 -3.485500 -15.749200
N -12.090600 -2.875800 -16.994300
H -11.837100 -5.110400 -11.114700
C -11.562300 -4.284500 -12.956500
C -11.243500 -4.582300 -11.633400
C -11.046500 -3.140900 -15.107600
C -10.939700 -2.200600 -17.124700
C -10.710800 -3.499200 -13.724700
N -10.276900 -2.348100 -15.948900
N -10.249100 -1.479100 -17.986700
H -10.111900 -5.119500 -9.365100
C -10.056700 -4.112200 -11.063500
N -9.746200 -4.404200 -9.725500
C -9.539500 -3.010800 -13.139800
C -9.220800 -3.315300 -11.821700
C -9.115500 -1.194600 -17.262500
N -9.064800 -1.684600 -16.022500
H -8.953900 -2.463700 -13.649800
H -8.901600 -4.324200 -9.639400
H -8.422200 -2.971900 -11.438900
H -8.348100 0.396000 -18.256300
C -8.001800 -0.430400 -17.858500
H -7.569900 -0.970500 -18.553100
H -7.348100 -0.209200 -17.162700
