26
Fragment
H -16.220200 -2.280200 -20.247800
H -15.998400 -3.041500 -18.857400
C -15.566600 -2.501400 -19.552000
H -15.220300 -1.675000 -19.154200
H -15.146200 -5.042900 -25.971600
H -14.666800 -6.395200 -27.771100
H -14.614400 -4.534700 -23.760700
N -14.503500 -3.755600 -21.388000
C -14.452800 -3.265600 -20.148100
C -14.347500 -5.386300 -25.588800
C -14.028800 -5.081800 -24.270700
N -13.822200 -6.475200 -27.685000
C -13.511700 -6.183200 -26.347000
H -13.456400 -7.190500 -28.045400
N -13.319300 -3.550100 -19.423800
N -13.291500 -4.419100 -21.461700
C -12.857500 -5.570200 -23.685800
C -12.628600 -4.271600 -20.285900
C -12.521900 -5.211900 -22.302900
C -12.324800 -6.653300 -25.777100
C -12.006100 -6.355500 -24.454000
H -11.731200 -7.181400 -26.295900
N -11.477800 -4.946800 -20.416200
N -11.415100 -5.556500 -21.661300
H -11.202300 -6.690600 -24.076200
H -10.905300 -5.032500 -19.852500
26
Fragment
H -10.119100 -2.961500 -30.028200
H -9.822200 -4.619600 -25.804500
N -9.609300 -3.485500 -28.219400
N -9.546700 -2.875800 -29.464500
H -9.293200 -5.110400 -23.584800
C -9.018400 -4.284500 -25.426700
C -8.699600 -4.582300 -24.103600
C -8.502600 -3.140900 -27.577800
C -8.395800 -2.200600 -29.594800
C -8.167000 -3.499200 -26.194800
N -7.733000 -2.348100 -28.419000
N -7.705200 -1.479100 -30.456900
H -7.568100 -5.119500 -21.835300
C -7.512800 -4.112200 -23.533700
N -7.202300 -4.404200 -22.195700
C -6.995600 -3.010800 -25.610000
C -6.676900 -3.315300 -24.291900
C -6.571700 -1.194600 -29.732600
N -6.520900 -1.684600 -28.492700
H -6.410100 -2.463700 -26.120000
H -6.357700 -4.324200 -22.109600
H -5.878300 -2.971900 -23.909100
H -5.804200 0.396000 -30.726500
C -5.457900 -0.430400 -30.328700
H -5.026000 -0.970500 -31.023300
H -4.804200 -0.209200 -29.632900
52
Fragment
H -16.220200 -2.280200 -20.247800
H -15.998400 -3.041500 -18.857400
C -15.566600 -2.501400 -19.552000
H -15.220300 -1.675000 -19.154200
H -15.146200 -5.042900 -25.971600
H -14.666800 -6.395200 -27.771100
H -14.614400 -4.534700 -23.760700
N -14.503500 -3.755600 -21.388000
C -14.452800 -3.265600 -20.148100
C -14.347500 -5.386300 -25.588800
C -14.028800 -5.081800 -24.270700
N -13.822200 -6.475200 -27.685000
C -13.511700 -6.183200 -26.347000
H -13.456400 -7.190500 -28.045400
N -13.319300 -3.550100 -19.423800
N -13.291500 -4.419100 -21.461700
C -12.857500 -5.570200 -23.685800
C -12.628600 -4.271600 -20.285900
C -12.521900 -5.211900 -22.302900
C -12.324800 -6.653300 -25.777100
C -12.006100 -6.355500 -24.454000
H -11.731200 -7.181400 -26.295900
N -11.477800 -4.946800 -20.416200
N -11.415100 -5.556500 -21.661300
H -11.202300 -6.690600 -24.076200
H -10.905300 -5.032500 -19.852500
H -10.119100 -2.961500 -30.028200
H -9.822200 -4.619600 -25.804500
N -9.609300 -3.485500 -28.219400
N -9.546700 -2.875800 -29.464500
H -9.293200 -5.110400 -23.584800
C -9.018400 -4.284500 -25.426700
C -8.699600 -4.582300 -24.103600
C -8.502600 -3.140900 -27.577800
C -8.395800 -2.200600 -29.594800
C -8.167000 -3.499200 -26.194800
N -7.733000 -2.348100 -28.419000
N -7.705200 -1.479100 -30.456900
H -7.568100 -5.119500 -21.835300
C -7.512800 -4.112200 -23.533700
N -7.202300 -4.404200 -22.195700
C -6.995600 -3.010800 -25.610000
C -6.676900 -3.315300 -24.291900
C -6.571700 -1.194600 -29.732600
N -6.520900 -1.684600 -28.492700
H -6.410100 -2.463700 -26.120000
H -6.357700 -4.324200 -22.109600
H -5.878300 -2.971900 -23.909100
H -5.804200 0.396000 -30.726500
C -5.457900 -0.430400 -30.328700
H -5.026000 -0.970500 -31.023300
H -4.804200 -0.209200 -29.632900
