19
Fragment
O -17.243000 -15.905600 -21.906200
H -16.777100 -13.934800 -20.221100
H -16.632200 -11.768500 -19.252300
C -16.380100 -14.983400 -21.962600
C -16.170300 -13.988200 -21.003200
H -15.730700 -15.560700 -23.732200
C -15.728300 -11.920000 -18.985800
H -15.676900 -12.739000 -18.509000
N -15.555300 -14.949500 -23.054600
H -15.439600 -11.207500 -18.433800
C -15.176000 -13.068300 -21.201600
H -14.921600 -11.162100 -20.659100
C -14.857300 -11.992900 -20.207000
C -14.592900 -14.004700 -23.210800
N -14.382400 -13.058000 -22.306600
H -13.985700 -14.724400 -24.960500
H -13.966100 -12.131900 -19.915800
N -13.837800 -14.045400 -24.312300
H -13.156500 -13.398200 -24.448500
14
Fragment
O -17.391500 -17.252700 -16.482200
H -17.099600 -15.996800 -14.570500
O -16.903900 -15.653100 -15.026100
C -16.719600 -16.311800 -16.164000
H -16.134600 -16.460600 -18.786100
H -15.803300 -14.832300 -17.163300
C -15.598900 -15.748100 -16.977700
C -15.342400 -16.489900 -18.250700
H -15.138000 -17.405700 -18.065100
H -14.806700 -15.777400 -16.442300
C -14.221700 -15.926200 -19.064400
O -14.037400 -16.585000 -20.202300
H -13.841800 -16.241200 -20.657900
O -13.549800 -14.985300 -18.746200
33
Fragment
O -17.243000 -15.905600 -21.906200
H -16.777100 -13.934800 -20.221100
H -16.632200 -11.768500 -19.252300
C -16.380100 -14.983400 -21.962600
C -16.170300 -13.988200 -21.003200
H -15.730700 -15.560700 -23.732200
C -15.728300 -11.920000 -18.985800
H -15.676900 -12.739000 -18.509000
N -15.555300 -14.949500 -23.054600
H -15.439600 -11.207500 -18.433800
C -15.176000 -13.068300 -21.201600
H -14.921600 -11.162100 -20.659100
C -14.857300 -11.992900 -20.207000
C -14.592900 -14.004700 -23.210800
N -14.382400 -13.058000 -22.306600
H -13.985700 -14.724400 -24.960500
H -13.966100 -12.131900 -19.915800
N -13.837800 -14.045400 -24.312300
H -13.156500 -13.398200 -24.448500
O -17.391500 -17.252700 -16.482200
H -17.099600 -15.996800 -14.570500
O -16.903900 -15.653100 -15.026100
C -16.719600 -16.311800 -16.164000
H -16.134600 -16.460600 -18.786100
H -15.803300 -14.832300 -17.163300
C -15.598900 -15.748100 -16.977700
C -15.342400 -16.489900 -18.250700
H -15.138000 -17.405700 -18.065100
H -14.806700 -15.777400 -16.442300
C -14.221700 -15.926200 -19.064400
O -14.037400 -16.585000 -20.202300
H -13.841800 -16.241200 -20.657900
O -13.549800 -14.985300 -18.746200
