16
Fragment
H -12.084200 -14.218600 -19.194300
H -11.826600 -14.468900 -21.537800
N -11.396900 -14.826100 -19.120000
H -11.183400 -15.102600 -18.143700
N -11.075000 -15.039400 -21.381700
O -10.864300 -15.231500 -23.622200
C -10.729300 -15.377900 -20.105300
C -10.475100 -15.595600 -22.480700
N -9.751000 -16.236300 -19.853700
C -9.462300 -16.519500 -22.207900
C -9.138000 -16.817800 -20.911800
H -8.976700 -16.931800 -22.930900
H -8.433400 -18.528900 -20.068900
C -8.075300 -17.809400 -20.591900
H -7.685600 -18.165200 -21.378700
H -7.375200 -17.395100 -20.068900
17
Fragment
O -10.779700 -15.564000 -26.932900
O -10.620400 -16.947900 -31.715500
H -10.527600 -17.177200 -29.103700
H -9.960700 -15.856300 -24.903100
C -9.802600 -16.210300 -26.716100
H -9.743500 -15.861300 -29.347700
C -9.646300 -16.789700 -29.135500
C -9.538300 -17.438100 -31.544200
H -9.501700 -18.008500 -33.458800
O -9.339200 -16.392000 -25.494300
C -9.007000 -16.904500 -27.771200
H -8.938200 -17.846900 -27.539300
O -8.866500 -18.016500 -32.517500
C -8.856300 -17.471700 -30.219400
H -8.687900 -18.386800 -29.961700
H -8.127800 -16.549200 -27.798500
H -7.988800 -17.042100 -30.290600
33
Fragment
H -12.084200 -14.218600 -19.194300
H -11.826600 -14.468900 -21.537800
N -11.396900 -14.826100 -19.120000
H -11.183400 -15.102600 -18.143700
N -11.075000 -15.039400 -21.381700
O -10.864300 -15.231500 -23.622200
C -10.729300 -15.377900 -20.105300
C -10.475100 -15.595600 -22.480700
N -9.751000 -16.236300 -19.853700
C -9.462300 -16.519500 -22.207900
C -9.138000 -16.817800 -20.911800
H -8.976700 -16.931800 -22.930900
H -8.433400 -18.528900 -20.068900
C -8.075300 -17.809400 -20.591900
H -7.685600 -18.165200 -21.378700
H -7.375200 -17.395100 -20.068900
O -10.779700 -15.564000 -26.932900
O -10.620400 -16.947900 -31.715500
H -10.527600 -17.177200 -29.103700
H -9.960700 -15.856300 -24.903100
C -9.802600 -16.210300 -26.716100
H -9.743500 -15.861300 -29.347700
C -9.646300 -16.789700 -29.135500
C -9.538300 -17.438100 -31.544200
H -9.501700 -18.008500 -33.458800
O -9.339200 -16.392000 -25.494300
C -9.007000 -16.904500 -27.771200
H -8.938200 -17.846900 -27.539300
O -8.866500 -18.016500 -32.517500
C -8.856300 -17.471700 -30.219400
H -8.687900 -18.386800 -29.961700
H -8.127800 -16.549200 -27.798500
H -7.988800 -17.042100 -30.290600
