19
Fragment
O -17.243000 -15.905600 -21.906200
H -16.777100 -13.934800 -20.221100
H -16.632200 -11.768500 -19.252300
C -16.380100 -14.983400 -21.962600
C -16.170300 -13.988200 -21.003200
H -15.730700 -15.560700 -23.732200
C -15.728300 -11.920000 -18.985800
H -15.676900 -12.739000 -18.509000
N -15.555300 -14.949500 -23.054600
H -15.439600 -11.207500 -18.433800
C -15.176000 -13.068300 -21.201600
H -14.921600 -11.162100 -20.659100
C -14.857300 -11.992900 -20.207000
C -14.592900 -14.004700 -23.210800
N -14.382400 -13.058000 -22.306600
H -13.985700 -14.724400 -24.960500
H -13.966100 -12.131900 -19.915800
N -13.837800 -14.045400 -24.312300
H -13.156500 -13.398200 -24.448500
19
Fragment
O -22.258000 -15.905600 -21.906200
H -21.792100 -13.934800 -20.221100
H -21.647200 -11.768500 -19.252300
C -21.395100 -14.983400 -21.962600
C -21.185300 -13.988200 -21.003200
H -20.745700 -15.560700 -23.732200
C -20.743300 -11.920000 -18.985800
H -20.691900 -12.739000 -18.509000
N -20.570300 -14.949500 -23.054600
H -20.454600 -11.207500 -18.433800
C -20.191000 -13.068300 -21.201600
H -19.936600 -11.162100 -20.659100
C -19.872300 -11.992900 -20.207000
C -19.607900 -14.004700 -23.210800
N -19.397400 -13.058000 -22.306600
H -19.000700 -14.724400 -24.960500
H -18.981100 -12.131900 -19.915800
N -18.852800 -14.045400 -24.312300
H -18.171500 -13.398200 -24.448500
38
Fragment
O -17.243000 -15.905600 -21.906200
H -16.777100 -13.934800 -20.221100
H -16.632200 -11.768500 -19.252300
C -16.380100 -14.983400 -21.962600
C -16.170300 -13.988200 -21.003200
H -15.730700 -15.560700 -23.732200
C -15.728300 -11.920000 -18.985800
H -15.676900 -12.739000 -18.509000
N -15.555300 -14.949500 -23.054600
H -15.439600 -11.207500 -18.433800
C -15.176000 -13.068300 -21.201600
H -14.921600 -11.162100 -20.659100
C -14.857300 -11.992900 -20.207000
C -14.592900 -14.004700 -23.210800
N -14.382400 -13.058000 -22.306600
H -13.985700 -14.724400 -24.960500
H -13.966100 -12.131900 -19.915800
N -13.837800 -14.045400 -24.312300
H -13.156500 -13.398200 -24.448500
O -22.258000 -15.905600 -21.906200
H -21.792100 -13.934800 -20.221100
H -21.647200 -11.768500 -19.252300
C -21.395100 -14.983400 -21.962600
C -21.185300 -13.988200 -21.003200
H -20.745700 -15.560700 -23.732200
C -20.743300 -11.920000 -18.985800
H -20.691900 -12.739000 -18.509000
N -20.570300 -14.949500 -23.054600
H -20.454600 -11.207500 -18.433800
C -20.191000 -13.068300 -21.201600
H -19.936600 -11.162100 -20.659100
C -19.872300 -11.992900 -20.207000
C -19.607900 -14.004700 -23.210800
N -19.397400 -13.058000 -22.306600
H -19.000700 -14.724400 -24.960500
H -18.981100 -12.131900 -19.915800
N -18.852800 -14.045400 -24.312300
H -18.171500 -13.398200 -24.448500
