19
Fragment
O -17.243000 -15.905600 -21.906200
H -16.777100 -13.934800 -20.221100
H -16.632200 -11.768500 -19.252300
C -16.380100 -14.983400 -21.962600
C -16.170300 -13.988200 -21.003200
H -15.730700 -15.560700 -23.732200
C -15.728300 -11.920000 -18.985800
H -15.676900 -12.739000 -18.509000
N -15.555300 -14.949500 -23.054600
H -15.439600 -11.207500 -18.433800
C -15.176000 -13.068300 -21.201600
H -14.921600 -11.162100 -20.659100
C -14.857300 -11.992900 -20.207000
C -14.592900 -14.004700 -23.210800
N -14.382400 -13.058000 -22.306600
H -13.985700 -14.724400 -24.960500
H -13.966100 -12.131900 -19.915800
N -13.837800 -14.045400 -24.312300
H -13.156500 -13.398200 -24.448500
19
Fragment
O -19.393500 -23.633900 -21.906200
H -18.927600 -21.663200 -20.221100
H -18.782800 -19.496800 -19.252300
C -18.530600 -22.711700 -21.962600
C -18.320900 -21.716600 -21.003200
H -17.881200 -23.289100 -23.732200
C -17.878800 -19.648300 -18.985800
H -17.827500 -20.467400 -18.509000
N -17.705800 -22.677800 -23.054600
H -17.590100 -18.935900 -18.433800
C -17.326600 -20.796600 -21.201600
H -17.072200 -18.890500 -20.659100
C -17.007900 -19.721300 -20.207000
C -16.743500 -21.733100 -23.210800
N -16.533000 -20.786400 -22.306600
H -16.136200 -22.452700 -24.960500
H -16.116700 -19.860300 -19.915800
N -15.988400 -21.773800 -24.312300
H -15.307000 -21.126600 -24.448500
38
Fragment
O -17.243000 -15.905600 -21.906200
H -16.777100 -13.934800 -20.221100
H -16.632200 -11.768500 -19.252300
C -16.380100 -14.983400 -21.962600
C -16.170300 -13.988200 -21.003200
H -15.730700 -15.560700 -23.732200
C -15.728300 -11.920000 -18.985800
H -15.676900 -12.739000 -18.509000
N -15.555300 -14.949500 -23.054600
H -15.439600 -11.207500 -18.433800
C -15.176000 -13.068300 -21.201600
H -14.921600 -11.162100 -20.659100
C -14.857300 -11.992900 -20.207000
C -14.592900 -14.004700 -23.210800
N -14.382400 -13.058000 -22.306600
H -13.985700 -14.724400 -24.960500
H -13.966100 -12.131900 -19.915800
N -13.837800 -14.045400 -24.312300
H -13.156500 -13.398200 -24.448500
O -19.393500 -23.633900 -21.906200
H -18.927600 -21.663200 -20.221100
H -18.782800 -19.496800 -19.252300
C -18.530600 -22.711700 -21.962600
C -18.320900 -21.716600 -21.003200
H -17.881200 -23.289100 -23.732200
C -17.878800 -19.648300 -18.985800
H -17.827500 -20.467400 -18.509000
N -17.705800 -22.677800 -23.054600
H -17.590100 -18.935900 -18.433800
C -17.326600 -20.796600 -21.201600
H -17.072200 -18.890500 -20.659100
C -17.007900 -19.721300 -20.207000
C -16.743500 -21.733100 -23.210800
N -16.533000 -20.786400 -22.306600
H -16.136200 -22.452700 -24.960500
H -16.116700 -19.860300 -19.915800
N -15.988400 -21.773800 -24.312300
H -15.307000 -21.126600 -24.448500
