16
Fragment
H -12.084200 -14.218600 -19.194300
H -11.826600 -14.468900 -21.537800
N -11.396900 -14.826100 -19.120000
H -11.183400 -15.102600 -18.143700
N -11.075000 -15.039400 -21.381700
O -10.864300 -15.231500 -23.622200
C -10.729300 -15.377900 -20.105300
C -10.475100 -15.595600 -22.480700
N -9.751000 -16.236300 -19.853700
C -9.462300 -16.519500 -22.207900
C -9.138000 -16.817800 -20.911800
H -8.976700 -16.931800 -22.930900
H -8.433400 -18.528900 -20.068900
C -8.075300 -17.809400 -20.591900
H -7.685600 -18.165200 -21.378700
H -7.375200 -17.395100 -20.068900
16
Fragment
H -17.132200 -14.218600 -19.194300
H -16.874600 -14.468900 -21.537800
N -16.444900 -14.826100 -19.120000
H -16.231400 -15.102600 -18.143700
N -16.123000 -15.039400 -21.381700
O -15.912300 -15.231500 -23.622200
C -15.777300 -15.377900 -20.105300
C -15.523100 -15.595600 -22.480700
N -14.799000 -16.236300 -19.853700
C -14.510300 -16.519500 -22.207900
C -14.186000 -16.817800 -20.911800
H -14.024700 -16.931800 -22.930900
H -13.481400 -18.528900 -20.068900
C -13.123300 -17.809400 -20.591900
H -12.733600 -18.165200 -21.378700
H -12.423200 -17.395100 -20.068900
32
Fragment
H -12.084200 -14.218600 -19.194300
H -11.826600 -14.468900 -21.537800
N -11.396900 -14.826100 -19.120000
H -11.183400 -15.102600 -18.143700
N -11.075000 -15.039400 -21.381700
O -10.864300 -15.231500 -23.622200
C -10.729300 -15.377900 -20.105300
C -10.475100 -15.595600 -22.480700
N -9.751000 -16.236300 -19.853700
C -9.462300 -16.519500 -22.207900
C -9.138000 -16.817800 -20.911800
H -8.976700 -16.931800 -22.930900
H -8.433400 -18.528900 -20.068900
C -8.075300 -17.809400 -20.591900
H -7.685600 -18.165200 -21.378700
H -7.375200 -17.395100 -20.068900
H -17.132200 -14.218600 -19.194300
H -16.874600 -14.468900 -21.537800
N -16.444900 -14.826100 -19.120000
H -16.231400 -15.102600 -18.143700
N -16.123000 -15.039400 -21.381700
O -15.912300 -15.231500 -23.622200
C -15.777300 -15.377900 -20.105300
C -15.523100 -15.595600 -22.480700
N -14.799000 -16.236300 -19.853700
C -14.510300 -16.519500 -22.207900
C -14.186000 -16.817800 -20.911800
H -14.024700 -16.931800 -22.930900
H -13.481400 -18.528900 -20.068900
C -13.123300 -17.809400 -20.591900
H -12.733600 -18.165200 -21.378700
H -12.423200 -17.395100 -20.068900
