16
Fragment
H -12.084200 -14.218600 -19.194300
H -11.826600 -14.468900 -21.537800
N -11.396900 -14.826100 -19.120000
H -11.183400 -15.102600 -18.143700
N -11.075000 -15.039400 -21.381700
O -10.864300 -15.231500 -23.622200
C -10.729300 -15.377900 -20.105300
C -10.475100 -15.595600 -22.480700
N -9.751000 -16.236300 -19.853700
C -9.462300 -16.519500 -22.207900
C -9.138000 -16.817800 -20.911800
H -8.976700 -16.931800 -22.930900
H -8.433400 -18.528900 -20.068900
C -8.075300 -17.809400 -20.591900
H -7.685600 -18.165200 -21.378700
H -7.375200 -17.395100 -20.068900
16
Fragment
H -7.682700 -19.040700 -25.407900
H -7.372300 -18.270600 -24.098200
C -6.982600 -18.626400 -24.884900
H -6.624500 -17.906900 -25.407900
H -6.081200 -19.504000 -22.545900
C -5.919900 -19.618000 -24.565100
C -5.595600 -19.916300 -23.269000
N -5.306900 -20.199500 -25.623200
C -4.582800 -20.840200 -22.996100
C -4.328600 -21.057900 -25.371500
O -4.193600 -21.204300 -21.854700
N -3.982900 -21.396400 -24.095100
H -3.874500 -21.333200 -27.333100
N -3.661000 -21.609700 -26.356900
H -3.231300 -21.966900 -23.939000
H -2.973700 -22.217200 -26.282600
32
Fragment
H -12.084200 -14.218600 -19.194300
H -11.826600 -14.468900 -21.537800
N -11.396900 -14.826100 -19.120000
H -11.183400 -15.102600 -18.143700
N -11.075000 -15.039400 -21.381700
O -10.864300 -15.231500 -23.622200
C -10.729300 -15.377900 -20.105300
C -10.475100 -15.595600 -22.480700
N -9.751000 -16.236300 -19.853700
C -9.462300 -16.519500 -22.207900
C -9.138000 -16.817800 -20.911800
H -8.976700 -16.931800 -22.930900
H -8.433400 -18.528900 -20.068900
C -8.075300 -17.809400 -20.591900
H -7.685600 -18.165200 -21.378700
H -7.375200 -17.395100 -20.068900
H -7.682700 -19.040700 -25.407900
H -7.372300 -18.270600 -24.098200
C -6.982600 -18.626400 -24.884900
H -6.624500 -17.906900 -25.407900
H -6.081200 -19.504000 -22.545900
C -5.919900 -19.618000 -24.565100
C -5.595600 -19.916300 -23.269000
N -5.306900 -20.199500 -25.623200
C -4.582800 -20.840200 -22.996100
C -4.328600 -21.057900 -25.371500
O -4.193600 -21.204300 -21.854700
N -3.982900 -21.396400 -24.095100
H -3.874500 -21.333200 -27.333100
N -3.661000 -21.609700 -26.356900
H -3.231300 -21.966900 -23.939000
H -2.973700 -22.217200 -26.282600
