19
Fragment
O -17.243000 -15.905600 -21.906200
H -16.777100 -13.934800 -20.221100
H -16.632200 -11.768500 -19.252300
C -16.380100 -14.983400 -21.962600
C -16.170300 -13.988200 -21.003200
H -15.730700 -15.560700 -23.732200
C -15.728300 -11.920000 -18.985800
H -15.676900 -12.739000 -18.509000
N -15.555300 -14.949500 -23.054600
H -15.439600 -11.207500 -18.433800
C -15.176000 -13.068300 -21.201600
H -14.921600 -11.162100 -20.659100
C -14.857300 -11.992900 -20.207000
C -14.592900 -14.004700 -23.210800
N -14.382400 -13.058000 -22.306600
H -13.985700 -14.724400 -24.960500
H -13.966100 -12.131900 -19.915800
N -13.837800 -14.045400 -24.312300
H -13.156500 -13.398200 -24.448500
19
Fragment
H -20.216300 -19.281300 -22.522700
N -19.534900 -18.634200 -22.658900
H -19.406600 -20.547600 -27.055400
H -19.387000 -17.955200 -22.010700
N -18.990300 -19.621500 -24.664600
C -18.779800 -18.674800 -23.760400
C -18.515400 -20.686600 -26.764200
H -18.451100 -21.517400 -26.312100
C -18.196700 -19.611300 -25.769600
H -17.933100 -21.472000 -28.537400
N -17.817400 -17.730100 -23.916600
H -17.695800 -19.940500 -28.462200
C -17.644400 -20.759600 -27.985400
H -17.642000 -17.118800 -23.239000
C -17.202400 -18.691300 -25.968000
C -16.992600 -17.696200 -25.008600
H -16.740500 -20.911100 -27.718900
H -16.595600 -18.744700 -26.750100
O -16.129700 -16.774000 -25.065000
38
Fragment
O -17.243000 -15.905600 -21.906200
H -16.777100 -13.934800 -20.221100
H -16.632200 -11.768500 -19.252300
C -16.380100 -14.983400 -21.962600
C -16.170300 -13.988200 -21.003200
H -15.730700 -15.560700 -23.732200
C -15.728300 -11.920000 -18.985800
H -15.676900 -12.739000 -18.509000
N -15.555300 -14.949500 -23.054600
H -15.439600 -11.207500 -18.433800
C -15.176000 -13.068300 -21.201600
H -14.921600 -11.162100 -20.659100
C -14.857300 -11.992900 -20.207000
C -14.592900 -14.004700 -23.210800
N -14.382400 -13.058000 -22.306600
H -13.985700 -14.724400 -24.960500
H -13.966100 -12.131900 -19.915800
N -13.837800 -14.045400 -24.312300
H -13.156500 -13.398200 -24.448500
H -20.216300 -19.281300 -22.522700
N -19.534900 -18.634200 -22.658900
H -19.406600 -20.547600 -27.055400
H -19.387000 -17.955200 -22.010700
N -18.990300 -19.621500 -24.664600
C -18.779800 -18.674800 -23.760400
C -18.515400 -20.686600 -26.764200
H -18.451100 -21.517400 -26.312100
C -18.196700 -19.611300 -25.769600
H -17.933100 -21.472000 -28.537400
N -17.817400 -17.730100 -23.916600
H -17.695800 -19.940500 -28.462200
C -17.644400 -20.759600 -27.985400
H -17.642000 -17.118800 -23.239000
C -17.202400 -18.691300 -25.968000
C -16.992600 -17.696200 -25.008600
H -16.740500 -20.911100 -27.718900
H -16.595600 -18.744700 -26.750100
O -16.129700 -16.774000 -25.065000
