23
Fragment
H -12.174700 -11.051000 -18.700800
N -11.438000 -14.968500 -16.384500
O -11.420700 -14.168100 -13.408500
H -11.388500 -12.924300 -19.838300
H -11.387600 -15.320000 -18.348400
C -11.320000 -14.675600 -17.653900
C -11.265400 -13.755500 -15.729700
C -11.249700 -13.376900 -14.347800
C -11.192100 -11.125200 -18.797400
N -11.088000 -13.340000 -17.881100
C -11.056700 -12.784500 -16.656600
N -11.001800 -12.040400 -14.106900
H -10.922500 -10.565300 -19.568200
H -10.866800 -9.665900 -17.345700
N -10.833700 -11.467400 -16.397500
C -10.833600 -12.579000 -19.094400
C -10.792400 -11.151200 -15.064900
N -10.539600 -9.879900 -14.726300
C -10.529000 -10.577100 -17.533700
H -10.382000 -9.751100 -13.908200
H -10.286500 -9.358300 -15.327400
H -9.880900 -12.652300 -19.352000
H -9.549400 -10.524200 -17.665000
23
Fragment
H -13.808300 -18.529000 -18.700800
N -13.071600 -22.446500 -16.384500
O -13.054300 -21.646000 -13.408500
H -13.022100 -20.402300 -19.838300
H -13.021200 -22.798000 -18.348400
C -12.953600 -22.153600 -17.653900
C -12.899000 -21.233400 -15.729700
C -12.883300 -20.854900 -14.347800
C -12.825700 -18.603100 -18.797400
N -12.721600 -20.817900 -17.881100
C -12.690300 -20.262500 -16.656600
N -12.635400 -19.518300 -14.106900
H -12.556100 -18.043300 -19.568200
H -12.500400 -17.143800 -17.345700
N -12.467300 -18.945300 -16.397500
C -12.467200 -20.056900 -19.094400
C -12.426000 -18.629100 -15.064900
N -12.173200 -17.357800 -14.726300
C -12.162600 -18.055000 -17.533700
H -12.015600 -17.229100 -13.908200
H -11.920100 -16.836200 -15.327400
H -11.514500 -20.130200 -19.352000
H -11.183000 -18.002100 -17.665000
46
Fragment
H -12.174700 -11.051000 -18.700800
N -11.438000 -14.968500 -16.384500
O -11.420700 -14.168100 -13.408500
H -11.388500 -12.924300 -19.838300
H -11.387600 -15.320000 -18.348400
C -11.320000 -14.675600 -17.653900
C -11.265400 -13.755500 -15.729700
C -11.249700 -13.376900 -14.347800
C -11.192100 -11.125200 -18.797400
N -11.088000 -13.340000 -17.881100
C -11.056700 -12.784500 -16.656600
N -11.001800 -12.040400 -14.106900
H -10.922500 -10.565300 -19.568200
H -10.866800 -9.665900 -17.345700
N -10.833700 -11.467400 -16.397500
C -10.833600 -12.579000 -19.094400
C -10.792400 -11.151200 -15.064900
N -10.539600 -9.879900 -14.726300
C -10.529000 -10.577100 -17.533700
H -10.382000 -9.751100 -13.908200
H -10.286500 -9.358300 -15.327400
H -9.880900 -12.652300 -19.352000
H -9.549400 -10.524200 -17.665000
H -13.808300 -18.529000 -18.700800
N -13.071600 -22.446500 -16.384500
O -13.054300 -21.646000 -13.408500
H -13.022100 -20.402300 -19.838300
H -13.021200 -22.798000 -18.348400
C -12.953600 -22.153600 -17.653900
C -12.899000 -21.233400 -15.729700
C -12.883300 -20.854900 -14.347800
C -12.825700 -18.603100 -18.797400
N -12.721600 -20.817900 -17.881100
C -12.690300 -20.262500 -16.656600
N -12.635400 -19.518300 -14.106900
H -12.556100 -18.043300 -19.568200
H -12.500400 -17.143800 -17.345700
N -12.467300 -18.945300 -16.397500
C -12.467200 -20.056900 -19.094400
C -12.426000 -18.629100 -15.064900
N -12.173200 -17.357800 -14.726300
C -12.162600 -18.055000 -17.533700
H -12.015600 -17.229100 -13.908200
H -11.920100 -16.836200 -15.327400
H -11.514500 -20.130200 -19.352000
H -11.183000 -18.002100 -17.665000
