23
Fragment
H -12.174700 -11.051000 -18.700800
N -11.438000 -14.968500 -16.384500
O -11.420700 -14.168100 -13.408500
H -11.388500 -12.924300 -19.838300
H -11.387600 -15.320000 -18.348400
C -11.320000 -14.675600 -17.653900
C -11.265400 -13.755500 -15.729700
C -11.249700 -13.376900 -14.347800
C -11.192100 -11.125200 -18.797400
N -11.088000 -13.340000 -17.881100
C -11.056700 -12.784500 -16.656600
N -11.001800 -12.040400 -14.106900
H -10.922500 -10.565300 -19.568200
H -10.866800 -9.665900 -17.345700
N -10.833700 -11.467400 -16.397500
C -10.833600 -12.579000 -19.094400
C -10.792400 -11.151200 -15.064900
N -10.539600 -9.879900 -14.726300
C -10.529000 -10.577100 -17.533700
H -10.382000 -9.751100 -13.908200
H -10.286500 -9.358300 -15.327400
H -9.880900 -12.652300 -19.352000
H -9.549400 -10.524200 -17.665000
23
Fragment
H -16.175600 -15.809400 -13.872800
H -15.844100 -13.681400 -12.185800
H -15.438500 -16.975300 -16.210400
H -15.343000 -16.582500 -17.629600
C -15.195900 -15.756600 -14.004200
N -15.185400 -16.453800 -16.811500
C -14.932600 -15.182400 -16.472900
C -14.891400 -13.754700 -12.443500
N -14.891300 -14.866200 -15.140400
H -14.858200 -16.667700 -14.192100
H -14.802500 -15.768300 -11.969600
N -14.723200 -14.293200 -17.430900
C -14.668200 -13.549100 -14.881200
N -14.637000 -12.993600 -13.656700
C -14.532900 -15.208500 -12.740400
C -14.475300 -12.956700 -17.190000
C -14.459600 -12.578100 -15.808100
C -14.405000 -11.658000 -13.883900
H -14.337400 -11.013600 -13.189400
H -14.336500 -13.409300 -11.699500
O -14.304300 -12.165500 -18.129300
N -14.286900 -11.365100 -15.153300
H -13.550300 -15.282600 -12.837000
46
Fragment
H -12.174700 -11.051000 -18.700800
N -11.438000 -14.968500 -16.384500
O -11.420700 -14.168100 -13.408500
H -11.388500 -12.924300 -19.838300
H -11.387600 -15.320000 -18.348400
C -11.320000 -14.675600 -17.653900
C -11.265400 -13.755500 -15.729700
C -11.249700 -13.376900 -14.347800
C -11.192100 -11.125200 -18.797400
N -11.088000 -13.340000 -17.881100
C -11.056700 -12.784500 -16.656600
N -11.001800 -12.040400 -14.106900
H -10.922500 -10.565300 -19.568200
H -10.866800 -9.665900 -17.345700
N -10.833700 -11.467400 -16.397500
C -10.833600 -12.579000 -19.094400
C -10.792400 -11.151200 -15.064900
N -10.539600 -9.879900 -14.726300
C -10.529000 -10.577100 -17.533700
H -10.382000 -9.751100 -13.908200
H -10.286500 -9.358300 -15.327400
H -9.880900 -12.652300 -19.352000
H -9.549400 -10.524200 -17.665000
H -16.175600 -15.809400 -13.872800
H -15.844100 -13.681400 -12.185800
H -15.438500 -16.975300 -16.210400
H -15.343000 -16.582500 -17.629600
C -15.195900 -15.756600 -14.004200
N -15.185400 -16.453800 -16.811500
C -14.932600 -15.182400 -16.472900
C -14.891400 -13.754700 -12.443500
N -14.891300 -14.866200 -15.140400
H -14.858200 -16.667700 -14.192100
H -14.802500 -15.768300 -11.969600
N -14.723200 -14.293200 -17.430900
C -14.668200 -13.549100 -14.881200
N -14.637000 -12.993600 -13.656700
C -14.532900 -15.208500 -12.740400
C -14.475300 -12.956700 -17.190000
C -14.459600 -12.578100 -15.808100
C -14.405000 -11.658000 -13.883900
H -14.337400 -11.013600 -13.189400
H -14.336500 -13.409300 -11.699500
O -14.304300 -12.165500 -18.129300
N -14.286900 -11.365100 -15.153300
H -13.550300 -15.282600 -12.837000
