23
Fragment
H -12.174700 -11.051000 -18.700800
N -11.438000 -14.968500 -16.384500
O -11.420700 -14.168100 -13.408500
H -11.388500 -12.924300 -19.838300
H -11.387600 -15.320000 -18.348400
C -11.320000 -14.675600 -17.653900
C -11.265400 -13.755500 -15.729700
C -11.249700 -13.376900 -14.347800
C -11.192100 -11.125200 -18.797400
N -11.088000 -13.340000 -17.881100
C -11.056700 -12.784500 -16.656600
N -11.001800 -12.040400 -14.106900
H -10.922500 -10.565300 -19.568200
H -10.866800 -9.665900 -17.345700
N -10.833700 -11.467400 -16.397500
C -10.833600 -12.579000 -19.094400
C -10.792400 -11.151200 -15.064900
N -10.539600 -9.879900 -14.726300
C -10.529000 -10.577100 -17.533700
H -10.382000 -9.751100 -13.908200
H -10.286500 -9.358300 -15.327400
H -9.880900 -12.652300 -19.352000
H -9.549400 -10.524200 -17.665000
23
Fragment
H -7.762200 -8.331500 -13.872800
H -7.430700 -6.203400 -12.185800
H -7.025100 -9.497400 -16.210400
H -6.929600 -9.104600 -17.629600
C -6.782500 -8.278600 -14.004200
N -6.772000 -8.975800 -16.811500
C -6.519200 -7.704500 -16.472900
C -6.478000 -6.276700 -12.443500
N -6.477900 -7.388300 -15.140400
H -6.444800 -9.189800 -14.192100
H -6.389100 -8.290300 -11.969600
N -6.309800 -6.815300 -17.430900
C -6.254800 -6.071200 -14.881200
N -6.223600 -5.515700 -13.656700
C -6.119500 -7.730500 -12.740400
C -6.061900 -5.478700 -17.190000
C -6.046200 -5.100200 -15.808100
C -5.991600 -4.180000 -13.883900
H -5.924000 -3.535600 -13.189400
H -5.923100 -5.931400 -11.699500
O -5.890900 -4.687600 -18.129300
N -5.873500 -3.887100 -15.153300
H -5.136900 -7.804700 -12.837000
46
Fragment
H -12.174700 -11.051000 -18.700800
N -11.438000 -14.968500 -16.384500
O -11.420700 -14.168100 -13.408500
H -11.388500 -12.924300 -19.838300
H -11.387600 -15.320000 -18.348400
C -11.320000 -14.675600 -17.653900
C -11.265400 -13.755500 -15.729700
C -11.249700 -13.376900 -14.347800
C -11.192100 -11.125200 -18.797400
N -11.088000 -13.340000 -17.881100
C -11.056700 -12.784500 -16.656600
N -11.001800 -12.040400 -14.106900
H -10.922500 -10.565300 -19.568200
H -10.866800 -9.665900 -17.345700
N -10.833700 -11.467400 -16.397500
C -10.833600 -12.579000 -19.094400
C -10.792400 -11.151200 -15.064900
N -10.539600 -9.879900 -14.726300
C -10.529000 -10.577100 -17.533700
H -10.382000 -9.751100 -13.908200
H -10.286500 -9.358300 -15.327400
H -9.880900 -12.652300 -19.352000
H -9.549400 -10.524200 -17.665000
H -7.762200 -8.331500 -13.872800
H -7.430700 -6.203400 -12.185800
H -7.025100 -9.497400 -16.210400
H -6.929600 -9.104600 -17.629600
C -6.782500 -8.278600 -14.004200
N -6.772000 -8.975800 -16.811500
C -6.519200 -7.704500 -16.472900
C -6.478000 -6.276700 -12.443500
N -6.477900 -7.388300 -15.140400
H -6.444800 -9.189800 -14.192100
H -6.389100 -8.290300 -11.969600
N -6.309800 -6.815300 -17.430900
C -6.254800 -6.071200 -14.881200
N -6.223600 -5.515700 -13.656700
C -6.119500 -7.730500 -12.740400
C -6.061900 -5.478700 -17.190000
C -6.046200 -5.100200 -15.808100
C -5.991600 -4.180000 -13.883900
H -5.924000 -3.535600 -13.189400
H -5.923100 -5.931400 -11.699500
O -5.890900 -4.687600 -18.129300
N -5.873500 -3.887100 -15.153300
H -5.136900 -7.804700 -12.837000
