8
Fragment
H -14.145400 -16.113200 -25.231500
H -13.389700 -14.827100 -24.919700
N -13.385900 -15.674900 -25.154600
C -12.216300 -16.303600 -25.397700
O -12.178600 -17.509100 -25.734500
H -11.121200 -14.741700 -25.010500
N -11.080400 -15.588400 -25.248300
H -10.299400 -15.969100 -25.387400
8
Fragment
H -10.473100 -18.635900 -26.011100
N -9.692100 -19.016600 -26.150200
H -9.651200 -19.863300 -26.388000
O -8.593800 -17.095900 -25.664000
C -8.556100 -18.301400 -26.000800
N -7.386500 -18.930100 -26.243900
H -7.382700 -19.777900 -26.478800
H -6.627000 -18.491800 -26.167000
16
Fragment
H -14.145400 -16.113200 -25.231500
H -13.389700 -14.827100 -24.919700
N -13.385900 -15.674900 -25.154600
C -12.216300 -16.303600 -25.397700
O -12.178600 -17.509100 -25.734500
H -11.121200 -14.741700 -25.010500
N -11.080400 -15.588400 -25.248300
H -10.299400 -15.969100 -25.387400
H -10.473100 -18.635900 -26.011100
N -9.692100 -19.016600 -26.150200
H -9.651200 -19.863300 -26.388000
O -8.593800 -17.095900 -25.664000
C -8.556100 -18.301400 -26.000800
N -7.386500 -18.930100 -26.243900
H -7.382700 -19.777900 -26.478800
H -6.627000 -18.491800 -26.167000
