24
Fragment
Br -8.631300 -21.013200 -20.299900
H -7.808000 -16.365000 -18.402800
H -7.695100 -17.717500 -16.322500
H -7.558700 -15.323500 -16.249000
Br -7.309100 -19.262700 -18.910000
C -6.821800 -16.421600 -18.470600
C -6.710100 -17.760600 -16.415200
H -6.575900 -16.384300 -19.428900
C -6.575100 -15.385500 -16.341300
H -6.400000 -18.608900 -16.011200
N -6.341500 -17.733200 -17.869600
N -6.218800 -15.303200 -17.767500
H -6.175800 -14.616700 -15.862400
N -6.108400 -16.640900 -15.715600
C -4.836600 -17.797600 -18.004600
C -4.744300 -15.410100 -17.882500
C -4.635900 -16.714900 -15.887000
H -4.584200 -17.768800 -18.961900
H -4.501100 -18.645800 -17.620900
H -4.486900 -15.364900 -18.837600
H -4.323700 -14.644300 -17.417000
H -4.302900 -17.555800 -15.484700
N -4.241700 -16.666900 -17.302600
H -4.213800 -15.959400 -15.406000
24
Fragment
Br -9.589600 -13.249800 -14.430600
H -8.766300 -17.898000 -12.533500
H -8.653400 -16.545500 -10.453200
H -8.517000 -18.939500 -10.379700
Br -8.267400 -15.000300 -13.040700
C -7.780000 -17.841400 -12.601400
C -7.668400 -16.502400 -10.545900
H -7.534200 -17.878700 -13.559600
C -7.533400 -18.877500 -10.472000
H -7.358300 -15.654100 -10.141900
N -7.299800 -16.529800 -12.000300
N -7.177100 -18.959800 -11.898200
H -7.134100 -19.646300 -9.993200
N -7.066600 -17.622100 -9.846300
C -5.794900 -16.465400 -12.135300
C -5.702600 -18.852900 -12.013200
C -5.594200 -17.548100 -10.017700
H -5.542500 -16.494200 -13.092600
H -5.459400 -15.617200 -11.751600
H -5.445200 -18.898100 -12.968300
H -5.282000 -19.618700 -11.547700
H -5.261200 -16.707200 -9.615400
N -5.200000 -17.596100 -11.433400
H -5.172100 -18.303600 -9.536800
48
Fragment
Br -8.631300 -21.013200 -20.299900
H -7.808000 -16.365000 -18.402800
H -7.695100 -17.717500 -16.322500
H -7.558700 -15.323500 -16.249000
Br -7.309100 -19.262700 -18.910000
C -6.821800 -16.421600 -18.470600
C -6.710100 -17.760600 -16.415200
H -6.575900 -16.384300 -19.428900
C -6.575100 -15.385500 -16.341300
H -6.400000 -18.608900 -16.011200
N -6.341500 -17.733200 -17.869600
N -6.218800 -15.303200 -17.767500
H -6.175800 -14.616700 -15.862400
N -6.108400 -16.640900 -15.715600
C -4.836600 -17.797600 -18.004600
C -4.744300 -15.410100 -17.882500
C -4.635900 -16.714900 -15.887000
H -4.584200 -17.768800 -18.961900
H -4.501100 -18.645800 -17.620900
H -4.486900 -15.364900 -18.837600
H -4.323700 -14.644300 -17.417000
H -4.302900 -17.555800 -15.484700
N -4.241700 -16.666900 -17.302600
H -4.213800 -15.959400 -15.406000
Br -9.589600 -13.249800 -14.430600
H -8.766300 -17.898000 -12.533500
H -8.653400 -16.545500 -10.453200
H -8.517000 -18.939500 -10.379700
Br -8.267400 -15.000300 -13.040700
C -7.780000 -17.841400 -12.601400
C -7.668400 -16.502400 -10.545900
H -7.534200 -17.878700 -13.559600
C -7.533400 -18.877500 -10.472000
H -7.358300 -15.654100 -10.141900
N -7.299800 -16.529800 -12.000300
N -7.177100 -18.959800 -11.898200
H -7.134100 -19.646300 -9.993200
N -7.066600 -17.622100 -9.846300
C -5.794900 -16.465400 -12.135300
C -5.702600 -18.852900 -12.013200
C -5.594200 -17.548100 -10.017700
H -5.542500 -16.494200 -13.092600
H -5.459400 -15.617200 -11.751600
H -5.445200 -18.898100 -12.968300
H -5.282000 -19.618700 -11.547700
H -5.261200 -16.707200 -9.615400
N -5.200000 -17.596100 -11.433400
H -5.172100 -18.303600 -9.536800
