24
Fragment
Br -8.631300 -21.013200 -20.299900
H -7.808000 -16.365000 -18.402800
H -7.695100 -17.717500 -16.322500
H -7.558700 -15.323500 -16.249000
Br -7.309100 -19.262700 -18.910000
C -6.821800 -16.421600 -18.470600
C -6.710100 -17.760600 -16.415200
H -6.575900 -16.384300 -19.428900
C -6.575100 -15.385500 -16.341300
H -6.400000 -18.608900 -16.011200
N -6.341500 -17.733200 -17.869600
N -6.218800 -15.303200 -17.767500
H -6.175800 -14.616700 -15.862400
N -6.108400 -16.640900 -15.715600
C -4.836600 -17.797600 -18.004600
C -4.744300 -15.410100 -17.882500
C -4.635900 -16.714900 -15.887000
H -4.584200 -17.768800 -18.961900
H -4.501100 -18.645800 -17.620900
H -4.486900 -15.364900 -18.837600
H -4.323700 -14.644300 -17.417000
H -4.302900 -17.555800 -15.484700
N -4.241700 -16.666900 -17.302600
H -4.213800 -15.959400 -15.406000
24
Fragment
Br -14.539000 -21.013200 -20.299900
H -13.715700 -16.365000 -18.402800
H -13.602800 -17.717500 -16.322500
H -13.466400 -15.323500 -16.249000
Br -13.216800 -19.262700 -18.910000
C -12.729500 -16.421600 -18.470600
C -12.617800 -17.760600 -16.415200
H -12.483600 -16.384300 -19.428900
C -12.482800 -15.385500 -16.341300
H -12.307700 -18.608900 -16.011200
N -12.249200 -17.733200 -17.869600
N -12.126500 -15.303200 -17.767500
H -12.083500 -14.616700 -15.862400
N -12.016100 -16.640900 -15.715600
C -10.744300 -17.797600 -18.004600
C -10.652000 -15.410100 -17.882500
C -10.543600 -16.714900 -15.887000
H -10.491900 -17.768800 -18.961900
H -10.408800 -18.645800 -17.620900
H -10.394600 -15.364900 -18.837600
H -10.231400 -14.644300 -17.417000
H -10.210600 -17.555800 -15.484700
N -10.149400 -16.666900 -17.302600
H -10.121500 -15.959400 -15.406000
48
Fragment
Br -8.631300 -21.013200 -20.299900
H -7.808000 -16.365000 -18.402800
H -7.695100 -17.717500 -16.322500
H -7.558700 -15.323500 -16.249000
Br -7.309100 -19.262700 -18.910000
C -6.821800 -16.421600 -18.470600
C -6.710100 -17.760600 -16.415200
H -6.575900 -16.384300 -19.428900
C -6.575100 -15.385500 -16.341300
H -6.400000 -18.608900 -16.011200
N -6.341500 -17.733200 -17.869600
N -6.218800 -15.303200 -17.767500
H -6.175800 -14.616700 -15.862400
N -6.108400 -16.640900 -15.715600
C -4.836600 -17.797600 -18.004600
C -4.744300 -15.410100 -17.882500
C -4.635900 -16.714900 -15.887000
H -4.584200 -17.768800 -18.961900
H -4.501100 -18.645800 -17.620900
H -4.486900 -15.364900 -18.837600
H -4.323700 -14.644300 -17.417000
H -4.302900 -17.555800 -15.484700
N -4.241700 -16.666900 -17.302600
H -4.213800 -15.959400 -15.406000
Br -14.539000 -21.013200 -20.299900
H -13.715700 -16.365000 -18.402800
H -13.602800 -17.717500 -16.322500
H -13.466400 -15.323500 -16.249000
Br -13.216800 -19.262700 -18.910000
C -12.729500 -16.421600 -18.470600
C -12.617800 -17.760600 -16.415200
H -12.483600 -16.384300 -19.428900
C -12.482800 -15.385500 -16.341300
H -12.307700 -18.608900 -16.011200
N -12.249200 -17.733200 -17.869600
N -12.126500 -15.303200 -17.767500
H -12.083500 -14.616700 -15.862400
N -12.016100 -16.640900 -15.715600
C -10.744300 -17.797600 -18.004600
C -10.652000 -15.410100 -17.882500
C -10.543600 -16.714900 -15.887000
H -10.491900 -17.768800 -18.961900
H -10.408800 -18.645800 -17.620900
H -10.394600 -15.364900 -18.837600
H -10.231400 -14.644300 -17.417000
H -10.210600 -17.555800 -15.484700
N -10.149400 -16.666900 -17.302600
H -10.121500 -15.959400 -15.406000
