24
Fragment
Br -8.631300 -21.013200 -20.299900
H -7.808000 -16.365000 -18.402800
H -7.695100 -17.717500 -16.322500
H -7.558700 -15.323500 -16.249000
Br -7.309100 -19.262700 -18.910000
C -6.821800 -16.421600 -18.470600
C -6.710100 -17.760600 -16.415200
H -6.575900 -16.384300 -19.428900
C -6.575100 -15.385500 -16.341300
H -6.400000 -18.608900 -16.011200
N -6.341500 -17.733200 -17.869600
N -6.218800 -15.303200 -17.767500
H -6.175800 -14.616700 -15.862400
N -6.108400 -16.640900 -15.715600
C -4.836600 -17.797600 -18.004600
C -4.744300 -15.410100 -17.882500
C -4.635900 -16.714900 -15.887000
H -4.584200 -17.768800 -18.961900
H -4.501100 -18.645800 -17.620900
H -4.486900 -15.364900 -18.837600
H -4.323700 -14.644300 -17.417000
H -4.302900 -17.555800 -15.484700
N -4.241700 -16.666900 -17.302600
H -4.213800 -15.959400 -15.406000
24
Fragment
H -13.667200 -25.156200 -19.809700
N -13.639300 -24.448700 -17.913100
H -13.578100 -23.559800 -19.731000
H -13.557400 -26.471300 -17.798700
H -13.394100 -25.750700 -16.378100
H -13.380000 -22.469800 -17.594800
H -13.296800 -23.346800 -16.253800
C -13.245100 -24.400700 -19.328700
C -13.136700 -25.705500 -17.333200
C -13.044400 -23.318000 -17.211100
N -11.772700 -24.474700 -19.500100
H -11.705200 -26.498900 -19.353300
N -11.662300 -25.812400 -17.448200
N -11.539500 -23.382400 -17.346100
H -11.481100 -22.506700 -19.204500
C -11.305900 -25.730100 -18.874400
H -11.305200 -24.731300 -15.786800
C -11.170900 -23.355000 -18.800500
C -11.059300 -24.694000 -16.745100
Br -10.571900 -21.852900 -16.305700
H -10.322400 -25.792100 -18.966700
H -10.186000 -23.398100 -18.893200
H -10.073100 -24.750600 -16.812900
Br -9.249800 -20.102400 -14.915800
48
Fragment
Br -8.631300 -21.013200 -20.299900
H -7.808000 -16.365000 -18.402800
H -7.695100 -17.717500 -16.322500
H -7.558700 -15.323500 -16.249000
Br -7.309100 -19.262700 -18.910000
C -6.821800 -16.421600 -18.470600
C -6.710100 -17.760600 -16.415200
H -6.575900 -16.384300 -19.428900
C -6.575100 -15.385500 -16.341300
H -6.400000 -18.608900 -16.011200
N -6.341500 -17.733200 -17.869600
N -6.218800 -15.303200 -17.767500
H -6.175800 -14.616700 -15.862400
N -6.108400 -16.640900 -15.715600
C -4.836600 -17.797600 -18.004600
C -4.744300 -15.410100 -17.882500
C -4.635900 -16.714900 -15.887000
H -4.584200 -17.768800 -18.961900
H -4.501100 -18.645800 -17.620900
H -4.486900 -15.364900 -18.837600
H -4.323700 -14.644300 -17.417000
H -4.302900 -17.555800 -15.484700
N -4.241700 -16.666900 -17.302600
H -4.213800 -15.959400 -15.406000
H -13.667200 -25.156200 -19.809700
N -13.639300 -24.448700 -17.913100
H -13.578100 -23.559800 -19.731000
H -13.557400 -26.471300 -17.798700
H -13.394100 -25.750700 -16.378100
H -13.380000 -22.469800 -17.594800
H -13.296800 -23.346800 -16.253800
C -13.245100 -24.400700 -19.328700
C -13.136700 -25.705500 -17.333200
C -13.044400 -23.318000 -17.211100
N -11.772700 -24.474700 -19.500100
H -11.705200 -26.498900 -19.353300
N -11.662300 -25.812400 -17.448200
N -11.539500 -23.382400 -17.346100
H -11.481100 -22.506700 -19.204500
C -11.305900 -25.730100 -18.874400
H -11.305200 -24.731300 -15.786800
C -11.170900 -23.355000 -18.800500
C -11.059300 -24.694000 -16.745100
Br -10.571900 -21.852900 -16.305700
H -10.322400 -25.792100 -18.966700
H -10.186000 -23.398100 -18.893200
H -10.073100 -24.750600 -16.812900
Br -9.249800 -20.102400 -14.915800
