24
Fragment
Br -8.631300 -21.013200 -20.299900
H -7.808000 -16.365000 -18.402800
H -7.695100 -17.717500 -16.322500
H -7.558700 -15.323500 -16.249000
Br -7.309100 -19.262700 -18.910000
C -6.821800 -16.421600 -18.470600
C -6.710100 -17.760600 -16.415200
H -6.575900 -16.384300 -19.428900
C -6.575100 -15.385500 -16.341300
H -6.400000 -18.608900 -16.011200
N -6.341500 -17.733200 -17.869600
N -6.218800 -15.303200 -17.767500
H -6.175800 -14.616700 -15.862400
N -6.108400 -16.640900 -15.715600
C -4.836600 -17.797600 -18.004600
C -4.744300 -15.410100 -17.882500
C -4.635900 -16.714900 -15.887000
H -4.584200 -17.768800 -18.961900
H -4.501100 -18.645800 -17.620900
H -4.486900 -15.364900 -18.837600
H -4.323700 -14.644300 -17.417000
H -4.302900 -17.555800 -15.484700
N -4.241700 -16.666900 -17.302600
H -4.213800 -15.959400 -15.406000
24
Fragment
H -12.708900 -22.812000 -25.678900
N -12.681000 -23.519500 -23.782300
H -12.619800 -24.408400 -25.600300
H -12.599100 -21.496900 -23.668000
H -12.435800 -22.217500 -22.247400
H -12.421700 -25.498400 -23.464100
H -12.338500 -24.621400 -22.123100
C -12.286800 -23.567500 -25.198000
C -12.178400 -22.262700 -23.202500
C -12.086100 -24.650200 -23.080400
N -10.814400 -23.493500 -25.369400
H -10.746900 -21.469300 -25.222500
N -10.704000 -22.155800 -23.317500
N -10.581200 -24.585800 -23.215400
H -10.522800 -25.461500 -25.073800
C -10.347600 -22.238100 -24.743700
H -10.346900 -23.236900 -21.656100
C -10.212600 -24.613200 -24.669800
C -10.101000 -23.274200 -22.614300
Br -9.613600 -26.115300 -22.175000
H -9.364100 -22.176100 -24.836000
H -9.227700 -24.570100 -24.762500
H -9.114800 -23.217600 -22.682200
Br -8.291500 -27.865800 -20.785100
48
Fragment
Br -8.631300 -21.013200 -20.299900
H -7.808000 -16.365000 -18.402800
H -7.695100 -17.717500 -16.322500
H -7.558700 -15.323500 -16.249000
Br -7.309100 -19.262700 -18.910000
C -6.821800 -16.421600 -18.470600
C -6.710100 -17.760600 -16.415200
H -6.575900 -16.384300 -19.428900
C -6.575100 -15.385500 -16.341300
H -6.400000 -18.608900 -16.011200
N -6.341500 -17.733200 -17.869600
N -6.218800 -15.303200 -17.767500
H -6.175800 -14.616700 -15.862400
N -6.108400 -16.640900 -15.715600
C -4.836600 -17.797600 -18.004600
C -4.744300 -15.410100 -17.882500
C -4.635900 -16.714900 -15.887000
H -4.584200 -17.768800 -18.961900
H -4.501100 -18.645800 -17.620900
H -4.486900 -15.364900 -18.837600
H -4.323700 -14.644300 -17.417000
H -4.302900 -17.555800 -15.484700
N -4.241700 -16.666900 -17.302600
H -4.213800 -15.959400 -15.406000
H -12.708900 -22.812000 -25.678900
N -12.681000 -23.519500 -23.782300
H -12.619800 -24.408400 -25.600300
H -12.599100 -21.496900 -23.668000
H -12.435800 -22.217500 -22.247400
H -12.421700 -25.498400 -23.464100
H -12.338500 -24.621400 -22.123100
C -12.286800 -23.567500 -25.198000
C -12.178400 -22.262700 -23.202500
C -12.086100 -24.650200 -23.080400
N -10.814400 -23.493500 -25.369400
H -10.746900 -21.469300 -25.222500
N -10.704000 -22.155800 -23.317500
N -10.581200 -24.585800 -23.215400
H -10.522800 -25.461500 -25.073800
C -10.347600 -22.238100 -24.743700
H -10.346900 -23.236900 -21.656100
C -10.212600 -24.613200 -24.669800
C -10.101000 -23.274200 -22.614300
Br -9.613600 -26.115300 -22.175000
H -9.364100 -22.176100 -24.836000
H -9.227700 -24.570100 -24.762500
H -9.114800 -23.217600 -22.682200
Br -8.291500 -27.865800 -20.785100
