24
Fragment
Br -8.631300 -21.013200 -20.299900
H -7.808000 -16.365000 -18.402800
H -7.695100 -17.717500 -16.322500
H -7.558700 -15.323500 -16.249000
Br -7.309100 -19.262700 -18.910000
C -6.821800 -16.421600 -18.470600
C -6.710100 -17.760600 -16.415200
H -6.575900 -16.384300 -19.428900
C -6.575100 -15.385500 -16.341300
H -6.400000 -18.608900 -16.011200
N -6.341500 -17.733200 -17.869600
N -6.218800 -15.303200 -17.767500
H -6.175800 -14.616700 -15.862400
N -6.108400 -16.640900 -15.715600
C -4.836600 -17.797600 -18.004600
C -4.744300 -15.410100 -17.882500
C -4.635900 -16.714900 -15.887000
H -4.584200 -17.768800 -18.961900
H -4.501100 -18.645800 -17.620900
H -4.486900 -15.364900 -18.837600
H -4.323700 -14.644300 -17.417000
H -4.302900 -17.555800 -15.484700
N -4.241700 -16.666900 -17.302600
H -4.213800 -15.959400 -15.406000
24
Fragment
Br -13.580700 -13.249800 -26.169100
H -12.757400 -17.898000 -24.272100
H -12.644500 -16.545500 -22.191800
H -12.508100 -18.939500 -22.118300
Br -12.258500 -15.000300 -24.779300
C -11.771200 -17.841400 -24.339900
C -11.659500 -16.502400 -22.284500
H -11.525300 -17.878700 -25.298100
C -11.524500 -18.877500 -22.210500
H -11.349400 -15.654100 -21.880500
N -11.290900 -16.529800 -23.738900
N -11.168200 -18.959800 -23.636800
H -11.125200 -19.646300 -21.731700
N -11.057800 -17.622100 -21.584900
C -9.786100 -16.465400 -23.873900
C -9.693700 -18.852900 -23.751800
C -9.585300 -17.548100 -21.756300
H -9.533600 -16.494200 -24.831200
H -9.450500 -15.617200 -23.490200
H -9.436300 -18.898100 -24.706900
H -9.273100 -19.618700 -23.286300
H -9.252300 -16.707200 -21.354000
N -9.191200 -17.596100 -23.171900
H -9.163200 -18.303600 -21.275300
48
Fragment
Br -8.631300 -21.013200 -20.299900
H -7.808000 -16.365000 -18.402800
H -7.695100 -17.717500 -16.322500
H -7.558700 -15.323500 -16.249000
Br -7.309100 -19.262700 -18.910000
C -6.821800 -16.421600 -18.470600
C -6.710100 -17.760600 -16.415200
H -6.575900 -16.384300 -19.428900
C -6.575100 -15.385500 -16.341300
H -6.400000 -18.608900 -16.011200
N -6.341500 -17.733200 -17.869600
N -6.218800 -15.303200 -17.767500
H -6.175800 -14.616700 -15.862400
N -6.108400 -16.640900 -15.715600
C -4.836600 -17.797600 -18.004600
C -4.744300 -15.410100 -17.882500
C -4.635900 -16.714900 -15.887000
H -4.584200 -17.768800 -18.961900
H -4.501100 -18.645800 -17.620900
H -4.486900 -15.364900 -18.837600
H -4.323700 -14.644300 -17.417000
H -4.302900 -17.555800 -15.484700
N -4.241700 -16.666900 -17.302600
H -4.213800 -15.959400 -15.406000
Br -13.580700 -13.249800 -26.169100
H -12.757400 -17.898000 -24.272100
H -12.644500 -16.545500 -22.191800
H -12.508100 -18.939500 -22.118300
Br -12.258500 -15.000300 -24.779300
C -11.771200 -17.841400 -24.339900
C -11.659500 -16.502400 -22.284500
H -11.525300 -17.878700 -25.298100
C -11.524500 -18.877500 -22.210500
H -11.349400 -15.654100 -21.880500
N -11.290900 -16.529800 -23.738900
N -11.168200 -18.959800 -23.636800
H -11.125200 -19.646300 -21.731700
N -11.057800 -17.622100 -21.584900
C -9.786100 -16.465400 -23.873900
C -9.693700 -18.852900 -23.751800
C -9.585300 -17.548100 -21.756300
H -9.533600 -16.494200 -24.831200
H -9.450500 -15.617200 -23.490200
H -9.436300 -18.898100 -24.706900
H -9.273100 -19.618700 -23.286300
H -9.252300 -16.707200 -21.354000
N -9.191200 -17.596100 -23.171900
H -9.163200 -18.303600 -21.275300
